MODEL 1
REMARK VINA RESULT:      -7.6      0.000      0.000
REMARK  8 active torsions:
REMARK  status: ('A' for Active; 'I' for Inactive)
REMARK    1  A    between atoms: C_17  and  C_16 
REMARK    2  A    between atoms: N_28  and  C_16 
REMARK    3  A    between atoms: O_31  and  C_17 
REMARK    4  A    between atoms: C_26  and  C_19 
REMARK    5  A    between atoms: C_27  and  C_20 
REMARK    6  A    between atoms: O_29  and  C_21 
REMARK    7  A    between atoms: O_30  and  C_22 
REMARK    8  A    between atoms: O_31  and  C_23 
ROOT
HETATM    1  C   UNK N   1      34.969  12.286  17.113  0.00  0.00     0.039 A 
HETATM    2  C   UNK N   1      34.649  13.000  15.956  0.00  0.00     0.041 A 
HETATM    3  C   UNK N   1      36.491  10.908  15.838  0.00  0.00     0.057 A 
HETATM    4  C   UNK N   1      35.900  11.249  17.056  0.00  0.00     0.067 A 
HETATM    5  C   UNK N   1      35.260  12.687  14.736  0.00  0.00     0.086 A 
HETATM    6  C   UNK N   1      36.177  11.615  14.673  0.00  0.00     0.037 A 
HETATM    7  C   UNK N   1      35.793  13.543  12.554  0.00  0.00     0.180 C 
HETATM    8  C   UNK N   1      36.066  12.152  11.935  0.00  0.00     0.119 C 
HETATM    9  O   UNK N   1      34.968  13.442  13.657  0.00  0.00    -0.338 OA
HETATM   10  S   UNK N   1      36.973  11.104  13.137  0.00  0.00    -0.114 SA
ENDROOT
BRANCH   7  11
HETATM   11  C   UNK N   1      35.238  14.604  11.627  0.00  0.00    -0.027 A 
HETATM   12  C   UNK N   1      34.138  14.382  10.781  0.00  0.00     0.012 A 
HETATM   13  C   UNK N   1      33.759  15.349   9.845  0.00  0.00     0.037 A 
HETATM   14  C   UNK N   1      34.484  16.548   9.743  0.00  0.00     0.068 A 
HETATM   15  C   UNK N   1      35.550  16.783  10.612  0.00  0.00     0.037 A 
HETATM   16  C   UNK N   1      35.923  15.822  11.546  0.00  0.00     0.012 A 
BRANCH  14  17
HETATM   17  O   UNK N   1      34.197  17.483   8.816  0.00  0.00    -0.349 OA
BRANCH  17  18
HETATM   18  C   UNK N   1      32.972  17.637   8.209  0.00  0.00     0.206 C 
BRANCH  18  19
HETATM   19  C   UNK N   1      33.138  17.525   6.697  0.00  0.00     0.299 C 
BRANCH  19  20
HETATM   20  N   UNK N   1      32.163  16.599   6.112  0.00  0.00     0.090 N 
HETATM   21  C   UNK N   1      32.815  15.384   5.594  0.00  0.00     0.272 C 
HETATM   22  C   UNK N   1      33.779  15.691   4.447  0.00  0.00     0.030 C 
HETATM   23  C   UNK N   1      33.013  16.367   3.321  0.00  0.00     0.003 C 
HETATM   24  C   UNK N   1      32.319  17.619   3.843  0.00  0.00     0.030 C 
HETATM   25  C   UNK N   1      31.421  17.268   5.036  0.00  0.00     0.272 C 
ENDBRANCH  19  20
ENDBRANCH  18  19
ENDBRANCH  17  18
ENDBRANCH  14  17
ENDBRANCH   7  11
BRANCH   8  26
HETATM   26  C   UNK N   1      36.941  12.283  10.706  0.00  0.00    -0.041 A 
HETATM   27  C   UNK N   1      38.234  12.828  10.803  0.00  0.00     0.011 A 
HETATM   28  C   UNK N   1      39.012  13.008   9.658  0.00  0.00     0.037 A 
HETATM   29  C   UNK N   1      38.509  12.644   8.407  0.00  0.00     0.065 A 
HETATM   30  C   UNK N   1      37.231  12.088   8.301  0.00  0.00     0.037 A 
HETATM   31  C   UNK N   1      36.448  11.909   9.446  0.00  0.00     0.011 A 
BRANCH  29  32
HETATM   32  O   UNK N   1      39.255  12.829   7.306  0.00  0.00    -0.361 OA
HETATM   33  H   UNK N   1      39.115  13.565   6.744  0.00  0.00     0.217 HD
ENDBRANCH  29  32
ENDBRANCH   8  26
BRANCH   4  34
HETATM   34  O   UNK N   1      36.227  10.578  18.172  0.00  0.00    -0.361 OA
HETATM   35  H   UNK N   1      36.470  11.044  18.948  0.00  0.00     0.217 HD
ENDBRANCH   4  34
TORSDOF 8
ENDMDL
MODEL 2
REMARK VINA RESULT:      -7.3      5.185     11.278
REMARK  8 active torsions:
REMARK  status: ('A' for Active; 'I' for Inactive)
REMARK    1  A    between atoms: C_17  and  C_16 
REMARK    2  A    between atoms: N_28  and  C_16 
REMARK    3  A    between atoms: O_31  and  C_17 
REMARK    4  A    between atoms: C_26  and  C_19 
REMARK    5  A    between atoms: C_27  and  C_20 
REMARK    6  A    between atoms: O_29  and  C_21 
REMARK    7  A    between atoms: O_30  and  C_22 
REMARK    8  A    between atoms: O_31  and  C_23 
ROOT
HETATM    1  C   UNK N   1      28.262  12.100   2.039  0.00  0.00     0.039 A 
HETATM    2  C   UNK N   1      29.143  12.901   2.768  0.00  0.00     0.041 A 
HETATM    3  C   UNK N   1      26.461  13.633   2.538  0.00  0.00     0.057 A 
HETATM    4  C   UNK N   1      26.924  12.473   1.912  0.00  0.00     0.067 A 
HETATM    5  C   UNK N   1      28.696  14.082   3.372  0.00  0.00     0.086 A 
HETATM    6  C   UNK N   1      27.334  14.442   3.272  0.00  0.00     0.037 A 
HETATM    7  C   UNK N   1      29.405  16.204   4.250  0.00  0.00     0.180 C 
HETATM    8  C   UNK N   1      28.104  16.452   5.049  0.00  0.00     0.119 C 
HETATM    9  O   UNK N   1      29.594  14.857   4.015  0.00  0.00    -0.338 OA
HETATM   10  S   UNK N   1      26.655  15.914   4.061  0.00  0.00    -0.114 SA
ENDROOT
BRANCH   7  11
HETATM   11  C   UNK N   1      30.680  16.781   4.828  0.00  0.00    -0.027 A 
HETATM   12  C   UNK N   1      31.693  17.348   4.034  0.00  0.00     0.012 A 
HETATM   13  C   UNK N   1      32.908  17.735   4.607  0.00  0.00     0.037 A 
HETATM   14  C   UNK N   1      33.123  17.552   5.983  0.00  0.00     0.068 A 
HETATM   15  C   UNK N   1      32.102  17.028   6.776  0.00  0.00     0.037 A 
HETATM   16  C   UNK N   1      30.891  16.648   6.205  0.00  0.00     0.012 A 
BRANCH  14  17
HETATM   17  O   UNK N   1      34.299  17.851   6.571  0.00  0.00    -0.349 OA
BRANCH  17  18
HETATM   18  C   UNK N   1      34.488  17.982   7.927  0.00  0.00     0.206 C 
BRANCH  18  19
HETATM   19  C   UNK N   1      34.904  16.636   8.512  0.00  0.00     0.299 C 
BRANCH  19  20
HETATM   20  N   UNK N   1      34.327  16.423   9.845  0.00  0.00     0.090 N 
HETATM   21  C   UNK N   1      35.357  16.495  10.896  0.00  0.00     0.272 C 
HETATM   22  C   UNK N   1      36.401  15.386  10.756  0.00  0.00     0.030 C 
HETATM   23  C   UNK N   1      35.707  14.036  10.825  0.00  0.00     0.003 C 
HETATM   24  C   UNK N   1      34.628  13.951   9.753  0.00  0.00     0.030 C 
HETATM   25  C   UNK N   1      33.648  15.123   9.894  0.00  0.00     0.272 C 
ENDBRANCH  19  20
ENDBRANCH  18  19
ENDBRANCH  17  18
ENDBRANCH  14  17
ENDBRANCH   7  11
BRANCH   8  26
HETATM   26  C   UNK N   1      27.931  17.930   5.331  0.00  0.00    -0.041 A 
HETATM   27  C   UNK N   1      27.952  18.413   6.651  0.00  0.00     0.011 A 
HETATM   28  C   UNK N   1      27.728  19.767   6.911  0.00  0.00     0.037 A 
HETATM   29  C   UNK N   1      27.482  20.650   5.857  0.00  0.00     0.065 A 
HETATM   30  C   UNK N   1      27.473  20.182   4.540  0.00  0.00     0.037 A 
HETATM   31  C   UNK N   1      27.696  18.827   4.277  0.00  0.00     0.011 A 
BRANCH  29  32
HETATM   32  O   UNK N   1      27.255  21.948   6.111  0.00  0.00    -0.361 OA
HETATM   33  H   UNK N   1      27.835  22.613   5.796  0.00  0.00     0.217 HD
ENDBRANCH  29  32
ENDBRANCH   8  26
BRANCH   4  34
HETATM   34  O   UNK N   1      26.081  11.717   1.190  0.00  0.00    -0.361 OA
HETATM   35  H   UNK N   1      25.473  12.120   0.602  0.00  0.00     0.217 HD
ENDBRANCH   4  34
TORSDOF 8
ENDMDL
MODEL 3
REMARK VINA RESULT:      -7.3      9.734     13.588
REMARK  8 active torsions:
REMARK  status: ('A' for Active; 'I' for Inactive)
REMARK    1  A    between atoms: C_17  and  C_16 
REMARK    2  A    between atoms: N_28  and  C_16 
REMARK    3  A    between atoms: O_31  and  C_17 
REMARK    4  A    between atoms: C_26  and  C_19 
REMARK    5  A    between atoms: C_27  and  C_20 
REMARK    6  A    between atoms: O_29  and  C_21 
REMARK    7  A    between atoms: O_30  and  C_22 
REMARK    8  A    between atoms: O_31  and  C_23 
ROOT
HETATM    1  C   UNK N   1      23.036  12.219  10.412  0.00  0.00     0.039 A 
HETATM    2  C   UNK N   1      23.666  12.868   9.349  0.00  0.00     0.041 A 
HETATM    3  C   UNK N   1      20.980  13.380   9.899  0.00  0.00     0.057 A 
HETATM    4  C   UNK N   1      21.690  12.465  10.679  0.00  0.00     0.067 A 
HETATM    5  C   UNK N   1      22.955  13.764   8.541  0.00  0.00     0.086 A 
HETATM    6  C   UNK N   1      21.600  14.038   8.833  0.00  0.00     0.037 A 
HETATM    7  C   UNK N   1      22.924  14.838   6.391  0.00  0.00     0.180 C 
HETATM    8  C   UNK N   1      21.922  15.938   6.813  0.00  0.00     0.119 C 
HETATM    9  O   UNK N   1      23.586  14.322   7.487  0.00  0.00    -0.338 OA
HETATM   10  S   UNK N   1      20.619  15.216   7.883  0.00  0.00    -0.114 SA
ENDROOT
BRANCH   7  11
HETATM   11  C   UNK N   1      23.945  15.213   5.338  0.00  0.00    -0.027 A 
HETATM   12  C   UNK N   1      23.956  14.654   4.048  0.00  0.00     0.012 A 
HETATM   13  C   UNK N   1      25.005  14.930   3.166  0.00  0.00     0.037 A 
HETATM   14  C   UNK N   1      26.058  15.767   3.570  0.00  0.00     0.068 A 
HETATM   15  C   UNK N   1      26.023  16.355   4.834  0.00  0.00     0.037 A 
HETATM   16  C   UNK N   1      24.976  16.082   5.710  0.00  0.00     0.012 A 
BRANCH  14  17
HETATM   17  O   UNK N   1      27.121  16.014   2.779  0.00  0.00    -0.349 OA
BRANCH  17  18
HETATM   18  C   UNK N   1      28.140  15.123   2.532  0.00  0.00     0.206 C 
BRANCH  18  19
HETATM   19  C   UNK N   1      29.474  15.861   2.553  0.00  0.00     0.299 C 
BRANCH  19  20
HETATM   20  N   UNK N   1      30.364  15.341   3.598  0.00  0.00     0.090 N 
HETATM   21  C   UNK N   1      30.182  16.061   4.870  0.00  0.00     0.272 C 
HETATM   22  C   UNK N   1      30.560  17.538   4.755  0.00  0.00     0.030 C 
HETATM   23  C   UNK N   1      32.012  17.648   4.319  0.00  0.00     0.003 C 
HETATM   24  C   UNK N   1      32.221  16.896   3.011  0.00  0.00     0.030 C 
HETATM   25  C   UNK N   1      31.762  15.439   3.159  0.00  0.00     0.272 C 
ENDBRANCH  19  20
ENDBRANCH  18  19
ENDBRANCH  17  18
ENDBRANCH  14  17
ENDBRANCH   7  11
BRANCH   8  26
HETATM   26  C   UNK N   1      21.232  16.519   5.596  0.00  0.00    -0.041 A 
HETATM   27  C   UNK N   1      21.505  17.834   5.179  0.00  0.00     0.011 A 
HETATM   28  C   UNK N   1      20.819  18.388   4.096  0.00  0.00     0.037 A 
HETATM   29  C   UNK N   1      19.857  17.635   3.419  0.00  0.00     0.065 A 
HETATM   30  C   UNK N   1      19.588  16.322   3.817  0.00  0.00     0.037 A 
HETATM   31  C   UNK N   1      20.272  15.765   4.902  0.00  0.00     0.011 A 
BRANCH  29  32
HETATM   32  O   UNK N   1      19.191  18.174   2.386  0.00  0.00    -0.361 OA
HETATM   33  H   UNK N   1      19.094  19.102   2.303  0.00  0.00     0.217 HD
ENDBRANCH  29  32
ENDBRANCH   8  26
BRANCH   4  34
HETATM   34  O   UNK N   1      21.076  11.822  11.686  0.00  0.00    -0.361 OA
HETATM   35  H   UNK N   1      20.870  10.912  11.607  0.00  0.00     0.217 HD
ENDBRANCH   4  34
TORSDOF 8
ENDMDL
MODEL 4
REMARK VINA RESULT:      -7.3     11.218     13.814
REMARK  8 active torsions:
REMARK  status: ('A' for Active; 'I' for Inactive)
REMARK    1  A    between atoms: C_17  and  C_16 
REMARK    2  A    between atoms: N_28  and  C_16 
REMARK    3  A    between atoms: O_31  and  C_17 
REMARK    4  A    between atoms: C_26  and  C_19 
REMARK    5  A    between atoms: C_27  and  C_20 
REMARK    6  A    between atoms: O_29  and  C_21 
REMARK    7  A    between atoms: O_30  and  C_22 
REMARK    8  A    between atoms: O_31  and  C_23 
ROOT
HETATM    1  C   UNK N   1      22.345  11.941  10.964  0.00  0.00     0.039 A 
HETATM    2  C   UNK N   1      23.082  12.572   9.960  0.00  0.00     0.041 A 
HETATM    3  C   UNK N   1      20.412  13.268  10.375  0.00  0.00     0.057 A 
HETATM    4  C   UNK N   1      21.007  12.279  11.163  0.00  0.00     0.067 A 
HETATM    5  C   UNK N   1      22.487  13.542   9.144  0.00  0.00     0.086 A 
HETATM    6  C   UNK N   1      21.142  13.908   9.367  0.00  0.00     0.037 A 
HETATM    7  C   UNK N   1      22.661  14.676   7.032  0.00  0.00     0.180 C 
HETATM    8  C   UNK N   1      21.720  15.836   7.433  0.00  0.00     0.119 C 
HETATM    9  O   UNK N   1      23.218  14.081   8.147  0.00  0.00    -0.338 OA
HETATM   10  S   UNK N   1      20.307  15.183   8.404  0.00  0.00    -0.114 SA
ENDROOT
BRANCH   7  11
HETATM   11  C   UNK N   1      23.767  15.005   6.052  0.00  0.00    -0.027 A 
HETATM   12  C   UNK N   1      23.671  14.745   4.673  0.00  0.00     0.012 A 
HETATM   13  C   UNK N   1      24.776  14.937   3.838  0.00  0.00     0.037 A 
HETATM   14  C   UNK N   1      25.993  15.386   4.378  0.00  0.00     0.068 A 
HETATM   15  C   UNK N   1      26.074  15.683   5.738  0.00  0.00     0.037 A 
HETATM   16  C   UNK N   1      24.972  15.496   6.568  0.00  0.00     0.012 A 
BRANCH  14  17
HETATM   17  O   UNK N   1      27.102  15.527   3.625  0.00  0.00    -0.349 OA
BRANCH  17  18
HETATM   18  C   UNK N   1      27.838  16.685   3.521  0.00  0.00     0.206 C 
BRANCH  18  19
HETATM   19  C   UNK N   1      26.905  17.888   3.613  0.00  0.00     0.299 C 
BRANCH  19  20
HETATM   20  N   UNK N   1      27.653  19.147   3.703  0.00  0.00     0.090 N 
HETATM   21  C   UNK N   1      28.373  19.257   4.984  0.00  0.00     0.272 C 
HETATM   22  C   UNK N   1      27.419  19.298   6.179  0.00  0.00     0.030 C 
HETATM   23  C   UNK N   1      26.482  20.485   6.028  0.00  0.00     0.003 C 
HETATM   24  C   UNK N   1      25.739  20.395   4.701  0.00  0.00     0.030 C 
HETATM   25  C   UNK N   1      26.738  20.284   3.541  0.00  0.00     0.272 C 
ENDBRANCH  19  20
ENDBRANCH  18  19
ENDBRANCH  17  18
ENDBRANCH  14  17
ENDBRANCH   7  11
BRANCH   8  26
HETATM   26  C   UNK N   1      21.147  16.502   6.200  0.00  0.00    -0.041 A 
HETATM   27  C   UNK N   1      20.168  15.852   5.426  0.00  0.00     0.011 A 
HETATM   28  C   UNK N   1      19.689  16.441   4.254  0.00  0.00     0.037 A 
HETATM   29  C   UNK N   1      20.181  17.683   3.844  0.00  0.00     0.065 A 
HETATM   30  C   UNK N   1      21.144  18.342   4.613  0.00  0.00     0.037 A 
HETATM   31  C   UNK N   1      21.626  17.755   5.786  0.00  0.00     0.011 A 
BRANCH  29  32
HETATM   32  O   UNK N   1      19.728  18.241   2.710  0.00  0.00    -0.361 OA
HETATM   33  H   UNK N   1      18.970  18.792   2.710  0.00  0.00     0.217 HD
ENDBRANCH  29  32
ENDBRANCH   8  26
BRANCH   4  34
HETATM   34  O   UNK N   1      20.289  11.655  12.110  0.00  0.00    -0.361 OA
HETATM   35  H   UNK N   1      19.438  11.319  11.912  0.00  0.00     0.217 HD
ENDBRANCH   4  34
TORSDOF 8
ENDMDL
MODEL 5
REMARK VINA RESULT:      -7.1     17.003     20.179
REMARK  8 active torsions:
REMARK  status: ('A' for Active; 'I' for Inactive)
REMARK    1  A    between atoms: C_17  and  C_16 
REMARK    2  A    between atoms: N_28  and  C_16 
REMARK    3  A    between atoms: O_31  and  C_17 
REMARK    4  A    between atoms: C_26  and  C_19 
REMARK    5  A    between atoms: C_27  and  C_20 
REMARK    6  A    between atoms: O_29  and  C_21 
REMARK    7  A    between atoms: O_30  and  C_22 
REMARK    8  A    between atoms: O_31  and  C_23 
ROOT
HETATM    1  C   UNK N   1      34.991  20.727  -4.601  0.00  0.00     0.039 A 
HETATM    2  C   UNK N   1      34.450  22.010  -4.521  0.00  0.00     0.041 A 
HETATM    3  C   UNK N   1      32.768  19.784  -4.486  0.00  0.00     0.057 A 
HETATM    4  C   UNK N   1      34.150  19.614  -4.598  0.00  0.00     0.067 A 
HETATM    5  C   UNK N   1      33.064  22.194  -4.440  0.00  0.00     0.086 A 
HETATM    6  C   UNK N   1      32.215  21.066  -4.403  0.00  0.00     0.037 A 
HETATM    7  C   UNK N   1      31.290  23.776  -4.796  0.00  0.00     0.180 C 
HETATM    8  C   UNK N   1      30.257  23.002  -3.942  0.00  0.00     0.119 C 
HETATM    9  O   UNK N   1      32.580  23.453  -4.426  0.00  0.00    -0.338 OA
HETATM   10  S   UNK N   1      30.423  21.201  -4.246  0.00  0.00    -0.114 SA
ENDROOT
BRANCH   7  11
HETATM   11  C   UNK N   1      31.155  25.284  -4.828  0.00  0.00    -0.027 A 
HETATM   12  C   UNK N   1      31.119  26.024  -6.022  0.00  0.00     0.012 A 
HETATM   13  C   UNK N   1      31.137  27.422  -5.989  0.00  0.00     0.037 A 
HETATM   14  C   UNK N   1      31.198  28.093  -4.756  0.00  0.00     0.068 A 
HETATM   15  C   UNK N   1      31.191  27.357  -3.571  0.00  0.00     0.037 A 
HETATM   16  C   UNK N   1      31.168  25.965  -3.605  0.00  0.00     0.012 A 
BRANCH  14  17
HETATM   17  O   UNK N   1      31.279  29.436  -4.674  0.00  0.00    -0.349 OA
BRANCH  17  18
HETATM   18  C   UNK N   1      30.322  30.310  -5.133  0.00  0.00     0.206 C 
BRANCH  18  19
HETATM   19  C   UNK N   1      29.056  30.159  -4.296  0.00  0.00     0.299 C 
BRANCH  19  20
HETATM   20  N   UNK N   1      27.846  30.290  -5.115  0.00  0.00     0.090 N 
HETATM   21  C   UNK N   1      26.637  30.402  -4.280  0.00  0.00     0.272 C 
HETATM   22  C   UNK N   1      26.394  29.142  -3.448  0.00  0.00     0.030 C 
HETATM   23  C   UNK N   1      26.251  27.950  -4.380  0.00  0.00     0.003 C 
HETATM   24  C   UNK N   1      27.487  27.828  -5.263  0.00  0.00     0.030 C 
HETATM   25  C   UNK N   1      27.727  29.141  -6.021  0.00  0.00     0.272 C 
ENDBRANCH  19  20
ENDBRANCH  18  19
ENDBRANCH  17  18
ENDBRANCH  14  17
ENDBRANCH   7  11
BRANCH   8  26
HETATM   26  C   UNK N   1      28.848  23.395  -4.334  0.00  0.00    -0.041 A 
HETATM   27  C   UNK N   1      28.412  23.262  -5.665  0.00  0.00     0.011 A 
HETATM   28  C   UNK N   1      27.134  23.685  -6.035  0.00  0.00     0.037 A 
HETATM   29  C   UNK N   1      26.280  24.244  -5.082  0.00  0.00     0.065 A 
HETATM   30  C   UNK N   1      26.698  24.368  -3.754  0.00  0.00     0.037 A 
HETATM   31  C   UNK N   1      27.978  23.946  -3.380  0.00  0.00     0.011 A 
BRANCH  29  32
HETATM   32  O   UNK N   1      25.056  24.661  -5.443  0.00  0.00    -0.361 OA
HETATM   33  H   UNK N   1      24.592  25.298  -4.936  0.00  0.00     0.217 HD
ENDBRANCH  29  32
ENDBRANCH   8  26
BRANCH   4  34
HETATM   34  O   UNK N   1      34.668  18.379  -4.701  0.00  0.00    -0.361 OA
HETATM   35  H   UNK N   1      34.272  17.749  -5.269  0.00  0.00     0.217 HD
ENDBRANCH   4  34
TORSDOF 8
ENDMDL
MODEL 6
REMARK VINA RESULT:      -7.0      2.742      4.040
REMARK  8 active torsions:
REMARK  status: ('A' for Active; 'I' for Inactive)
REMARK    1  A    between atoms: C_17  and  C_16 
REMARK    2  A    between atoms: N_28  and  C_16 
REMARK    3  A    between atoms: O_31  and  C_17 
REMARK    4  A    between atoms: C_26  and  C_19 
REMARK    5  A    between atoms: C_27  and  C_20 
REMARK    6  A    between atoms: O_29  and  C_21 
REMARK    7  A    between atoms: O_30  and  C_22 
REMARK    8  A    between atoms: O_31  and  C_23 
ROOT
HETATM    1  C   UNK N   1      35.221  13.304  18.843  0.00  0.00     0.039 A 
HETATM    2  C   UNK N   1      35.268  13.482  17.460  0.00  0.00     0.041 A 
HETATM    3  C   UNK N   1      35.227  10.907  18.533  0.00  0.00     0.057 A 
HETATM    4  C   UNK N   1      35.214  12.017  19.381  0.00  0.00     0.067 A 
HETATM    5  C   UNK N   1      35.313  12.377  16.602  0.00  0.00     0.086 A 
HETATM    6  C   UNK N   1      35.272  11.073  17.145  0.00  0.00     0.037 A 
HETATM    7  C   UNK N   1      35.914  11.658  14.388  0.00  0.00     0.180 C 
HETATM    8  C   UNK N   1      35.099  10.345  14.456  0.00  0.00     0.119 C 
HETATM    9  O   UNK N   1      35.421  12.594  15.275  0.00  0.00    -0.338 OA
HETATM   10  S   UNK N   1      35.272   9.591  16.119  0.00  0.00    -0.114 SA
ENDROOT
BRANCH   7  11
HETATM   11  C   UNK N   1      36.054  12.304  13.026  0.00  0.00    -0.027 A 
HETATM   12  C   UNK N   1      37.268  12.341  12.317  0.00  0.00     0.012 A 
HETATM   13  C   UNK N   1      37.373  13.074  11.131  0.00  0.00     0.037 A 
HETATM   14  C   UNK N   1      36.262  13.783  10.645  0.00  0.00     0.068 A 
HETATM   15  C   UNK N   1      35.047  13.711  11.328  0.00  0.00     0.037 A 
HETATM   16  C   UNK N   1      34.943  12.977  12.506  0.00  0.00     0.012 A 
BRANCH  14  17
HETATM   17  O   UNK N   1      36.330  14.553   9.541  0.00  0.00    -0.349 OA
BRANCH  17  18
HETATM   18  C   UNK N   1      35.863  14.188   8.299  0.00  0.00     0.206 C 
BRANCH  18  19
HETATM   19  C   UNK N   1      35.067  15.341   7.698  0.00  0.00     0.299 C 
BRANCH  19  20
HETATM   20  N   UNK N   1      34.385  16.126   8.733  0.00  0.00     0.090 N 
HETATM   21  C   UNK N   1      32.995  15.676   8.925  0.00  0.00     0.272 C 
HETATM   22  C   UNK N   1      32.145  15.885   7.671  0.00  0.00     0.030 C 
HETATM   23  C   UNK N   1      32.148  17.361   7.308  0.00  0.00     0.003 C 
HETATM   24  C   UNK N   1      33.579  17.847   7.120  0.00  0.00     0.030 C 
HETATM   25  C   UNK N   1      34.408  17.550   8.377  0.00  0.00     0.272 C 
ENDBRANCH  19  20
ENDBRANCH  18  19
ENDBRANCH  17  18
ENDBRANCH  14  17
ENDBRANCH   7  11
BRANCH   8  26
HETATM   26  C   UNK N   1      35.629   9.343  13.452  0.00  0.00    -0.041 A 
HETATM   27  C   UNK N   1      34.832   8.924  12.371  0.00  0.00     0.011 A 
HETATM   28  C   UNK N   1      35.300   7.952  11.484  0.00  0.00     0.037 A 
HETATM   29  C   UNK N   1      36.566   7.391  11.666  0.00  0.00     0.065 A 
HETATM   30  C   UNK N   1      37.371   7.810  12.729  0.00  0.00     0.037 A 
HETATM   31  C   UNK N   1      36.905   8.782  13.620  0.00  0.00     0.011 A 
BRANCH  29  32
HETATM   32  O   UNK N   1      37.008   6.447  10.820  0.00  0.00    -0.361 OA
HETATM   33  H   UNK N   1      37.425   6.677  10.013  0.00  0.00     0.217 HD
ENDBRANCH  29  32
ENDBRANCH   8  26
BRANCH   4  34
HETATM   34  O   UNK N   1      35.194  11.845  20.712  0.00  0.00    -0.361 OA
HETATM   35  H   UNK N   1      34.378  11.752  21.163  0.00  0.00     0.217 HD
ENDBRANCH   4  34
TORSDOF 8
ENDMDL
MODEL 7
REMARK VINA RESULT:      -7.0      6.967     11.864
REMARK  8 active torsions:
REMARK  status: ('A' for Active; 'I' for Inactive)
REMARK    1  A    between atoms: C_17  and  C_16 
REMARK    2  A    between atoms: N_28  and  C_16 
REMARK    3  A    between atoms: O_31  and  C_17 
REMARK    4  A    between atoms: C_26  and  C_19 
REMARK    5  A    between atoms: C_27  and  C_20 
REMARK    6  A    between atoms: O_29  and  C_21 
REMARK    7  A    between atoms: O_30  and  C_22 
REMARK    8  A    between atoms: O_31  and  C_23 
ROOT
HETATM    1  C   UNK N   1      22.205  15.040   2.255  0.00  0.00     0.039 A 
HETATM    2  C   UNK N   1      23.047  15.758   3.105  0.00  0.00     0.041 A 
HETATM    3  C   UNK N   1      24.134  14.098   1.144  0.00  0.00     0.057 A 
HETATM    4  C   UNK N   1      22.748  14.200   1.283  0.00  0.00     0.067 A 
HETATM    5  C   UNK N   1      24.438  15.640   2.995  0.00  0.00     0.086 A 
HETATM    6  C   UNK N   1      24.988  14.815   1.989  0.00  0.00     0.037 A 
HETATM    7  C   UNK N   1      26.513  15.941   4.171  0.00  0.00     0.180 C 
HETATM    8  C   UNK N   1      27.386  15.921   2.894  0.00  0.00     0.119 C 
HETATM    9  O   UNK N   1      25.213  16.304   3.877  0.00  0.00    -0.338 OA
HETATM   10  S   UNK N   1      26.765  14.641   1.736  0.00  0.00    -0.114 SA
ENDROOT
BRANCH   7  11
HETATM   11  C   UNK N   1      27.008  16.792   5.321  0.00  0.00    -0.027 A 
HETATM   12  C   UNK N   1      27.429  18.124   5.163  0.00  0.00     0.012 A 
HETATM   13  C   UNK N   1      28.009  18.815   6.231  0.00  0.00     0.037 A 
HETATM   14  C   UNK N   1      28.179  18.174   7.470  0.00  0.00     0.068 A 
HETATM   15  C   UNK N   1      27.722  16.867   7.637  0.00  0.00     0.037 A 
HETATM   16  C   UNK N   1      27.140  16.182   6.574  0.00  0.00     0.012 A 
BRANCH  14  17
HETATM   17  O   UNK N   1      28.788  18.776   8.511  0.00  0.00    -0.349 OA
BRANCH  17  18
HETATM   18  C   UNK N   1      29.684  18.165   9.357  0.00  0.00     0.206 C 
BRANCH  18  19
HETATM   19  C   UNK N   1      31.097  18.339   8.809  0.00  0.00     0.299 C 
BRANCH  19  20
HETATM   20  N   UNK N   1      31.771  17.049   8.629  0.00  0.00     0.090 N 
HETATM   21  C   UNK N   1      33.235  17.185   8.737  0.00  0.00     0.272 C 
HETATM   22  C   UNK N   1      33.813  18.069   7.632  0.00  0.00     0.030 C 
HETATM   23  C   UNK N   1      33.463  17.470   6.279  0.00  0.00     0.003 C 
HETATM   24  C   UNK N   1      31.953  17.309   6.157  0.00  0.00     0.030 C 
HETATM   25  C   UNK N   1      31.414  16.474   7.327  0.00  0.00     0.272 C 
ENDBRANCH  19  20
ENDBRANCH  18  19
ENDBRANCH  17  18
ENDBRANCH  14  17
ENDBRANCH   7  11
BRANCH   8  26
HETATM   26  C   UNK N   1      28.815  15.558   3.238  0.00  0.00    -0.041 A 
HETATM   27  C   UNK N   1      29.881  16.372   2.813  0.00  0.00     0.011 A 
HETATM   28  C   UNK N   1      31.201  16.000   3.076  0.00  0.00     0.037 A 
HETATM   29  C   UNK N   1      31.470  14.816   3.767  0.00  0.00     0.065 A 
HETATM   30  C   UNK N   1      30.417  14.007   4.205  0.00  0.00     0.037 A 
HETATM   31  C   UNK N   1      29.094  14.376   3.941  0.00  0.00     0.011 A 
BRANCH  29  32
HETATM   32  O   UNK N   1      32.740  14.455   4.007  0.00  0.00    -0.361 OA
HETATM   33  H   UNK N   1      33.274  14.081   3.334  0.00  0.00     0.217 HD
ENDBRANCH  29  32
ENDBRANCH   8  26
BRANCH   4  34
HETATM   34  O   UNK N   1      21.939  13.489   0.481  0.00  0.00    -0.361 OA
HETATM   35  H   UNK N   1      21.156  13.873   0.142  0.00  0.00     0.217 HD
ENDBRANCH   4  34
TORSDOF 8
ENDMDL
MODEL 8
REMARK VINA RESULT:      -7.0     18.625     21.639
REMARK  8 active torsions:
REMARK  status: ('A' for Active; 'I' for Inactive)
REMARK    1  A    between atoms: C_17  and  C_16 
REMARK    2  A    between atoms: N_28  and  C_16 
REMARK    3  A    between atoms: O_31  and  C_17 
REMARK    4  A    between atoms: C_26  and  C_19 
REMARK    5  A    between atoms: C_27  and  C_20 
REMARK    6  A    between atoms: O_29  and  C_21 
REMARK    7  A    between atoms: O_30  and  C_22 
REMARK    8  A    between atoms: O_31  and  C_23 
ROOT
HETATM    1  C   UNK N   1      27.927  29.699  -2.961  0.00  0.00     0.039 A 
HETATM    2  C   UNK N   1      28.641  28.572  -3.372  0.00  0.00     0.041 A 
HETATM    3  C   UNK N   1      26.104  29.072  -4.419  0.00  0.00     0.057 A 
HETATM    4  C   UNK N   1      26.653  29.942  -3.474  0.00  0.00     0.067 A 
HETATM    5  C   UNK N   1      28.087  27.677  -4.294  0.00  0.00     0.086 A 
HETATM    6  C   UNK N   1      26.811  27.941  -4.839  0.00  0.00     0.037 A 
HETATM    7  C   UNK N   1      28.204  25.425  -5.129  0.00  0.00     0.180 C 
HETATM    8  C   UNK N   1      27.428  25.732  -6.431  0.00  0.00     0.119 C 
HETATM    9  O   UNK N   1      28.785  26.569  -4.617  0.00  0.00    -0.338 OA
HETATM   10  S   UNK N   1      26.039  26.875  -6.072  0.00  0.00    -0.114 SA
ENDROOT
BRANCH   7  11
HETATM   11  C   UNK N   1      29.254  24.337  -5.202  0.00  0.00    -0.027 A 
HETATM   12  C   UNK N   1      29.216  23.181  -4.401  0.00  0.00     0.012 A 
HETATM   13  C   UNK N   1      30.284  22.280  -4.408  0.00  0.00     0.037 A 
HETATM   14  C   UNK N   1      31.407  22.530  -5.215  0.00  0.00     0.068 A 
HETATM   15  C   UNK N   1      31.424  23.655  -6.040  0.00  0.00     0.037 A 
HETATM   16  C   UNK N   1      30.358  24.550  -6.035  0.00  0.00     0.012 A 
BRANCH  14  17
HETATM   17  O   UNK N   1      32.488  21.724  -5.211  0.00  0.00    -0.349 OA
BRANCH  17  18
HETATM   18  C   UNK N   1      32.917  20.981  -6.285  0.00  0.00     0.206 C 
BRANCH  18  19
HETATM   19  C   UNK N   1      31.852  19.949  -6.644  0.00  0.00     0.299 C 
BRANCH  19  20
HETATM   20  N   UNK N   1      31.541  19.969  -8.078  0.00  0.00     0.090 N 
HETATM   21  C   UNK N   1      30.721  21.139  -8.437  0.00  0.00     0.272 C 
HETATM   22  C   UNK N   1      29.353  21.115  -7.755  0.00  0.00     0.030 C 
HETATM   23  C   UNK N   1      28.618  19.846  -8.157  0.00  0.00     0.003 C 
HETATM   24  C   UNK N   1      29.459  18.625  -7.806  0.00  0.00     0.030 C 
HETATM   25  C   UNK N   1      30.845  18.732  -8.456  0.00  0.00     0.272 C 
ENDBRANCH  19  20
ENDBRANCH  18  19
ENDBRANCH  17  18
ENDBRANCH  14  17
ENDBRANCH   7  11
BRANCH   8  26
HETATM   26  C   UNK N   1      26.828  24.463  -6.999  0.00  0.00    -0.041 A 
HETATM   27  C   UNK N   1      27.028  24.120  -8.348  0.00  0.00     0.011 A 
HETATM   28  C   UNK N   1      26.421  22.983  -8.885  0.00  0.00     0.037 A 
HETATM   29  C   UNK N   1      25.611  22.178  -8.081  0.00  0.00     0.065 A 
HETATM   30  C   UNK N   1      25.417  22.502  -6.736  0.00  0.00     0.037 A 
HETATM   31  C   UNK N   1      26.022  23.641  -6.196  0.00  0.00     0.011 A 
BRANCH  29  32
HETATM   32  O   UNK N   1      25.018  21.092  -8.603  0.00  0.00    -0.361 OA
HETATM   33  H   UNK N   1      25.520  20.351  -8.880  0.00  0.00     0.217 HD
ENDBRANCH  29  32
ENDBRANCH   8  26
BRANCH   4  34
HETATM   34  O   UNK N   1      25.954  31.012  -3.061  0.00  0.00    -0.361 OA
HETATM   35  H   UNK N   1      26.389  31.720  -2.628  0.00  0.00     0.217 HD
ENDBRANCH   4  34
TORSDOF 8
ENDMDL
MODEL 9
REMARK VINA RESULT:      -7.0      5.251      9.716
REMARK  8 active torsions:
REMARK  status: ('A' for Active; 'I' for Inactive)
REMARK    1  A    between atoms: C_17  and  C_16 
REMARK    2  A    between atoms: N_28  and  C_16 
REMARK    3  A    between atoms: O_31  and  C_17 
REMARK    4  A    between atoms: C_26  and  C_19 
REMARK    5  A    between atoms: C_27  and  C_20 
REMARK    6  A    between atoms: O_29  and  C_21 
REMARK    7  A    between atoms: O_30  and  C_22 
REMARK    8  A    between atoms: O_31  and  C_23 
ROOT
HETATM    1  C   UNK N   1      26.725  20.193   4.928  0.00  0.00     0.039 A 
HETATM    2  C   UNK N   1      27.642  19.220   4.525  0.00  0.00     0.041 A 
HETATM    3  C   UNK N   1      27.547  20.024   7.195  0.00  0.00     0.057 A 
HETATM    4  C   UNK N   1      26.687  20.605   6.260  0.00  0.00     0.067 A 
HETATM    5  C   UNK N   1      28.530  18.654   5.448  0.00  0.00     0.086 A 
HETATM    6  C   UNK N   1      28.468  19.047   6.803  0.00  0.00     0.037 A 
HETATM    7  C   UNK N   1      30.616  17.482   5.669  0.00  0.00     0.180 C 
HETATM    8  C   UNK N   1      30.337  16.998   7.112  0.00  0.00     0.119 C 
HETATM    9  O   UNK N   1      29.440  17.763   5.004  0.00  0.00    -0.338 OA
HETATM   10  S   UNK N   1      29.533  18.337   8.073  0.00  0.00    -0.114 SA
ENDROOT
BRANCH   7  11
HETATM   11  C   UNK N   1      31.464  16.579   4.799  0.00  0.00    -0.027 A 
HETATM   12  C   UNK N   1      32.658  17.002   4.190  0.00  0.00     0.012 A 
HETATM   13  C   UNK N   1      33.324  16.172   3.283  0.00  0.00     0.037 A 
HETATM   14  C   UNK N   1      32.796  14.907   2.973  0.00  0.00     0.068 A 
HETATM   15  C   UNK N   1      31.634  14.472   3.611  0.00  0.00     0.037 A 
HETATM   16  C   UNK N   1      30.975  15.298   4.516  0.00  0.00     0.012 A 
BRANCH  14  17
HETATM   17  O   UNK N   1      33.367  14.096   2.060  0.00  0.00    -0.349 OA
BRANCH  17  18
HETATM   18  C   UNK N   1      34.644  13.594   2.147  0.00  0.00     0.206 C 
BRANCH  18  19
HETATM   19  C   UNK N   1      34.721  12.601   3.301  0.00  0.00     0.299 C 
BRANCH  19  20
HETATM   20  N   UNK N   1      35.973  12.740   4.054  0.00  0.00     0.090 N 
HETATM   21  C   UNK N   1      36.178  11.608   4.975  0.00  0.00     0.272 C 
HETATM   22  C   UNK N   1      35.096  11.540   6.053  0.00  0.00     0.030 C 
HETATM   23  C   UNK N   1      35.099  12.837   6.845  0.00  0.00     0.003 C 
HETATM   24  C   UNK N   1      34.902  14.020   5.905  0.00  0.00     0.030 C 
HETATM   25  C   UNK N   1      35.969  14.003   4.802  0.00  0.00     0.272 C 
ENDBRANCH  19  20
ENDBRANCH  18  19
ENDBRANCH  17  18
ENDBRANCH  14  17
ENDBRANCH   7  11
BRANCH   8  26
HETATM   26  C   UNK N   1      31.635  16.658   7.815  0.00  0.00    -0.041 A 
HETATM   27  C   UNK N   1      32.660  17.615   7.926  0.00  0.00     0.011 A 
HETATM   28  C   UNK N   1      33.879  17.279   8.517  0.00  0.00     0.037 A 
HETATM   29  C   UNK N   1      34.086  15.986   9.005  0.00  0.00     0.065 A 
HETATM   30  C   UNK N   1      33.069  15.032   8.912  0.00  0.00     0.037 A 
HETATM   31  C   UNK N   1      31.848  15.365   8.319  0.00  0.00     0.011 A 
BRANCH  29  32
HETATM   32  O   UNK N   1      35.263  15.662   9.562  0.00  0.00    -0.361 OA
HETATM   33  H   UNK N   1      35.590  16.123  10.310  0.00  0.00     0.217 HD
ENDBRANCH  29  32
ENDBRANCH   8  26
BRANCH   4  34
HETATM   34  O   UNK N   1      25.823  21.559   6.644  0.00  0.00    -0.361 OA
HETATM   35  H   UNK N   1      25.468  21.551   7.511  0.00  0.00     0.217 HD
ENDBRANCH   4  34
TORSDOF 8
ENDMDL
