REMARK  5 active torsions:
REMARK  status: ('A' for Active; 'I' for Inactive)
REMARK    1  A    between atoms: C_2  and  N_1 
REMARK    2  A    between atoms: C_2  and  C_3 
REMARK    3  A    between atoms: C_2  and  C_14 
REMARK    4  A    between atoms: C_3  and  C_4 
REMARK    5  A    between atoms: C_14  and  O_15 
ROOT
HETATM    1  C   UNK N   1      -0.051  -0.273  -0.018  0.00  0.00    -0.025 A 
HETATM    2  C   UNK N   1      -0.760  -1.472  -0.081  0.00  0.00     0.096 A 
HETATM    3  N   UNK N   1       0.110  -2.515  -0.100  0.00  0.00    -0.365 N 
HETATM    4  C   UNK N   1       1.340  -1.976  -0.054  0.00  0.00     0.045 A 
HETATM    5  C   UNK N   1       1.281  -0.612  -0.003  0.00  0.00     0.037 A 
HETATM    6  C   UNK N   1       2.435   0.170   0.044  0.00  0.00     0.129 A 
HETATM    7  F   UNK N   1       2.370   1.524   0.089  0.00  0.00    -0.205 F 
HETATM    8  C   UNK N   1       3.679  -0.486   0.036  0.00  0.00     0.043 A 
HETATM    9  C   UNK N   1       3.738  -1.897  -0.015  0.00  0.00     0.005 A 
HETATM   10  C   UNK N   1       2.555  -2.659  -0.061  0.00  0.00     0.030 A 
HETATM   11  H   UNK N   1      -0.115  -3.473  -0.139  0.00  0.00     0.165 HD
ENDROOT
BRANCH   1  12
HETATM   12  C   UNK N   1      -0.592   1.127   0.034  0.00  0.00     0.076 C 
BRANCH  12  13
HETATM   13  C   UNK N   1      -2.090   1.283  -0.254  0.00  0.00     0.177 C 
BRANCH  13  14
HETATM   14  N   UNK N   1      -2.879   0.466   0.654  0.00  0.00    -0.417 N 
HETATM   15  H   UNK N   1      -3.652   0.659   1.290  0.00  0.00     0.150 HD
HETATM   16  H   UNK N   1      -2.598  -0.515   0.654  0.00  0.00     0.150 HD
ENDBRANCH  13  14
BRANCH  13  17
HETATM   17  C   UNK N   1      -2.522   2.720  -0.121  0.00  0.00     0.163 C 
HETATM   18  O   UNK N   1      -1.725   3.589   0.202  0.00  0.00    -0.648 OA
BRANCH  17  19
HETATM   19  O   UNK N   1      -3.806   3.053  -0.351  0.00  0.00    -0.775 OA
HETATM   20  H   UNK N   1      -4.052   3.943  -0.511  0.00  0.00     0.167 HD
ENDBRANCH  17  19
ENDBRANCH  13  17
ENDBRANCH  12  13
ENDBRANCH   1  12
TORSDOF 5
