MODEL 1
REMARK VINA RESULT:      -3.8      0.000      0.000
REMARK  5 active torsions:
REMARK  status: ('A' for Active; 'I' for Inactive)
REMARK    1  A    between atoms: C_4  and  C_2 
REMARK    2  A    between atoms: O_9  and  C_3 
REMARK    3  A    between atoms: C_5  and  C_4 
REMARK    4  A    between atoms: C_4  and  N_6 
REMARK    5  A    between atoms: O_8  and  C_5 
ROOT
HETATM    1  C   UNK N   1      43.611  22.722   3.393  0.00  0.00     0.198 C 
ENDROOT
BRANCH   1   2
HETATM    2  C   UNK N   1      43.725  23.272   1.985  0.00  0.00     0.032 C 
HETATM    3  C   UNK N   1      44.551  24.268   1.625  0.00  0.00     0.132 C 
BRANCH   3   4
HETATM    4  O   UNK N   1      45.354  24.879   2.522  0.00  0.00    -0.368 OA
HETATM    5  C   UNK N   1      46.557  25.418   2.137  0.00  0.00     0.208 C 
ENDBRANCH   3   4
ENDBRANCH   1   2
BRANCH   1   6
HETATM    6  C   UNK N   1      44.783  21.853   3.803  0.00  0.00     0.167 C 
HETATM    7  O   UNK N   1      44.729  20.638   3.675  0.00  0.00    -0.648 OA
BRANCH   6   8
HETATM    8  O   UNK N   1      45.919  22.410   4.264  0.00  0.00    -0.775 OA
HETATM    9  H   UNK N   1      46.205  22.238   5.139  0.00  0.00     0.167 HD
ENDBRANCH   6   8
ENDBRANCH   1   6
BRANCH   1  10
HETATM   10  N   UNK N   1      43.492  23.844   4.315  0.00  0.00    -0.415 N 
HETATM   11  H   UNK N   1      44.175  24.601   4.287  0.00  0.00     0.151 HD
HETATM   12  H   UNK N   1      42.726  23.872   4.987  0.00  0.00     0.151 HD
ENDBRANCH   1  10
TORSDOF 5
ENDMDL
MODEL 2
REMARK VINA RESULT:      -3.8     24.280     25.307
REMARK  5 active torsions:
REMARK  status: ('A' for Active; 'I' for Inactive)
REMARK    1  A    between atoms: C_4  and  C_2 
REMARK    2  A    between atoms: O_9  and  C_3 
REMARK    3  A    between atoms: C_5  and  C_4 
REMARK    4  A    between atoms: C_4  and  N_6 
REMARK    5  A    between atoms: O_8  and  C_5 
ROOT
HETATM    1  C   UNK N   1      20.133  19.031   2.552  0.00  0.00     0.198 C 
ENDROOT
BRANCH   1   2
HETATM    2  C   UNK N   1      20.690  17.621   2.566  0.00  0.00     0.032 C 
HETATM    3  C   UNK N   1      20.515  16.727   1.579  0.00  0.00     0.132 C 
BRANCH   3   4
HETATM    4  O   UNK N   1      19.796  17.025   0.475  0.00  0.00    -0.368 OA
HETATM    5  C   UNK N   1      18.985  16.085  -0.111  0.00  0.00     0.208 C 
ENDBRANCH   3   4
ENDBRANCH   1   2
BRANCH   1   6
HETATM    6  C   UNK N   1      20.806  19.941   1.544  0.00  0.00     0.167 C 
HETATM    7  O   UNK N   1      21.635  20.763   1.908  0.00  0.00    -0.648 OA
BRANCH   6   8
HETATM    8  O   UNK N   1      20.539  19.822   0.230  0.00  0.00    -0.775 OA
HETATM    9  H   UNK N   1      20.106  19.058  -0.093  0.00  0.00     0.167 HD
ENDBRANCH   6   8
ENDBRANCH   1   6
BRANCH   1  10
HETATM   10  N   UNK N   1      18.706  18.956   2.263  0.00  0.00    -0.415 N 
HETATM   11  H   UNK N   1      18.350  18.231   1.640  0.00  0.00     0.151 HD
HETATM   12  H   UNK N   1      18.065  19.629   2.683  0.00  0.00     0.151 HD
ENDBRANCH   1  10
TORSDOF 5
ENDMDL
MODEL 3
REMARK VINA RESULT:      -3.8     23.973     25.036
REMARK  5 active torsions:
REMARK  status: ('A' for Active; 'I' for Inactive)
REMARK    1  A    between atoms: C_4  and  C_2 
REMARK    2  A    between atoms: O_9  and  C_3 
REMARK    3  A    between atoms: C_5  and  C_4 
REMARK    4  A    between atoms: C_4  and  N_6 
REMARK    5  A    between atoms: O_8  and  C_5 
ROOT
HETATM    1  C   UNK N   1      20.297  19.181   1.985  0.00  0.00     0.198 C 
ENDROOT
BRANCH   1   2
HETATM    2  C   UNK N   1      21.148  18.648   3.121  0.00  0.00     0.032 C 
HETATM    3  C   UNK N   1      20.782  17.646   3.936  0.00  0.00     0.132 C 
BRANCH   3   4
HETATM    4  O   UNK N   1      19.586  17.030   3.807  0.00  0.00    -0.368 OA
HETATM    5  C   UNK N   1      19.146  16.142   4.757  0.00  0.00     0.208 C 
ENDBRANCH   3   4
ENDBRANCH   1   2
BRANCH   1   6
HETATM    6  C   UNK N   1      20.911  20.368   1.271  0.00  0.00     0.167 C 
HETATM    7  O   UNK N   1      21.698  21.102   1.852  0.00  0.00    -0.648 OA
BRANCH   6   8
HETATM    8  O   UNK N   1      20.640  20.601  -0.027  0.00  0.00    -0.775 OA
HETATM    9  H   UNK N   1      19.827  20.995  -0.273  0.00  0.00     0.167 HD
ENDBRANCH   6   8
ENDBRANCH   1   6
BRANCH   1  10
HETATM   10  N   UNK N   1      20.076  18.101   1.032  0.00  0.00    -0.415 N 
HETATM   11  H   UNK N   1      19.145  17.700   0.923  0.00  0.00     0.151 HD
HETATM   12  H   UNK N   1      20.853  17.747   0.475  0.00  0.00     0.151 HD
ENDBRANCH   1  10
TORSDOF 5
ENDMDL
MODEL 4
REMARK VINA RESULT:      -3.7     12.810     14.172
REMARK  5 active torsions:
REMARK  status: ('A' for Active; 'I' for Inactive)
REMARK    1  A    between atoms: C_4  and  C_2 
REMARK    2  A    between atoms: O_9  and  C_3 
REMARK    3  A    between atoms: C_5  and  C_4 
REMARK    4  A    between atoms: C_4  and  N_6 
REMARK    5  A    between atoms: O_8  and  C_5 
ROOT
HETATM    1  C   UNK N   1      33.473  17.165   8.516  0.00  0.00     0.198 C 
ENDROOT
BRANCH   1   2
HETATM    2  C   UNK N   1      32.032  17.627   8.615  0.00  0.00     0.032 C 
HETATM    3  C   UNK N   1      31.076  17.324   7.723  0.00  0.00     0.132 C 
BRANCH   3   4
HETATM    4  O   UNK N   1      31.339  16.573   6.632  0.00  0.00    -0.368 OA
HETATM    5  C   UNK N   1      31.273  17.115   5.372  0.00  0.00     0.208 C 
ENDBRANCH   3   4
ENDBRANCH   1   2
BRANCH   1   6
HETATM    6  C   UNK N   1      34.366  18.119   7.748  0.00  0.00     0.167 C 
HETATM    7  O   UNK N   1      34.452  18.043   6.530  0.00  0.00    -0.648 OA
BRANCH   6   8
HETATM    8  O   UNK N   1      35.035  19.095   8.390  0.00  0.00    -0.775 OA
HETATM    9  H   UNK N   1      35.295  19.867   7.929  0.00  0.00     0.167 HD
ENDBRANCH   6   8
ENDBRANCH   1   6
BRANCH   1  10
HETATM   10  N   UNK N   1      33.993  16.992   9.866  0.00  0.00    -0.415 N 
HETATM   11  H   UNK N   1      34.684  16.267  10.058  0.00  0.00     0.151 HD
HETATM   12  H   UNK N   1      33.666  17.597  10.619  0.00  0.00     0.151 HD
ENDBRANCH   1  10
TORSDOF 5
ENDMDL
MODEL 5
REMARK VINA RESULT:      -3.7     24.938     26.213
REMARK  5 active torsions:
REMARK  status: ('A' for Active; 'I' for Inactive)
REMARK    1  A    between atoms: C_4  and  C_2 
REMARK    2  A    between atoms: O_9  and  C_3 
REMARK    3  A    between atoms: C_5  and  C_4 
REMARK    4  A    between atoms: C_4  and  N_6 
REMARK    5  A    between atoms: O_8  and  C_5 
ROOT
HETATM    1  C   UNK N   1      22.855  12.353  10.948  0.00  0.00     0.198 C 
ENDROOT
BRANCH   1   2
HETATM    2  C   UNK N   1      21.458  12.237  11.526  0.00  0.00     0.032 C 
HETATM    3  C   UNK N   1      20.339  12.606  10.881  0.00  0.00     0.132 C 
BRANCH   3   4
HETATM    4  O   UNK N   1      20.380  13.134   9.639  0.00  0.00    -0.368 OA
HETATM    5  C   UNK N   1      20.254  14.488   9.446  0.00  0.00     0.208 C 
ENDBRANCH   3   4
ENDBRANCH   1   2
BRANCH   1   6
HETATM    6  C   UNK N   1      23.955  12.174  11.976  0.00  0.00     0.167 C 
HETATM    7  O   UNK N   1      23.678  11.949  13.146  0.00  0.00    -0.648 OA
BRANCH   6   8
HETATM    8  O   UNK N   1      25.249  12.209  11.607  0.00  0.00    -0.775 OA
HETATM    9  H   UNK N   1      25.528  12.793  10.931  0.00  0.00     0.167 HD
ENDBRANCH   6   8
ENDBRANCH   1   6
BRANCH   1  10
HETATM   10  N   UNK N   1      23.002  11.351   9.900  0.00  0.00    -0.415 N 
HETATM   11  H   UNK N   1      22.509  10.460   9.974  0.00  0.00     0.151 HD
HETATM   12  H   UNK N   1      23.596  11.540   9.094  0.00  0.00     0.151 HD
ENDBRANCH   1  10
TORSDOF 5
ENDMDL
MODEL 6
REMARK VINA RESULT:      -3.7     14.358     15.926
REMARK  5 active torsions:
REMARK  status: ('A' for Active; 'I' for Inactive)
REMARK    1  A    between atoms: C_4  and  C_2 
REMARK    2  A    between atoms: O_9  and  C_3 
REMARK    3  A    between atoms: C_5  and  C_4 
REMARK    4  A    between atoms: C_4  and  N_6 
REMARK    5  A    between atoms: O_8  and  C_5 
ROOT
HETATM    1  C   UNK N   1      34.733  15.141  11.447  0.00  0.00     0.198 C 
ENDROOT
BRANCH   1   2
HETATM    2  C   UNK N   1      35.324  13.748  11.350  0.00  0.00     0.032 C 
HETATM    3  C   UNK N   1      35.265  12.830  12.329  0.00  0.00     0.132 C 
BRANCH   3   4
HETATM    4  O   UNK N   1      34.667  13.095  13.511  0.00  0.00    -0.368 OA
HETATM    5  C   UNK N   1      35.402  13.183  14.667  0.00  0.00     0.208 C 
ENDBRANCH   3   4
ENDBRANCH   1   2
BRANCH   1   6
HETATM    6  C   UNK N   1      35.636  16.224  10.889  0.00  0.00     0.167 C 
HETATM    7  O   UNK N   1      35.165  17.286  10.505  0.00  0.00    -0.648 OA
BRANCH   6   8
HETATM    8  O   UNK N   1      36.971  16.053  10.857  0.00  0.00    -0.775 OA
HETATM    9  H   UNK N   1      37.333  15.247  10.547  0.00  0.00     0.167 HD
ENDBRANCH   6   8
ENDBRANCH   1   6
BRANCH   1  10
HETATM   10  N   UNK N   1      33.464  15.150  10.732  0.00  0.00    -0.415 N 
HETATM   11  H   UNK N   1      33.374  15.672   9.859  0.00  0.00     0.151 HD
HETATM   12  H   UNK N   1      32.666  14.636  11.103  0.00  0.00     0.151 HD
ENDBRANCH   1  10
TORSDOF 5
ENDMDL
MODEL 7
REMARK VINA RESULT:      -3.7     12.798     14.376
REMARK  5 active torsions:
REMARK  status: ('A' for Active; 'I' for Inactive)
REMARK    1  A    between atoms: C_4  and  C_2 
REMARK    2  A    between atoms: O_9  and  C_3 
REMARK    3  A    between atoms: C_5  and  C_4 
REMARK    4  A    between atoms: C_4  and  N_6 
REMARK    5  A    between atoms: O_8  and  C_5 
ROOT
HETATM    1  C   UNK N   1      34.528  16.908   8.869  0.00  0.00     0.198 C 
ENDROOT
BRANCH   1   2
HETATM    2  C   UNK N   1      33.162  16.250   8.821  0.00  0.00     0.032 C 
HETATM    3  C   UNK N   1      32.857  15.092   9.429  0.00  0.00     0.132 C 
BRANCH   3   4
HETATM    4  O   UNK N   1      33.776  14.403  10.139  0.00  0.00    -0.368 OA
HETATM    5  C   UNK N   1      34.289  13.221   9.665  0.00  0.00     0.208 C 
ENDBRANCH   3   4
ENDBRANCH   1   2
BRANCH   1   6
HETATM    6  C   UNK N   1      34.631  18.157   8.017  0.00  0.00     0.167 C 
HETATM    7  O   UNK N   1      35.083  19.192   8.487  0.00  0.00    -0.648 OA
BRANCH   6   8
HETATM    8  O   UNK N   1      34.276  18.131   6.719  0.00  0.00    -0.775 OA
HETATM    9  H   UNK N   1      34.378  17.345   6.220  0.00  0.00     0.167 HD
ENDBRANCH   6   8
ENDBRANCH   1   6
BRANCH   1  10
HETATM   10  N   UNK N   1      34.828  17.238  10.256  0.00  0.00    -0.415 N 
HETATM   11  H   UNK N   1      34.164  16.997  10.993  0.00  0.00     0.151 HD
HETATM   12  H   UNK N   1      35.700  17.711  10.490  0.00  0.00     0.151 HD
ENDBRANCH   1  10
TORSDOF 5
ENDMDL
MODEL 8
REMARK VINA RESULT:      -3.7     12.540     13.644
REMARK  5 active torsions:
REMARK  status: ('A' for Active; 'I' for Inactive)
REMARK    1  A    between atoms: C_4  and  C_2 
REMARK    2  A    between atoms: O_9  and  C_3 
REMARK    3  A    between atoms: C_5  and  C_4 
REMARK    4  A    between atoms: C_4  and  N_6 
REMARK    5  A    between atoms: O_8  and  C_5 
ROOT
HETATM    1  C   UNK N   1      34.230  17.226   9.180  0.00  0.00     0.198 C 
ENDROOT
BRANCH   1   2
HETATM    2  C   UNK N   1      34.963  15.907   9.026  0.00  0.00     0.032 C 
HETATM    3  C   UNK N   1      34.750  15.034   8.028  0.00  0.00     0.132 C 
BRANCH   3   4
HETATM    4  O   UNK N   1      33.831  15.270   7.067  0.00  0.00    -0.368 OA
HETATM    5  C   UNK N   1      33.993  14.766   5.800  0.00  0.00     0.208 C 
ENDBRANCH   3   4
ENDBRANCH   1   2
BRANCH   1   6
HETATM    6  C   UNK N   1      34.666  18.283   8.184  0.00  0.00     0.167 C 
HETATM    7  O   UNK N   1      35.320  19.248   8.552  0.00  0.00    -0.648 OA
BRANCH   6   8
HETATM    8  O   UNK N   1      34.382  18.146   6.875  0.00  0.00    -0.775 OA
HETATM    9  H   UNK N   1      34.899  17.578   6.340  0.00  0.00     0.167 HD
ENDBRANCH   6   8
ENDBRANCH   1   6
BRANCH   1  10
HETATM   10  N   UNK N   1      32.803  16.977   9.032  0.00  0.00    -0.415 N 
HETATM   11  H   UNK N   1      32.442  16.576   8.165  0.00  0.00     0.151 HD
HETATM   12  H   UNK N   1      32.164  17.202   9.794  0.00  0.00     0.151 HD
ENDBRANCH   1  10
TORSDOF 5
ENDMDL
MODEL 9
REMARK VINA RESULT:      -3.6     15.479     16.679
REMARK  5 active torsions:
REMARK  status: ('A' for Active; 'I' for Inactive)
REMARK    1  A    between atoms: C_4  and  C_2 
REMARK    2  A    between atoms: O_9  and  C_3 
REMARK    3  A    between atoms: C_5  and  C_4 
REMARK    4  A    between atoms: C_4  and  N_6 
REMARK    5  A    between atoms: O_8  and  C_5 
ROOT
HETATM    1  C   UNK N   1      29.738  18.501   8.730  0.00  0.00     0.198 C 
ENDROOT
BRANCH   1   2
HETATM    2  C   UNK N   1      30.295  17.264   8.053  0.00  0.00     0.032 C 
HETATM    3  C   UNK N   1      31.593  16.918   8.057  0.00  0.00     0.132 C 
BRANCH   3   4
HETATM    4  O   UNK N   1      32.525  17.677   8.672  0.00  0.00    -0.368 OA
HETATM    5  C   UNK N   1      33.563  18.229   7.963  0.00  0.00     0.208 C 
ENDBRANCH   3   4
ENDBRANCH   1   2
BRANCH   1   6
HETATM    6  C   UNK N   1      28.261  18.722   8.471  0.00  0.00     0.167 C 
HETATM    7  O   UNK N   1      27.889  19.305   7.462  0.00  0.00    -0.648 OA
BRANCH   6   8
HETATM    8  O   UNK N   1      27.337  18.235   9.320  0.00  0.00    -0.775 OA
HETATM    9  H   UNK N   1      26.638  17.701   8.998  0.00  0.00     0.167 HD
ENDBRANCH   6   8
ENDBRANCH   1   6
BRANCH   1  10
HETATM   10  N   UNK N   1      29.967  18.381  10.164  0.00  0.00    -0.415 N 
HETATM   11  H   UNK N   1      30.906  18.511  10.542  0.00  0.00     0.151 HD
HETATM   12  H   UNK N   1      29.190  18.168  10.788  0.00  0.00     0.151 HD
ENDBRANCH   1  10
TORSDOF 5
ENDMDL
