MODEL 1
REMARK VINA RESULT:      -2.4      0.000      0.000
REMARK  1 active torsions:
REMARK  status: ('A' for Active; 'I' for Inactive)
REMARK    1  A    between atoms: C_2  and  C_3 
ROOT
HETATM    1 Cl   UNK N   1      21.077  12.249  11.291  0.00  0.00    -0.129 Cl
HETATM    2  C   UNK N   1      22.595  11.762  10.503  0.00  0.00     0.129 C 
ENDROOT
BRANCH   2   3
HETATM    3  C   UNK N   1      23.745  11.978  11.459  0.00  0.00     0.129 C 
HETATM    4 Cl   UNK N   1      23.148  11.865  13.129  0.00  0.00    -0.129 Cl
ENDBRANCH   2   3
TORSDOF 1
ENDMDL
MODEL 2
REMARK VINA RESULT:      -2.3      1.191      2.721
REMARK  1 active torsions:
REMARK  status: ('A' for Active; 'I' for Inactive)
REMARK    1  A    between atoms: C_2  and  C_3 
ROOT
HETATM    1 Cl   UNK N   1      23.251  11.928  13.192  0.00  0.00    -0.129 Cl
HETATM    2  C   UNK N   1      23.170  12.033  11.419  0.00  0.00     0.129 C 
ENDROOT
BRANCH   2   3
HETATM    3  C   UNK N   1      21.733  12.239  10.997  0.00  0.00     0.129 C 
HETATM    4 Cl   UNK N   1      21.625  13.685   9.971  0.00  0.00    -0.129 Cl
ENDBRANCH   2   3
TORSDOF 1
ENDMDL
MODEL 3
REMARK VINA RESULT:      -2.1     21.790     22.263
REMARK  1 active torsions:
REMARK  status: ('A' for Active; 'I' for Inactive)
REMARK    1  A    between atoms: C_2  and  C_3 
ROOT
HETATM    1 Cl   UNK N   1      26.432  25.670  -3.729  0.00  0.00    -0.129 Cl
HETATM    2  C   UNK N   1      25.988  27.327  -3.262  0.00  0.00     0.129 C 
ENDROOT
BRANCH   2   3
HETATM    3  C   UNK N   1      25.662  28.124  -4.504  0.00  0.00     0.129 C 
HETATM    4 Cl   UNK N   1      24.653  27.139  -5.585  0.00  0.00    -0.129 Cl
ENDBRANCH   2   3
TORSDOF 1
ENDMDL
MODEL 4
REMARK VINA RESULT:      -2.1     21.693     22.070
REMARK  1 active torsions:
REMARK  status: ('A' for Active; 'I' for Inactive)
REMARK    1  A    between atoms: C_2  and  C_3 
ROOT
HETATM    1 Cl   UNK N   1      24.763  27.139  -5.498  0.00  0.00    -0.129 Cl
HETATM    2  C   UNK N   1      25.525  28.087  -4.201  0.00  0.00     0.129 C 
ENDROOT
BRANCH   2   3
HETATM    3  C   UNK N   1      26.215  27.149  -3.238  0.00  0.00     0.129 C 
HETATM    4 Cl   UNK N   1      26.270  25.520  -3.945  0.00  0.00    -0.129 Cl
ENDBRANCH   2   3
TORSDOF 1
ENDMDL
MODEL 5
REMARK VINA RESULT:      -2.1     13.695     14.486
REMARK  1 active torsions:
REMARK  status: ('A' for Active; 'I' for Inactive)
REMARK    1  A    between atoms: C_2  and  C_3 
ROOT
HETATM    1 Cl   UNK N   1      37.297  15.089  15.766  0.00  0.00    -0.129 Cl
HETATM    2  C   UNK N   1      36.834  13.463  15.216  0.00  0.00     0.129 C 
ENDROOT
BRANCH   2   3
HETATM    3  C   UNK N   1      35.399  13.194  15.606  0.00  0.00     0.129 C 
HETATM    4 Cl   UNK N   1      35.206  13.461  17.352  0.00  0.00    -0.129 Cl
ENDBRANCH   2   3
TORSDOF 1
ENDMDL
MODEL 6
REMARK VINA RESULT:      -2.0     23.093     23.538
REMARK  1 active torsions:
REMARK  status: ('A' for Active; 'I' for Inactive)
REMARK    1  A    between atoms: C_2  and  C_3 
ROOT
HETATM    1 Cl   UNK N   1      27.252  28.808  -5.867  0.00  0.00    -0.129 Cl
HETATM    2  C   UNK N   1      26.323  28.931  -4.356  0.00  0.00     0.129 C 
ENDROOT
BRANCH   2   3
HETATM    3  C   UNK N   1      25.574  27.639  -4.125  0.00  0.00     0.129 C 
HETATM    4 Cl   UNK N   1      24.674  27.212  -5.596  0.00  0.00    -0.129 Cl
ENDBRANCH   2   3
TORSDOF 1
ENDMDL
MODEL 7
REMARK VINA RESULT:      -2.0      2.241      2.867
REMARK  1 active torsions:
REMARK  status: ('A' for Active; 'I' for Inactive)
REMARK    1  A    between atoms: C_2  and  C_3 
ROOT
HETATM    1 Cl   UNK N   1      24.886  13.143   9.817  0.00  0.00    -0.129 Cl
HETATM    2  C   UNK N   1      24.508  12.055  11.171  0.00  0.00     0.129 C 
ENDROOT
BRANCH   2   3
HETATM    3  C   UNK N   1      23.025  12.113  11.458  0.00  0.00     0.129 C 
HETATM    4 Cl   UNK N   1      22.243  13.197  10.287  0.00  0.00    -0.129 Cl
ENDBRANCH   2   3
TORSDOF 1
ENDMDL
MODEL 8
REMARK VINA RESULT:      -2.0     12.277     13.058
REMARK  1 active torsions:
REMARK  status: ('A' for Active; 'I' for Inactive)
REMARK    1  A    between atoms: C_2  and  C_3 
ROOT
HETATM    1 Cl   UNK N   1      33.802  11.182  14.906  0.00  0.00    -0.129 Cl
HETATM    2  C   UNK N   1      34.664  12.555  15.634  0.00  0.00     0.129 C 
ENDROOT
BRANCH   2   3
HETATM    3  C   UNK N   1      35.183  12.153  16.996  0.00  0.00     0.129 C 
HETATM    4 Cl   UNK N   1      35.166  13.567  18.071  0.00  0.00    -0.129 Cl
ENDBRANCH   2   3
TORSDOF 1
ENDMDL
MODEL 9
REMARK VINA RESULT:      -1.9      9.653      9.826
REMARK  1 active torsions:
REMARK  status: ('A' for Active; 'I' for Inactive)
REMARK    1  A    between atoms: C_2  and  C_3 
ROOT
HETATM    1 Cl   UNK N   1      28.106  19.164   7.640  0.00  0.00    -0.129 Cl
HETATM    2  C   UNK N   1      28.305  18.130   9.073  0.00  0.00     0.129 C 
ENDROOT
BRANCH   2   3
HETATM    3  C   UNK N   1      29.561  18.536   9.810  0.00  0.00     0.129 C 
HETATM    4 Cl   UNK N   1      30.971  18.242   8.770  0.00  0.00    -0.129 Cl
ENDBRANCH   2   3
TORSDOF 1
ENDMDL
