MODEL 1
REMARK VINA RESULT:      -7.1      0.000      0.000
REMARK  6 active torsions:
REMARK  status: ('A' for Active; 'I' for Inactive)
REMARK    1  A    between atoms: C_2  and  N_4 
REMARK       I    between atoms: N_4  and  C_5 
REMARK    2  A    between atoms: N_4  and  C_15 
REMARK    3  A    between atoms: C_5  and  C_7 
REMARK    4  A    between atoms: C_16  and  C_26 
REMARK    5  A    between atoms: C_18  and  C_20 
REMARK    6  A    between atoms: C_26  and  O_27 
ROOT
HETATM    1  C   UNK N   1      33.571  15.996   9.037  0.00  0.00     0.063 A 
HETATM    2  C   UNK N   1      34.592  17.003   9.131  0.00  0.00     0.106 A 
HETATM    3  S   UNK N   1      35.563  16.566  10.410  0.00  0.00    -0.081 SA
HETATM    4  C   UNK N   1      34.815  15.180  10.891  0.00  0.00     0.018 A 
HETATM    5  C   UNK N   1      33.730  14.983  10.043  0.00  0.00     0.051 A 
ENDROOT
BRANCH   1   6
HETATM    6  N   UNK N   1      32.485  15.927   8.064  0.00  0.00    -0.308 N 
HETATM    7  C   UNK N   1      32.733  15.404   6.785  0.00  0.00     0.260 C 
HETATM    8  O   UNK N   1      33.850  14.977   6.538  0.00  0.00    -0.267 OA
BRANCH   6   9
HETATM    9  C   UNK N   1      31.225  16.566   8.427  0.00  0.00     0.085 C 
HETATM   10  C   UNK N   1      31.205  18.086   8.322  0.00  0.00     0.032 C 
HETATM   11  C   UNK N   1      30.672  16.049   9.748  0.00  0.00     0.032 C 
ENDBRANCH   6   9
BRANCH   7  12
HETATM   12  C   UNK N   1      31.720  15.265   5.659  0.00  0.00     0.054 A 
HETATM   13  C   UNK N   1      31.688  16.192   4.571  0.00  0.00     0.051 A 
HETATM   14 Cl   UNK N   1      32.697  17.636   4.495  0.00  0.00    -0.083 Cl
HETATM   15  C   UNK N   1      30.807  15.994   3.502  0.00  0.00     0.048 A 
HETATM   16  C   UNK N   1      29.956  14.893   3.475  0.00  0.00     0.035 A 
HETATM   17 Cl   UNK N   1      28.887  14.643   2.114  0.00  0.00    -0.084 Cl
HETATM   18  C   UNK N   1      29.965  13.990   4.530  0.00  0.00     0.025 A 
HETATM   19  C   UNK N   1      30.836  14.181   5.601  0.00  0.00     0.020 A 
ENDBRANCH   7  12
ENDBRANCH   1   6
BRANCH   2  20
HETATM   20  C   UNK N   1      34.855  18.270   8.402  0.00  0.00     0.185 C 
HETATM   21  O   UNK N   1      35.426  19.204   8.921  0.00  0.00    -0.646 OA
BRANCH  20  22
HETATM   22  O   UNK N   1      34.504  18.368   7.105  0.00  0.00    -0.772 OA
HETATM   23  H   UNK N   1      34.990  18.917   6.522  0.00  0.00     0.167 HD
ENDBRANCH  20  22
ENDBRANCH   2  20
BRANCH   4  24
HETATM   24  C   UNK N   1      35.207  14.312  12.015  0.00  0.00    -0.019 A 
HETATM   25  C   UNK N   1      34.773  12.979  12.069  0.00  0.00     0.013 A 
HETATM   26  C   UNK N   1      35.155  12.157  13.134  0.00  0.00     0.001 A 
HETATM   27  C   UNK N   1      35.970  12.664  14.151  0.00  0.00     0.000 A 
HETATM   28  C   UNK N   1      36.404  13.991  14.104  0.00  0.00     0.001 A 
HETATM   29  C   UNK N   1      36.026  14.812  13.038  0.00  0.00     0.013 A 
ENDBRANCH   4  24
TORSDOF 6
ENDMDL
MODEL 2
REMARK VINA RESULT:      -7.1      1.126      2.037
REMARK  6 active torsions:
REMARK  status: ('A' for Active; 'I' for Inactive)
REMARK    1  A    between atoms: C_2  and  N_4 
REMARK       I    between atoms: N_4  and  C_5 
REMARK    2  A    between atoms: N_4  and  C_15 
REMARK    3  A    between atoms: C_5  and  C_7 
REMARK    4  A    between atoms: C_16  and  C_26 
REMARK    5  A    between atoms: C_18  and  C_20 
REMARK    6  A    between atoms: C_26  and  O_27 
ROOT
HETATM    1  C   UNK N   1      34.097  15.676   8.517  0.00  0.00     0.063 A 
HETATM    2  C   UNK N   1      34.684  16.915   8.947  0.00  0.00     0.106 A 
HETATM    3  S   UNK N   1      35.320  16.631  10.458  0.00  0.00    -0.081 SA
HETATM    4  C   UNK N   1      34.927  15.043  10.652  0.00  0.00     0.018 A 
HETATM    5  C   UNK N   1      34.255  14.643   9.502  0.00  0.00     0.051 A 
ENDROOT
BRANCH   1   6
HETATM    6  N   UNK N   1      33.422  15.412   7.250  0.00  0.00    -0.308 N 
HETATM    7  C   UNK N   1      32.089  15.817   7.077  0.00  0.00     0.260 C 
HETATM    8  O   UNK N   1      31.543  16.423   7.986  0.00  0.00    -0.267 OA
BRANCH   6   9
HETATM    9  C   UNK N   1      34.130  14.585   6.279  0.00  0.00     0.085 C 
HETATM   10  C   UNK N   1      33.908  13.084   6.408  0.00  0.00     0.032 C 
HETATM   11  C   UNK N   1      35.600  14.965   6.156  0.00  0.00     0.032 C 
ENDBRANCH   6   9
BRANCH   7  12
HETATM   12  C   UNK N   1      31.244  15.617   5.828  0.00  0.00     0.054 A 
HETATM   13  C   UNK N   1      31.499  16.358   4.633  0.00  0.00     0.051 A 
HETATM   14 Cl   UNK N   1      32.693  17.651   4.527  0.00  0.00    -0.083 Cl
HETATM   15  C   UNK N   1      30.767  16.094   3.469  0.00  0.00     0.048 A 
HETATM   16  C   UNK N   1      29.790  15.104   3.453  0.00  0.00     0.035 A 
HETATM   17 Cl   UNK N   1      28.909  14.762   1.980  0.00  0.00    -0.084 Cl
HETATM   18  C   UNK N   1      29.520  14.382   4.609  0.00  0.00     0.025 A 
HETATM   19  C   UNK N   1      30.241  14.642   5.774  0.00  0.00     0.020 A 
ENDBRANCH   7  12
ENDBRANCH   1   6
BRANCH   2  20
HETATM   20  C   UNK N   1      34.748  18.279   8.363  0.00  0.00     0.185 C 
HETATM   21  O   UNK N   1      34.067  18.607   7.416  0.00  0.00    -0.646 OA
BRANCH  20  22
HETATM   22  O   UNK N   1      35.545  19.203   8.935  0.00  0.00    -0.772 OA
HETATM   23  H   UNK N   1      35.381  19.493   9.811  0.00  0.00     0.167 HD
ENDBRANCH  20  22
ENDBRANCH   2  20
BRANCH   4  24
HETATM   24  C   UNK N   1      35.217  14.201  11.826  0.00  0.00    -0.019 A 
HETATM   25  C   UNK N   1      34.767  12.874  11.877  0.00  0.00     0.013 A 
HETATM   26  C   UNK N   1      35.052  12.076  12.990  0.00  0.00     0.001 A 
HETATM   27  C   UNK N   1      35.786  12.602  14.057  0.00  0.00     0.000 A 
HETATM   28  C   UNK N   1      36.235  13.924  14.013  0.00  0.00     0.001 A 
HETATM   29  C   UNK N   1      35.954  14.721  12.901  0.00  0.00     0.013 A 
ENDBRANCH   4  24
TORSDOF 6
ENDMDL
MODEL 3
REMARK VINA RESULT:      -6.8      3.662      7.608
REMARK  6 active torsions:
REMARK  status: ('A' for Active; 'I' for Inactive)
REMARK    1  A    between atoms: C_2  and  N_4 
REMARK       I    between atoms: N_4  and  C_5 
REMARK    2  A    between atoms: N_4  and  C_15 
REMARK    3  A    between atoms: C_5  and  C_7 
REMARK    4  A    between atoms: C_16  and  C_26 
REMARK    5  A    between atoms: C_18  and  C_20 
REMARK    6  A    between atoms: C_26  and  O_27 
ROOT
HETATM    1  C   UNK N   1      33.434  15.763   8.592  0.00  0.00     0.063 A 
HETATM    2  C   UNK N   1      33.724  17.167   8.701  0.00  0.00     0.106 A 
HETATM    3  S   UNK N   1      32.376  17.968   8.145  0.00  0.00    -0.081 SA
HETATM    4  C   UNK N   1      31.409  16.691   7.760  0.00  0.00     0.018 A 
HETATM    5  C   UNK N   1      32.119  15.533   8.059  0.00  0.00     0.051 A 
ENDROOT
BRANCH   1   6
HETATM    6  N   UNK N   1      34.301  14.651   8.966  0.00  0.00    -0.308 N 
HETATM    7  C   UNK N   1      34.517  14.367  10.324  0.00  0.00     0.260 C 
HETATM    8  O   UNK N   1      33.932  15.040  11.158  0.00  0.00    -0.267 OA
BRANCH   6   9
HETATM    9  C   UNK N   1      35.033  13.988   7.893  0.00  0.00     0.085 C 
HETATM   10  C   UNK N   1      35.486  14.890   6.752  0.00  0.00     0.032 C 
HETATM   11  C   UNK N   1      34.340  12.720   7.415  0.00  0.00     0.032 C 
ENDBRANCH   6   9
BRANCH   7  12
HETATM   12  C   UNK N   1      35.389  13.252  10.880  0.00  0.00     0.054 A 
HETATM   13  C   UNK N   1      36.815  13.357  10.884  0.00  0.00     0.051 A 
HETATM   14 Cl   UNK N   1      37.693  14.688  10.133  0.00  0.00    -0.083 Cl
HETATM   15  C   UNK N   1      37.594  12.360  11.482  0.00  0.00     0.048 A 
HETATM   16  C   UNK N   1      36.996  11.258  12.088  0.00  0.00     0.035 A 
HETATM   17 Cl   UNK N   1      37.984  10.039  12.862  0.00  0.00    -0.084 Cl
HETATM   18  C   UNK N   1      35.613  11.134  12.082  0.00  0.00     0.025 A 
HETATM   19  C   UNK N   1      34.830  12.120  11.485  0.00  0.00     0.020 A 
ENDBRANCH   7  12
ENDBRANCH   1   6
BRANCH   2  20
HETATM   20  C   UNK N   1      34.923  17.939   9.117  0.00  0.00     0.185 C 
HETATM   21  O   UNK N   1      35.267  18.950   8.545  0.00  0.00    -0.646 OA
BRANCH  20  22
HETATM   22  O   UNK N   1      35.621  17.539  10.198  0.00  0.00    -0.772 OA
HETATM   23  H   UNK N   1      36.549  17.427  10.149  0.00  0.00     0.167 HD
ENDBRANCH  20  22
ENDBRANCH   2  20
BRANCH   4  24
HETATM   24  C   UNK N   1      30.051  16.754   7.192  0.00  0.00    -0.019 A 
HETATM   25  C   UNK N   1      29.720  15.999   6.057  0.00  0.00     0.013 A 
HETATM   26  C   UNK N   1      28.427  16.056   5.528  0.00  0.00     0.001 A 
HETATM   27  C   UNK N   1      27.460  16.868   6.127  0.00  0.00     0.000 A 
HETATM   28  C   UNK N   1      27.785  17.625   7.256  0.00  0.00     0.001 A 
HETATM   29  C   UNK N   1      29.075  17.566   7.789  0.00  0.00     0.013 A 
ENDBRANCH   4  24
TORSDOF 6
ENDMDL
MODEL 4
REMARK VINA RESULT:      -6.8      2.477      3.150
REMARK  6 active torsions:
REMARK  status: ('A' for Active; 'I' for Inactive)
REMARK    1  A    between atoms: C_2  and  N_4 
REMARK       I    between atoms: N_4  and  C_5 
REMARK    2  A    between atoms: N_4  and  C_15 
REMARK    3  A    between atoms: C_5  and  C_7 
REMARK    4  A    between atoms: C_16  and  C_26 
REMARK    5  A    between atoms: C_18  and  C_20 
REMARK    6  A    between atoms: C_26  and  O_27 
ROOT
HETATM    1  C   UNK N   1      34.001  15.451   8.275  0.00  0.00     0.063 A 
HETATM    2  C   UNK N   1      35.044  14.740   7.587  0.00  0.00     0.106 A 
HETATM    3  S   UNK N   1      35.906  13.928   8.757  0.00  0.00    -0.081 SA
HETATM    4  C   UNK N   1      35.078  14.384  10.106  0.00  0.00     0.018 A 
HETATM    5  C   UNK N   1      34.050  15.224   9.692  0.00  0.00     0.051 A 
ENDROOT
BRANCH   1   6
HETATM    6  N   UNK N   1      32.973  16.300   7.682  0.00  0.00    -0.308 N 
HETATM    7  C   UNK N   1      31.697  15.771   7.430  0.00  0.00     0.260 C 
HETATM    8  O   UNK N   1      31.471  14.617   7.758  0.00  0.00    -0.267 OA
BRANCH   6   9
HETATM    9  C   UNK N   1      33.384  17.624   7.229  0.00  0.00     0.085 C 
HETATM   10  C   UNK N   1      33.730  17.734   5.750  0.00  0.00     0.032 C 
HETATM   11  C   UNK N   1      34.435  18.248   8.138  0.00  0.00     0.032 C 
ENDBRANCH   6   9
BRANCH   7  12
HETATM   12  C   UNK N   1      30.521  16.517   6.817  0.00  0.00     0.054 A 
HETATM   13  C   UNK N   1      29.661  17.332   7.616  0.00  0.00     0.051 A 
HETATM   14 Cl   UNK N   1      29.781  17.441   9.371  0.00  0.00    -0.083 Cl
HETATM   15  C   UNK N   1      28.640  18.078   7.017  0.00  0.00     0.048 A 
HETATM   16  C   UNK N   1      28.450  18.047   5.639  0.00  0.00     0.035 A 
HETATM   17 Cl   UNK N   1      27.192  19.014   4.904  0.00  0.00    -0.084 Cl
HETATM   18  C   UNK N   1      29.269  17.251   4.849  0.00  0.00     0.025 A 
HETATM   19  C   UNK N   1      30.285  16.500   5.437  0.00  0.00     0.020 A 
ENDBRANCH   7  12
ENDBRANCH   1   6
BRANCH   2  20
HETATM   20  C   UNK N   1      35.480  14.673   6.169  0.00  0.00     0.185 C 
HETATM   21  O   UNK N   1      36.587  15.020   5.819  0.00  0.00    -0.646 OA
BRANCH  20  22
HETATM   22  O   UNK N   1      34.642  14.158   5.247  0.00  0.00    -0.772 OA
HETATM   23  H   UNK N   1      34.549  13.230   5.159  0.00  0.00     0.167 HD
ENDBRANCH  20  22
ENDBRANCH   2  20
BRANCH   4  24
HETATM   24  C   UNK N   1      35.373  13.993  11.495  0.00  0.00    -0.019 A 
HETATM   25  C   UNK N   1      35.057  12.706  11.954  0.00  0.00     0.013 A 
HETATM   26  C   UNK N   1      35.347  12.336  13.271  0.00  0.00     0.001 A 
HETATM   27  C   UNK N   1      35.953  13.252  14.136  0.00  0.00     0.000 A 
HETATM   28  C   UNK N   1      36.269  14.536  13.686  0.00  0.00     0.001 A 
HETATM   29  C   UNK N   1      35.983  14.905  12.369  0.00  0.00     0.013 A 
ENDBRANCH   4  24
TORSDOF 6
ENDMDL
MODEL 5
REMARK VINA RESULT:      -6.7      8.989     11.436
REMARK  6 active torsions:
REMARK  status: ('A' for Active; 'I' for Inactive)
REMARK    1  A    between atoms: C_2  and  N_4 
REMARK       I    between atoms: N_4  and  C_5 
REMARK    2  A    between atoms: N_4  and  C_15 
REMARK    3  A    between atoms: C_5  and  C_7 
REMARK    4  A    between atoms: C_16  and  C_26 
REMARK    5  A    between atoms: C_18  and  C_20 
REMARK    6  A    between atoms: C_26  and  O_27 
ROOT
HETATM    1  C   UNK N   1      23.552  15.265   6.210  0.00  0.00     0.063 A 
HETATM    2  C   UNK N   1      24.894  14.900   6.571  0.00  0.00     0.106 A 
HETATM    3  S   UNK N   1      24.776  14.017   7.977  0.00  0.00    -0.081 SA
HETATM    4  C   UNK N   1      23.145  14.035   8.203  0.00  0.00     0.018 A 
HETATM    5  C   UNK N   1      22.592  14.759   7.151  0.00  0.00     0.051 A 
ENDROOT
BRANCH   1   6
HETATM    6  N   UNK N   1      23.130  16.035   5.044  0.00  0.00    -0.308 N 
HETATM    7  C   UNK N   1      22.550  17.301   5.223  0.00  0.00     0.260 C 
HETATM    8  O   UNK N   1      22.456  17.742   6.357  0.00  0.00    -0.267 OA
BRANCH   6   9
HETATM    9  C   UNK N   1      23.187  15.366   3.749  0.00  0.00     0.085 C 
HETATM   10  C   UNK N   1      22.809  13.890   3.754  0.00  0.00     0.032 C 
HETATM   11  C   UNK N   1      24.486  15.650   3.007  0.00  0.00     0.032 C 
ENDBRANCH   6   9
BRANCH   7  12
HETATM   12  C   UNK N   1      22.056  18.226   4.121  0.00  0.00     0.054 A 
HETATM   13  C   UNK N   1      20.751  18.078   3.557  0.00  0.00     0.051 A 
HETATM   14 Cl   UNK N   1      19.662  16.753   3.964  0.00  0.00    -0.083 Cl
HETATM   15  C   UNK N   1      20.285  18.994   2.608  0.00  0.00     0.048 A 
HETATM   16  C   UNK N   1      21.076  20.066   2.206  0.00  0.00     0.035 A 
HETATM   17 Cl   UNK N   1      20.463  21.223   1.045  0.00  0.00    -0.084 Cl
HETATM   18  C   UNK N   1      22.351  20.219   2.735  0.00  0.00     0.025 A 
HETATM   19  C   UNK N   1      22.826  19.308   3.676  0.00  0.00     0.020 A 
ENDBRANCH   7  12
ENDBRANCH   1   6
BRANCH   2  20
HETATM   20  C   UNK N   1      26.231  15.205   6.000  0.00  0.00     0.185 C 
HETATM   21  O   UNK N   1      26.986  14.333   5.628  0.00  0.00    -0.646 OA
BRANCH  20  22
HETATM   22  O   UNK N   1      26.598  16.491   5.835  0.00  0.00    -0.772 OA
HETATM   23  H   UNK N   1      27.486  16.708   5.629  0.00  0.00     0.167 HD
ENDBRANCH  20  22
ENDBRANCH   2  20
BRANCH   4  24
HETATM   24  C   UNK N   1      22.403  13.417   9.315  0.00  0.00    -0.019 A 
HETATM   25  C   UNK N   1      21.029  13.651   9.471  0.00  0.00     0.013 A 
HETATM   26  C   UNK N   1      20.327  13.054  10.523  0.00  0.00     0.001 A 
HETATM   27  C   UNK N   1      20.996  12.223  11.426  0.00  0.00     0.000 A 
HETATM   28  C   UNK N   1      22.365  11.987  11.279  0.00  0.00     0.001 A 
HETATM   29  C   UNK N   1      23.067  12.580  10.225  0.00  0.00     0.013 A 
ENDBRANCH   4  24
TORSDOF 6
ENDMDL
MODEL 6
REMARK VINA RESULT:      -6.7     10.616     12.475
REMARK  6 active torsions:
REMARK  status: ('A' for Active; 'I' for Inactive)
REMARK    1  A    between atoms: C_2  and  N_4 
REMARK       I    between atoms: N_4  and  C_5 
REMARK    2  A    between atoms: N_4  and  C_15 
REMARK    3  A    between atoms: C_5  and  C_7 
REMARK    4  A    between atoms: C_16  and  C_26 
REMARK    5  A    between atoms: C_18  and  C_20 
REMARK    6  A    between atoms: C_26  and  O_27 
ROOT
HETATM    1  C   UNK N   1      21.914  13.934   5.815  0.00  0.00     0.063 A 
HETATM    2  C   UNK N   1      21.362  12.653   5.469  0.00  0.00     0.106 A 
HETATM    3  S   UNK N   1      21.556  11.683   6.807  0.00  0.00    -0.081 SA
HETATM    4  C   UNK N   1      22.293  12.738   7.835  0.00  0.00     0.018 A 
HETATM    5  C   UNK N   1      22.428  13.945   7.157  0.00  0.00     0.051 A 
ENDROOT
BRANCH   1   6
HETATM    6  N   UNK N   1      21.971  15.126   4.976  0.00  0.00    -0.308 N 
HETATM    7  C   UNK N   1      20.789  15.825   4.683  0.00  0.00     0.260 C 
HETATM    8  O   UNK N   1      19.745  15.434   5.180  0.00  0.00    -0.267 OA
BRANCH   6   9
HETATM    9  C   UNK N   1      23.250  15.437   4.347  0.00  0.00     0.085 C 
HETATM   10  C   UNK N   1      24.022  14.242   3.803  0.00  0.00     0.032 C 
HETATM   11  C   UNK N   1      24.105  16.365   5.199  0.00  0.00     0.032 C 
ENDBRANCH   6   9
BRANCH   7  12
HETATM   12  C   UNK N   1      20.674  17.077   3.827  0.00  0.00     0.054 A 
HETATM   13  C   UNK N   1      20.984  18.368   4.355  0.00  0.00     0.051 A 
HETATM   14 Cl   UNK N   1      21.381  18.656   6.048  0.00  0.00    -0.083 Cl
HETATM   15  C   UNK N   1      20.957  19.495   3.524  0.00  0.00     0.048 A 
HETATM   16  C   UNK N   1      20.638  19.376   2.175  0.00  0.00     0.035 A 
HETATM   17 Cl   UNK N   1      20.644  20.789   1.144  0.00  0.00    -0.084 Cl
HETATM   18  C   UNK N   1      20.322  18.130   1.648  0.00  0.00     0.025 A 
HETATM   19  C   UNK N   1      20.342  17.004   2.468  0.00  0.00     0.020 A 
ENDBRANCH   7  12
ENDBRANCH   1   6
BRANCH   2  20
HETATM   20  C   UNK N   1      20.775  12.089   4.227  0.00  0.00     0.185 C 
HETATM   21  O   UNK N   1      21.241  11.114   3.679  0.00  0.00    -0.646 OA
BRANCH  20  22
HETATM   22  O   UNK N   1      19.654  12.640   3.720  0.00  0.00    -0.772 OA
HETATM   23  H   UNK N   1      19.015  12.105   3.292  0.00  0.00     0.167 HD
ENDBRANCH  20  22
ENDBRANCH   2  20
BRANCH   4  24
HETATM   24  C   UNK N   1      22.741  12.461   9.210  0.00  0.00    -0.019 A 
HETATM   25  C   UNK N   1      24.108  12.349   9.504  0.00  0.00     0.013 A 
HETATM   26  C   UNK N   1      24.528  12.095  10.813  0.00  0.00     0.001 A 
HETATM   27  C   UNK N   1      23.585  11.948  11.834  0.00  0.00     0.000 A 
HETATM   28  C   UNK N   1      22.222  12.056  11.549  0.00  0.00     0.001 A 
HETATM   29  C   UNK N   1      21.801  12.314  10.241  0.00  0.00     0.013 A 
ENDBRANCH   4  24
TORSDOF 6
ENDMDL
MODEL 7
REMARK VINA RESULT:      -6.6     14.792     17.859
REMARK  6 active torsions:
REMARK  status: ('A' for Active; 'I' for Inactive)
REMARK    1  A    between atoms: C_2  and  N_4 
REMARK       I    between atoms: N_4  and  C_5 
REMARK    2  A    between atoms: N_4  and  C_15 
REMARK    3  A    between atoms: C_5  and  C_7 
REMARK    4  A    between atoms: C_16  and  C_26 
REMARK    5  A    between atoms: C_18  and  C_20 
REMARK    6  A    between atoms: C_26  and  O_27 
ROOT
HETATM    1  C   UNK N   1      29.250  23.324  -5.075  0.00  0.00     0.063 A 
HETATM    2  C   UNK N   1      30.258  22.710  -4.254  0.00  0.00     0.106 A 
HETATM    3  S   UNK N   1      30.787  21.370  -5.088  0.00  0.00    -0.081 SA
HETATM    4  C   UNK N   1      29.850  21.472  -6.439  0.00  0.00     0.018 A 
HETATM    5  C   UNK N   1      29.048  22.600  -6.299  0.00  0.00     0.051 A 
ENDROOT
BRANCH   1   6
HETATM    6  N   UNK N   1      28.493  24.537  -4.783  0.00  0.00    -0.308 N 
HETATM    7  C   UNK N   1      29.082  25.792  -5.005  0.00  0.00     0.260 C 
HETATM    8  O   UNK N   1      30.206  25.830  -5.481  0.00  0.00    -0.267 OA
BRANCH   6   9
HETATM    9  C   UNK N   1      27.207  24.374  -4.114  0.00  0.00     0.085 C 
HETATM   10  C   UNK N   1      27.239  23.585  -2.811  0.00  0.00     0.032 C 
HETATM   11  C   UNK N   1      26.112  23.913  -5.067  0.00  0.00     0.032 C 
ENDBRANCH   6   9
BRANCH   7  12
HETATM   12  C   UNK N   1      28.436  27.146  -4.751  0.00  0.00     0.054 A 
HETATM   13  C   UNK N   1      27.441  27.670  -5.633  0.00  0.00     0.051 A 
HETATM   14 Cl   UNK N   1      26.975  26.892  -7.145  0.00  0.00    -0.083 Cl
HETATM   15  C   UNK N   1      26.796  28.875  -5.332  0.00  0.00     0.048 A 
HETATM   16  C   UNK N   1      27.105  29.576  -4.170  0.00  0.00     0.035 A 
HETATM   17 Cl   UNK N   1      26.263  31.062  -3.792  0.00  0.00    -0.084 Cl
HETATM   18  C   UNK N   1      28.078  29.087  -3.308  0.00  0.00     0.025 A 
HETATM   19  C   UNK N   1      28.729  27.891  -3.602  0.00  0.00     0.020 A 
ENDBRANCH   7  12
ENDBRANCH   1   6
BRANCH   2  20
HETATM   20  C   UNK N   1      30.798  22.999  -2.901  0.00  0.00     0.185 C 
HETATM   21  O   UNK N   1      30.542  24.026  -2.312  0.00  0.00    -0.646 OA
BRANCH  20  22
HETATM   22  O   UNK N   1      31.549  22.068  -2.280  0.00  0.00    -0.772 OA
HETATM   23  H   UNK N   1      31.223  21.625  -1.522  0.00  0.00     0.167 HD
ENDBRANCH  20  22
ENDBRANCH   2  20
BRANCH   4  24
HETATM   24  C   UNK N   1      29.844  20.540  -7.579  0.00  0.00    -0.019 A 
HETATM   25  C   UNK N   1      30.369  19.246  -7.444  0.00  0.00     0.013 A 
HETATM   26  C   UNK N   1      30.353  18.363  -8.527  0.00  0.00     0.001 A 
HETATM   27  C   UNK N   1      29.815  18.768  -9.752  0.00  0.00     0.000 A 
HETATM   28  C   UNK N   1      29.292  20.056  -9.895  0.00  0.00     0.001 A 
HETATM   29  C   UNK N   1      29.304  20.939  -8.812  0.00  0.00     0.013 A 
ENDBRANCH   4  24
TORSDOF 6
ENDMDL
MODEL 8
REMARK VINA RESULT:      -6.6      5.319      9.012
REMARK  6 active torsions:
REMARK  status: ('A' for Active; 'I' for Inactive)
REMARK    1  A    between atoms: C_2  and  N_4 
REMARK       I    between atoms: N_4  and  C_5 
REMARK    2  A    between atoms: N_4  and  C_15 
REMARK    3  A    between atoms: C_5  and  C_7 
REMARK    4  A    between atoms: C_16  and  C_26 
REMARK    5  A    between atoms: C_18  and  C_20 
REMARK    6  A    between atoms: C_26  and  O_27 
ROOT
HETATM    1  C   UNK N   1      27.493  16.426   5.445  0.00  0.00     0.063 A 
HETATM    2  C   UNK N   1      27.236  15.954   4.112  0.00  0.00     0.106 A 
HETATM    3  S   UNK N   1      25.702  15.308   4.132  0.00  0.00    -0.081 SA
HETATM    4  C   UNK N   1      25.293  15.565   5.707  0.00  0.00     0.018 A 
HETATM    5  C   UNK N   1      26.375  16.192   6.316  0.00  0.00     0.051 A 
ENDROOT
BRANCH   1   6
HETATM    6  N   UNK N   1      28.702  17.084   5.930  0.00  0.00    -0.308 N 
HETATM    7  C   UNK N   1      29.828  16.312   6.259  0.00  0.00     0.260 C 
HETATM    8  O   UNK N   1      29.774  15.104   6.085  0.00  0.00    -0.267 OA
BRANCH   6   9
HETATM    9  C   UNK N   1      28.616  18.514   6.204  0.00  0.00     0.085 C 
HETATM   10  C   UNK N   1      28.108  18.888   7.590  0.00  0.00     0.032 C 
HETATM   11  C   UNK N   1      27.922  19.278   5.085  0.00  0.00     0.032 C 
ENDBRANCH   6   9
BRANCH   7  12
HETATM   12  C   UNK N   1      31.157  16.837   6.778  0.00  0.00     0.054 A 
HETATM   13  C   UNK N   1      32.226  17.161   5.887  0.00  0.00     0.051 A 
HETATM   14 Cl   UNK N   1      32.171  16.857   4.152  0.00  0.00    -0.083 Cl
HETATM   15  C   UNK N   1      33.408  17.727   6.379  0.00  0.00     0.048 A 
HETATM   16  C   UNK N   1      33.558  17.990   7.738  0.00  0.00     0.035 A 
HETATM   17 Cl   UNK N   1      35.028  18.730   8.331  0.00  0.00    -0.084 Cl
HETATM   18  C   UNK N   1      32.534  17.671   8.619  0.00  0.00     0.025 A 
HETATM   19  C   UNK N   1      31.356  17.103   8.139  0.00  0.00     0.020 A 
ENDBRANCH   7  12
ENDBRANCH   1   6
BRANCH   2  20
HETATM   20  C   UNK N   1      28.049  15.888   2.870  0.00  0.00     0.185 C 
HETATM   21  O   UNK N   1      27.766  15.147   1.954  0.00  0.00    -0.646 OA
BRANCH  20  22
HETATM   22  O   UNK N   1      29.101  16.718   2.728  0.00  0.00    -0.772 OA
HETATM   23  H   UNK N   1      29.795  16.505   2.136  0.00  0.00     0.167 HD
ENDBRANCH  20  22
ENDBRANCH   2  20
BRANCH   4  24
HETATM   24  C   UNK N   1      24.026  15.192   6.360  0.00  0.00    -0.019 A 
HETATM   25  C   UNK N   1      22.885  15.992   6.207  0.00  0.00     0.013 A 
HETATM   26  C   UNK N   1      21.683  15.628   6.822  0.00  0.00     0.001 A 
HETATM   27  C   UNK N   1      21.617  14.465   7.595  0.00  0.00     0.000 A 
HETATM   28  C   UNK N   1      22.751  13.665   7.753  0.00  0.00     0.001 A 
HETATM   29  C   UNK N   1      23.952  14.025   7.136  0.00  0.00     0.013 A 
ENDBRANCH   4  24
TORSDOF 6
ENDMDL
MODEL 9
REMARK VINA RESULT:      -6.5      4.016      8.700
REMARK  6 active torsions:
REMARK  status: ('A' for Active; 'I' for Inactive)
REMARK    1  A    between atoms: C_2  and  N_4 
REMARK       I    between atoms: N_4  and  C_5 
REMARK    2  A    between atoms: N_4  and  C_15 
REMARK    3  A    between atoms: C_5  and  C_7 
REMARK    4  A    between atoms: C_16  and  C_26 
REMARK    5  A    between atoms: C_18  and  C_20 
REMARK    6  A    between atoms: C_26  and  O_27 
ROOT
HETATM    1  C   UNK N   1      30.610  16.412   5.593  0.00  0.00     0.063 A 
HETATM    2  C   UNK N   1      30.004  15.493   4.669  0.00  0.00     0.106 A 
HETATM    3  S   UNK N   1      28.653  16.257   4.068  0.00  0.00    -0.081 SA
HETATM    4  C   UNK N   1      28.741  17.692   4.872  0.00  0.00     0.018 A 
HETATM    5  C   UNK N   1      29.873  17.642   5.679  0.00  0.00     0.051 A 
ENDROOT
BRANCH   1   6
HETATM    6  N   UNK N   1      31.828  16.208   6.370  0.00  0.00    -0.308 N 
HETATM    7  C   UNK N   1      31.760  16.185   7.772  0.00  0.00     0.260 C 
HETATM    8  O   UNK N   1      30.666  16.295   8.303  0.00  0.00    -0.267 OA
BRANCH   6   9
HETATM    9  C   UNK N   1      33.090  16.200   5.639  0.00  0.00     0.085 C 
HETATM   10  C   UNK N   1      33.147  17.105   4.416  0.00  0.00     0.032 C 
HETATM   11  C   UNK N   1      33.593  14.789   5.364  0.00  0.00     0.032 C 
ENDBRANCH   6   9
BRANCH   7  12
HETATM   12  C   UNK N   1      32.929  15.987   8.725  0.00  0.00     0.054 A 
HETATM   13  C   UNK N   1      33.885  17.025   8.953  0.00  0.00     0.051 A 
HETATM   14 Cl   UNK N   1      33.893  18.550   8.068  0.00  0.00    -0.083 Cl
HETATM   15  C   UNK N   1      34.900  16.853   9.901  0.00  0.00     0.048 A 
HETATM   16  C   UNK N   1      34.991  15.678  10.640  0.00  0.00     0.035 A 
HETATM   17 Cl   UNK N   1      36.245  15.494  11.846  0.00  0.00    -0.084 Cl
HETATM   18  C   UNK N   1      34.078  14.654  10.423  0.00  0.00     0.025 A 
HETATM   19  C   UNK N   1      33.067  14.814   9.478  0.00  0.00     0.020 A 
ENDBRANCH   7  12
ENDBRANCH   1   6
BRANCH   2  20
HETATM   20  C   UNK N   1      30.307  14.098   4.259  0.00  0.00     0.185 C 
HETATM   21  O   UNK N   1      30.513  13.797   3.104  0.00  0.00    -0.646 OA
BRANCH  20  22
HETATM   22  O   UNK N   1      30.415  13.143   5.204  0.00  0.00    -0.772 OA
HETATM   23  H   UNK N   1      30.536  12.247   4.961  0.00  0.00     0.167 HD
ENDBRANCH  20  22
ENDBRANCH   2  20
BRANCH   4  24
HETATM   24  C   UNK N   1      27.796  18.818   4.772  0.00  0.00    -0.019 A 
HETATM   25  C   UNK N   1      27.822  19.854   5.716  0.00  0.00     0.013 A 
HETATM   26  C   UNK N   1      26.928  20.925   5.611  0.00  0.00     0.001 A 
HETATM   27  C   UNK N   1      26.003  20.963   4.565  0.00  0.00     0.000 A 
HETATM   28  C   UNK N   1      25.970  19.932   3.622  0.00  0.00     0.001 A 
HETATM   29  C   UNK N   1      26.865  18.864   3.723  0.00  0.00     0.013 A 
ENDBRANCH   4  24
TORSDOF 6
ENDMDL
