MODEL 1
REMARK VINA RESULT:      -5.6      0.000      0.000
REMARK  0 active torsions:
REMARK  status: ('A' for Active; 'I' for Inactive)
ROOT
HETATM    1  C   UNK N   1      35.322   8.875  16.478  0.00  0.00     0.049 C 
HETATM    2  C   UNK N   1      35.128  10.354  16.500  0.00  0.00    -0.055 A 
HETATM    3  C   UNK N   1      34.771  11.000  15.314  0.00  0.00     0.007 A 
HETATM    4  C   UNK N   1      34.580  12.381  15.293  0.00  0.00     0.002 A 
HETATM    5  C   UNK N   1      34.746  13.124  16.458  0.00  0.00     0.017 A 
HETATM    6  C   UNK N   1      35.105  12.490  17.656  0.00  0.00     0.038 A 
HETATM    7  C   UNK N   1      35.298  11.101  17.685  0.00  0.00    -0.035 A 
HETATM    8  C   UNK N   1      35.684  10.404  18.961  0.00  0.00     0.060 A 
HETATM    9  C   UNK N   1      35.852  11.278  20.214  0.00  0.00     0.127 A 
HETATM   10  N   UNK N   1      35.622  12.699  20.043  0.00  0.00    -0.357 N 
HETATM   11  C   UNK N   1      35.276  13.289  18.876  0.00  0.00     0.252 A 
HETATM   12  O   UNK N   1      35.106  14.497  18.842  0.00  0.00    -0.268 OA
HETATM   13  H   UNK N   1      35.725  13.278  20.834  0.00  0.00     0.162 HD
ENDROOT
TORSDOF 0
ENDMDL
MODEL 2
REMARK VINA RESULT:      -5.4      2.272      3.597
REMARK  0 active torsions:
REMARK  status: ('A' for Active; 'I' for Inactive)
ROOT
HETATM    1  C   UNK N   1      35.503  10.077  19.615  0.00  0.00     0.049 C 
HETATM    2  C   UNK N   1      35.332  11.287  18.761  0.00  0.00    -0.055 A 
HETATM    3  C   UNK N   1      35.348  12.545  19.370  0.00  0.00     0.007 A 
HETATM    4  C   UNK N   1      35.192  13.701  18.607  0.00  0.00     0.002 A 
HETATM    5  C   UNK N   1      35.019  13.605  17.229  0.00  0.00     0.017 A 
HETATM    6  C   UNK N   1      35.001  12.351  16.602  0.00  0.00     0.038 A 
HETATM    7  C   UNK N   1      35.158  11.184  17.364  0.00  0.00    -0.035 A 
HETATM    8  C   UNK N   1      35.141   9.830  16.710  0.00  0.00     0.060 A 
HETATM    9  C   UNK N   1      34.946   9.790  15.187  0.00  0.00     0.127 A 
HETATM   10  N   UNK N   1      34.797  11.071  14.523  0.00  0.00    -0.357 N 
HETATM   11  C   UNK N   1      34.818  12.270  15.149  0.00  0.00     0.252 A 
HETATM   12  O   UNK N   1      34.682  13.290  14.493  0.00  0.00    -0.268 OA
HETATM   13  H   UNK N   1      34.671  11.068  13.545  0.00  0.00     0.162 HD
ENDROOT
TORSDOF 0
ENDMDL
MODEL 3
REMARK VINA RESULT:      -5.4      2.845      4.396
REMARK  0 active torsions:
REMARK  status: ('A' for Active; 'I' for Inactive)
ROOT
HETATM    1  C   UNK N   1      33.773  10.443  13.407  0.00  0.00     0.049 C 
HETATM    2  C   UNK N   1      34.535  11.143  14.481  0.00  0.00    -0.055 A 
HETATM    3  C   UNK N   1      34.529  10.600  15.769  0.00  0.00     0.007 A 
HETATM    4  C   UNK N   1      35.229  11.223  16.801  0.00  0.00     0.002 A 
HETATM    5  C   UNK N   1      35.939  12.394  16.551  0.00  0.00     0.017 A 
HETATM    6  C   UNK N   1      35.954  12.952  15.265  0.00  0.00     0.038 A 
HETATM    7  C   UNK N   1      35.252  12.330  14.222  0.00  0.00    -0.035 A 
HETATM    8  C   UNK N   1      35.257  12.913  12.835  0.00  0.00     0.060 A 
HETATM    9  C   UNK N   1      36.058  14.207  12.623  0.00  0.00     0.127 A 
HETATM   10  N   UNK N   1      36.737  14.743  13.787  0.00  0.00    -0.357 N 
HETATM   11  C   UNK N   1      36.707  14.187  15.019  0.00  0.00     0.252 A 
HETATM   12  O   UNK N   1      37.315  14.721  15.933  0.00  0.00    -0.268 OA
HETATM   13  H   UNK N   1      37.256  15.573  13.672  0.00  0.00     0.162 HD
ENDROOT
TORSDOF 0
ENDMDL
MODEL 4
REMARK VINA RESULT:      -5.2     11.676     13.437
REMARK  0 active torsions:
REMARK  status: ('A' for Active; 'I' for Inactive)
ROOT
HETATM    1  C   UNK N   1      29.202  16.416   4.908  0.00  0.00     0.049 C 
HETATM    2  C   UNK N   1      30.646  16.784   4.866  0.00  0.00    -0.055 A 
HETATM    3  C   UNK N   1      31.301  16.785   3.631  0.00  0.00     0.007 A 
HETATM    4  C   UNK N   1      32.651  17.123   3.548  0.00  0.00     0.002 A 
HETATM    5  C   UNK N   1      33.354  17.462   4.701  0.00  0.00     0.017 A 
HETATM    6  C   UNK N   1      32.711  17.466   5.947  0.00  0.00     0.038 A 
HETATM    7  C   UNK N   1      31.353  17.127   6.038  0.00  0.00    -0.035 A 
HETATM    8  C   UNK N   1      30.647  17.125   7.366  0.00  0.00     0.060 A 
HETATM    9  C   UNK N   1      31.477  17.508   8.601  0.00  0.00     0.127 A 
HETATM   10  N   UNK N   1      32.869  17.837   8.365  0.00  0.00    -0.357 N 
HETATM   11  C   UNK N   1      33.468  17.826   7.152  0.00  0.00     0.252 A 
HETATM   12  O   UNK N   1      34.649  18.120   7.064  0.00  0.00    -0.268 OA
HETATM   13  H   UNK N   1      33.419  18.085   9.144  0.00  0.00     0.162 HD
ENDROOT
TORSDOF 0
ENDMDL
MODEL 5
REMARK VINA RESULT:      -5.2     29.103     30.033
REMARK  0 active torsions:
REMARK  status: ('A' for Active; 'I' for Inactive)
ROOT
HETATM    1  C   UNK N   1      28.620  30.215  -6.215  0.00  0.00     0.049 C 
HETATM    2  C   UNK N   1      27.585  29.339  -5.594  0.00  0.00    -0.055 A 
HETATM    3  C   UNK N   1      27.033  29.719  -4.368  0.00  0.00     0.007 A 
HETATM    4  C   UNK N   1      26.063  28.927  -3.755  0.00  0.00     0.002 A 
HETATM    5  C   UNK N   1      25.640  27.750  -4.365  0.00  0.00     0.017 A 
HETATM    6  C   UNK N   1      26.184  27.355  -5.595  0.00  0.00     0.038 A 
HETATM    7  C   UNK N   1      27.160  28.146  -6.218  0.00  0.00    -0.035 A 
HETATM    8  C   UNK N   1      27.755  27.739  -7.538  0.00  0.00     0.060 A 
HETATM    9  C   UNK N   1      27.247  26.429  -8.161  0.00  0.00     0.127 A 
HETATM   10  N   UNK N   1      26.236  25.709  -7.411  0.00  0.00    -0.357 N 
HETATM   11  C   UNK N   1      25.726  26.110  -6.224  0.00  0.00     0.252 A 
HETATM   12  O   UNK N   1      24.876  25.427  -5.675  0.00  0.00    -0.268 OA
HETATM   13  H   UNK N   1      25.896  24.866  -7.793  0.00  0.00     0.162 HD
ENDROOT
TORSDOF 0
ENDMDL
MODEL 6
REMARK VINA RESULT:      -5.2     28.829     29.720
REMARK  0 active torsions:
REMARK  status: ('A' for Active; 'I' for Inactive)
ROOT
HETATM    1  C   UNK N   1      28.183  27.720  -8.460  0.00  0.00     0.049 C 
HETATM    2  C   UNK N   1      27.254  27.306  -7.369  0.00  0.00    -0.055 A 
HETATM    3  C   UNK N   1      26.503  26.139  -7.535  0.00  0.00     0.007 A 
HETATM    4  C   UNK N   1      25.624  25.718  -6.539  0.00  0.00     0.002 A 
HETATM    5  C   UNK N   1      25.490  26.462  -5.370  0.00  0.00     0.017 A 
HETATM    6  C   UNK N   1      26.236  27.635  -5.188  0.00  0.00     0.038 A 
HETATM    7  C   UNK N   1      27.123  28.064  -6.186  0.00  0.00    -0.035 A 
HETATM    8  C   UNK N   1      27.932  29.320  -6.009  0.00  0.00     0.060 A 
HETATM    9  C   UNK N   1      27.740  30.098  -4.697  0.00  0.00     0.127 A 
HETATM   10  N   UNK N   1      26.791  29.541  -3.752  0.00  0.00    -0.357 N 
HETATM   11  C   UNK N   1      26.082  28.407  -3.950  0.00  0.00     0.252 A 
HETATM   12  O   UNK N   1      25.308  28.026  -3.086  0.00  0.00    -0.268 OA
HETATM   13  H   UNK N   1      26.653  30.024  -2.904  0.00  0.00     0.162 HD
ENDROOT
TORSDOF 0
ENDMDL
MODEL 7
REMARK VINA RESULT:      -5.1      2.523      4.515
REMARK  0 active torsions:
REMARK  status: ('A' for Active; 'I' for Inactive)
ROOT
HETATM    1  C   UNK N   1      35.286  14.714  18.185  0.00  0.00     0.049 C 
HETATM    2  C   UNK N   1      35.289  13.225  18.269  0.00  0.00    -0.055 A 
HETATM    3  C   UNK N   1      35.361  12.625  19.529  0.00  0.00     0.007 A 
HETATM    4  C   UNK N   1      35.367  11.236  19.650  0.00  0.00     0.002 A 
HETATM    5  C   UNK N   1      35.300  10.439  18.511  0.00  0.00     0.017 A 
HETATM    6  C   UNK N   1      35.228  11.025  17.240  0.00  0.00     0.038 A 
HETATM    7  C   UNK N   1      35.222  12.422  17.110  0.00  0.00    -0.035 A 
HETATM    8  C   UNK N   1      35.145  13.070  15.755  0.00  0.00     0.060 A 
HETATM    9  C   UNK N   1      35.074  12.137  14.536  0.00  0.00     0.127 A 
HETATM   10  N   UNK N   1      35.088  10.713  14.813  0.00  0.00    -0.357 N 
HETATM   11  C   UNK N   1      35.159  10.170  16.049  0.00  0.00     0.252 A 
HETATM   12  O   UNK N   1      35.164   8.955  16.171  0.00  0.00    -0.268 OA
HETATM   13  H   UNK N   1      35.043  10.097  14.045  0.00  0.00     0.162 HD
ENDROOT
TORSDOF 0
ENDMDL
MODEL 8
REMARK VINA RESULT:      -5.0     19.501     21.243
REMARK  0 active torsions:
REMARK  status: ('A' for Active; 'I' for Inactive)
ROOT
HETATM    1  C   UNK N   1      23.014  17.075   5.172  0.00  0.00     0.049 C 
HETATM    2  C   UNK N   1      23.081  18.301   4.326  0.00  0.00    -0.055 A 
HETATM    3  C   UNK N   1      24.280  19.017   4.278  0.00  0.00     0.007 A 
HETATM    4  C   UNK N   1      24.384  20.169   3.499  0.00  0.00     0.002 A 
HETATM    5  C   UNK N   1      23.288  20.611   2.764  0.00  0.00     0.017 A 
HETATM    6  C   UNK N   1      22.078  19.905   2.802  0.00  0.00     0.038 A 
HETATM    7  C   UNK N   1      21.966  18.745   3.583  0.00  0.00    -0.035 A 
HETATM    8  C   UNK N   1      20.676  17.974   3.636  0.00  0.00     0.060 A 
HETATM    9  C   UNK N   1      19.503  18.513   2.803  0.00  0.00     0.127 A 
HETATM   10  N   UNK N   1      19.755  19.721   2.041  0.00  0.00    -0.357 N 
HETATM   11  C   UNK N   1      20.933  20.386   2.020  0.00  0.00     0.252 A 
HETATM   12  O   UNK N   1      21.039  21.396   1.343  0.00  0.00    -0.268 OA
HETATM   13  H   UNK N   1      19.016  20.083   1.500  0.00  0.00     0.162 HD
ENDROOT
TORSDOF 0
ENDMDL
MODEL 9
REMARK VINA RESULT:      -5.0      3.206      5.130
REMARK  0 active torsions:
REMARK  status: ('A' for Active; 'I' for Inactive)
ROOT
HETATM    1  C   UNK N   1      37.518  15.844  16.022  0.00  0.00     0.049 C 
HETATM    2  C   UNK N   1      36.542  14.758  16.325  0.00  0.00    -0.055 A 
HETATM    3  C   UNK N   1      36.129  14.578  17.648  0.00  0.00     0.007 A 
HETATM    4  C   UNK N   1      35.218  13.575  17.974  0.00  0.00     0.002 A 
HETATM    5  C   UNK N   1      34.714  12.744  16.977  0.00  0.00     0.017 A 
HETATM    6  C   UNK N   1      35.118  12.911  15.645  0.00  0.00     0.038 A 
HETATM    7  C   UNK N   1      36.035  13.919  15.310  0.00  0.00    -0.035 A 
HETATM    8  C   UNK N   1      36.480  14.114  13.887  0.00  0.00     0.060 A 
HETATM    9  C   UNK N   1      35.888  13.166  12.832  0.00  0.00     0.127 A 
HETATM   10  N   UNK N   1      34.951  12.169  13.315  0.00  0.00    -0.357 N 
HETATM   11  C   UNK N   1      34.576  12.027  14.607  0.00  0.00     0.252 A 
HETATM   12  O   UNK N   1      33.779  11.152  14.906  0.00  0.00    -0.268 OA
HETATM   13  H   UNK N   1      34.560  11.551  12.655  0.00  0.00     0.162 HD
ENDROOT
TORSDOF 0
ENDMDL
