MODEL 1
REMARK VINA RESULT:      -3.7      0.000      0.000
REMARK  0 active torsions:
REMARK  status: ('A' for Active; 'I' for Inactive)
ROOT
HETATM    1  C   UNK N   1      21.292  12.611  10.610  0.00  0.00     0.156 C 
HETATM    2  N   UNK N   1      22.745  12.619  10.589  0.00  0.00    -0.350 N 
HETATM    3  C   UNK N   1      23.511  12.991   9.554  0.00  0.00     0.108 A 
HETATM    4  C   UNK N   1      24.834  12.853   9.939  0.00  0.00     0.106 A 
HETATM    5  N   UNK N   1      24.870  12.395  11.210  0.00  0.00    -0.355 N 
HETATM    6  C   UNK N   1      23.583  12.263  11.577  0.00  0.00     0.078 A 
HETATM    7  C   UNK N   1      23.157  11.779  12.921  0.00  0.00     0.089 C 
HETATM    8  H   UNK N   1      25.668  12.200  11.753  0.00  0.00     0.166 HD
ENDROOT
TORSDOF 0
ENDMDL
MODEL 2
REMARK VINA RESULT:      -3.3      0.979      2.874
REMARK  0 active torsions:
REMARK  status: ('A' for Active; 'I' for Inactive)
ROOT
HETATM    1  C   UNK N   1      24.444  12.950   9.435  0.00  0.00     0.156 C 
HETATM    2  N   UNK N   1      23.620  12.495  10.543  0.00  0.00    -0.350 N 
HETATM    3  C   UNK N   1      24.072  12.064  11.729  0.00  0.00     0.108 A 
HETATM    4  C   UNK N   1      22.971  11.725  12.499  0.00  0.00     0.106 A 
HETATM    5  N   UNK N   1      21.851  11.952  11.778  0.00  0.00    -0.355 N 
HETATM    6  C   UNK N   1      22.280  12.420  10.593  0.00  0.00     0.078 A 
HETATM    7  C   UNK N   1      21.364  12.803   9.481  0.00  0.00     0.089 C 
HETATM    8  H   UNK N   1      20.919  11.805  12.060  0.00  0.00     0.166 HD
ENDROOT
TORSDOF 0
ENDMDL
MODEL 3
REMARK VINA RESULT:      -3.2      0.941      2.363
REMARK  0 active torsions:
REMARK  status: ('A' for Active; 'I' for Inactive)
ROOT
HETATM    1  C   UNK N   1      21.926  13.409   9.324  0.00  0.00     0.156 C 
HETATM    2  N   UNK N   1      22.950  12.875  10.206  0.00  0.00    -0.350 N 
HETATM    3  C   UNK N   1      22.733  12.274  11.385  0.00  0.00     0.108 A 
HETATM    4  C   UNK N   1      23.965  11.914  11.906  0.00  0.00     0.106 A 
HETATM    5  N   UNK N   1      24.931  12.298  11.041  0.00  0.00    -0.355 N 
HETATM    6  C   UNK N   1      24.280  12.879  10.018  0.00  0.00     0.078 A 
HETATM    7  C   UNK N   1      24.969  13.453   8.827  0.00  0.00     0.089 C 
HETATM    8  H   UNK N   1      25.903  12.177  11.139  0.00  0.00     0.166 HD
ENDROOT
TORSDOF 0
ENDMDL
MODEL 4
REMARK VINA RESULT:      -3.2     12.318     12.530
REMARK  0 active torsions:
REMARK  status: ('A' for Active; 'I' for Inactive)
ROOT
HETATM    1  C   UNK N   1      34.859  15.404   7.235  0.00  0.00     0.156 C 
HETATM    2  N   UNK N   1      34.955  15.910   8.594  0.00  0.00    -0.350 N 
HETATM    3  C   UNK N   1      35.322  15.199   9.670  0.00  0.00     0.108 A 
HETATM    4  C   UNK N   1      35.284  16.046  10.765  0.00  0.00     0.106 A 
HETATM    5  N   UNK N   1      34.894  17.272  10.352  0.00  0.00    -0.355 N 
HETATM    6  C   UNK N   1      34.702  17.156   9.027  0.00  0.00     0.078 A 
HETATM    7  C   UNK N   1      34.261  18.284   8.158  0.00  0.00     0.089 C 
HETATM    8  H   UNK N   1      34.776  18.079  10.904  0.00  0.00     0.166 HD
ENDROOT
TORSDOF 0
ENDMDL
MODEL 5
REMARK VINA RESULT:      -3.1     12.284     13.176
REMARK  0 active torsions:
REMARK  status: ('A' for Active; 'I' for Inactive)
ROOT
HETATM    1  C   UNK N   1      34.787  13.006  15.925  0.00  0.00     0.156 C 
HETATM    2  N   UNK N   1      35.454  13.358  14.682  0.00  0.00    -0.350 N 
HETATM    3  C   UNK N   1      35.145  12.885  13.467  0.00  0.00     0.108 A 
HETATM    4  C   UNK N   1      36.013  13.466  12.557  0.00  0.00     0.106 A 
HETATM    5  N   UNK N   1      36.850  14.293  13.223  0.00  0.00    -0.355 N 
HETATM    6  C   UNK N   1      36.483  14.205  14.513  0.00  0.00     0.078 A 
HETATM    7  C   UNK N   1      37.150  14.962  15.610  0.00  0.00     0.089 C 
HETATM    8  H   UNK N   1      37.573  14.843  12.844  0.00  0.00     0.166 HD
ENDROOT
TORSDOF 0
ENDMDL
MODEL 6
REMARK VINA RESULT:      -3.1      9.764     11.288
REMARK  0 active torsions:
REMARK  status: ('A' for Active; 'I' for Inactive)
ROOT
HETATM    1  C   UNK N   1      33.366  17.433   5.429  0.00  0.00     0.156 C 
HETATM    2  N   UNK N   1      32.635  17.433   6.685  0.00  0.00    -0.350 N 
HETATM    3  C   UNK N   1      31.366  17.032   6.852  0.00  0.00     0.108 A 
HETATM    4  C   UNK N   1      31.048  17.191   8.190  0.00  0.00     0.106 A 
HETATM    5  N   UNK N   1      32.126  17.690   8.836  0.00  0.00    -0.355 N 
HETATM    6  C   UNK N   1      33.074  17.825   7.892  0.00  0.00     0.078 A 
HETATM    7  C   UNK N   1      34.441  18.349   8.170  0.00  0.00     0.089 C 
HETATM    8  H   UNK N   1      32.202  17.907   9.793  0.00  0.00     0.166 HD
ENDROOT
TORSDOF 0
ENDMDL
MODEL 7
REMARK VINA RESULT:      -3.1     19.811     20.715
REMARK  0 active torsions:
REMARK  status: ('A' for Active; 'I' for Inactive)
ROOT
HETATM    1  C   UNK N   1      26.686  27.257  -3.255  0.00  0.00     0.156 C 
HETATM    2  N   UNK N   1      26.307  26.083  -4.022  0.00  0.00    -0.350 N 
HETATM    3  C   UNK N   1      26.734  24.831  -3.800  0.00  0.00     0.108 A 
HETATM    4  C   UNK N   1      26.140  24.011  -4.746  0.00  0.00     0.106 A 
HETATM    5  N   UNK N   1      25.352  24.767  -5.542  0.00  0.00    -0.355 N 
HETATM    6  C   UNK N   1      25.475  26.022  -5.075  0.00  0.00     0.078 A 
HETATM    7  C   UNK N   1      24.767  27.192  -5.667  0.00  0.00     0.089 C 
HETATM    8  H   UNK N   1      24.804  24.464  -6.302  0.00  0.00     0.166 HD
ENDROOT
TORSDOF 0
ENDMDL
MODEL 8
REMARK VINA RESULT:      -3.1     21.960     22.723
REMARK  0 active torsions:
REMARK  status: ('A' for Active; 'I' for Inactive)
ROOT
HETATM    1  C   UNK N   1      27.438  28.183  -6.697  0.00  0.00     0.156 C 
HETATM    2  N   UNK N   1      26.880  28.493  -5.392  0.00  0.00    -0.350 N 
HETATM    3  C   UNK N   1      27.414  29.331  -4.491  0.00  0.00     0.108 A 
HETATM    4  C   UNK N   1      26.579  29.347  -3.386  0.00  0.00     0.106 A 
HETATM    5  N   UNK N   1      25.538  28.516  -3.617  0.00  0.00    -0.355 N 
HETATM    6  C   UNK N   1      25.751  28.013  -4.846  0.00  0.00     0.078 A 
HETATM    7  C   UNK N   1      24.834  27.041  -5.505  0.00  0.00     0.089 C 
HETATM    8  H   UNK N   1      24.783  28.321  -3.015  0.00  0.00     0.166 HD
ENDROOT
TORSDOF 0
ENDMDL
MODEL 9
REMARK VINA RESULT:      -2.9     21.736     22.872
REMARK  0 active torsions:
REMARK  status: ('A' for Active; 'I' for Inactive)
ROOT
HETATM    1  C   UNK N   1      40.710  20.938   1.430  0.00  0.00     0.156 C 
HETATM    2  N   UNK N   1      41.656  21.795   2.124  0.00  0.00    -0.350 N 
HETATM    3  C   UNK N   1      42.555  21.393   3.034  0.00  0.00     0.108 A 
HETATM    4  C   UNK N   1      43.259  22.510   3.452  0.00  0.00     0.106 A 
HETATM    5  N   UNK N   1      42.785  23.592   2.793  0.00  0.00    -0.355 N 
HETATM    6  C   UNK N   1      41.812  23.122   1.994  0.00  0.00     0.078 A 
HETATM    7  C   UNK N   1      41.012  23.986   1.079  0.00  0.00     0.089 C 
HETATM    8  H   UNK N   1      43.089  24.524   2.880  0.00  0.00     0.166 HD
ENDROOT
TORSDOF 0
ENDMDL
