MODEL 1
REMARK VINA RESULT:      -4.7      0.000      0.000
REMARK  2 active torsions:
REMARK  status: ('A' for Active; 'I' for Inactive)
REMARK       I    between atoms: N_8  and  C_5 
REMARK    1  A    between atoms: C_6  and  C_7 
REMARK    2  A    between atoms: O_11  and  C_7 
ROOT
HETATM    1  C   UNK N   1      32.939  16.712   4.308  0.00  0.00     0.117 C 
HETATM    2  C   UNK N   1      30.316  17.450   7.644  0.00  0.00     0.022 A 
HETATM    3  C   UNK N   1      31.367  17.826   8.688  0.00  0.00     0.038 A 
HETATM    4  C   UNK N   1      31.082  17.154   6.386  0.00  0.00     0.127 A 
HETATM    5  C   UNK N   1      33.392  17.133   5.674  0.00  0.00     0.216 C 
HETATM    6  C   UNK N   1      32.769  17.760   8.068  0.00  0.00     0.185 A 
HETATM    7  N   UNK N   1      32.481  17.346   6.681  0.00  0.00    -0.338 N 
HETATM    8  O   UNK N   1      34.584  17.273   5.845  0.00  0.00    -0.274 OA
ENDROOT
BRANCH   6   9
HETATM    9  C   UNK N   1      34.152  18.041   8.682  0.00  0.00     0.163 C 
HETATM   10  O   UNK N   1      34.629  17.350   9.561  0.00  0.00    -0.648 OA
BRANCH   9  11
HETATM   11  O   UNK N   1      34.880  19.090   8.241  0.00  0.00    -0.775 OA
HETATM   12  H   UNK N   1      35.815  19.058   8.275  0.00  0.00     0.167 HD
ENDBRANCH   9  11
ENDBRANCH   6   9
TORSDOF 2
ENDMDL
MODEL 2
REMARK VINA RESULT:      -4.6      1.243      2.996
REMARK  2 active torsions:
REMARK  status: ('A' for Active; 'I' for Inactive)
REMARK       I    between atoms: N_8  and  C_5 
REMARK    1  A    between atoms: C_6  and  C_7 
REMARK    2  A    between atoms: O_11  and  C_7 
ROOT
HETATM    1  C   UNK N   1      29.490  17.341   7.633  0.00  0.00     0.117 C 
HETATM    2  C   UNK N   1      32.655  16.861   4.752  0.00  0.00     0.022 A 
HETATM    3  C   UNK N   1      33.835  17.270   5.632  0.00  0.00     0.038 A 
HETATM    4  C   UNK N   1      31.438  16.975   5.626  0.00  0.00     0.127 A 
HETATM    5  C   UNK N   1      30.940  17.601   7.908  0.00  0.00     0.216 C 
HETATM    6  C   UNK N   1      33.340  17.633   7.039  0.00  0.00     0.185 A 
HETATM    7  N   UNK N   1      31.884  17.420   6.924  0.00  0.00    -0.338 N 
HETATM    8  O   UNK N   1      31.237  17.972   9.023  0.00  0.00    -0.274 OA
ENDROOT
BRANCH   6   9
HETATM    9  C   UNK N   1      34.112  18.102   8.285  0.00  0.00     0.163 C 
HETATM   10  O   UNK N   1      34.826  19.085   8.279  0.00  0.00    -0.648 OA
BRANCH   9  11
HETATM   11  O   UNK N   1      34.005  17.407   9.439  0.00  0.00    -0.775 OA
HETATM   12  H   UNK N   1      34.578  17.598  10.155  0.00  0.00     0.167 HD
ENDBRANCH   9  11
ENDBRANCH   6   9
TORSDOF 2
ENDMDL
MODEL 3
REMARK VINA RESULT:      -4.5     11.513     12.658
REMARK  2 active torsions:
REMARK  status: ('A' for Active; 'I' for Inactive)
REMARK       I    between atoms: N_8  and  C_5 
REMARK    1  A    between atoms: C_6  and  C_7 
REMARK    2  A    between atoms: O_11  and  C_7 
ROOT
HETATM    1  C   UNK N   1      22.434  17.600   5.490  0.00  0.00     0.117 C 
HETATM    2  C   UNK N   1      21.272  14.389   8.115  0.00  0.00     0.022 A 
HETATM    3  C   UNK N   1      20.281  15.153   8.993  0.00  0.00     0.038 A 
HETATM    4  C   UNK N   1      21.785  15.389   7.118  0.00  0.00     0.127 A 
HETATM    5  C   UNK N   1      21.446  17.729   6.611  0.00  0.00     0.216 C 
HETATM    6  C   UNK N   1      20.191  16.615   8.533  0.00  0.00     0.185 A 
HETATM    7  N   UNK N   1      21.136  16.646   7.400  0.00  0.00    -0.338 N 
HETATM    8  O   UNK N   1      20.943  18.817   6.785  0.00  0.00    -0.274 OA
ENDROOT
BRANCH   6   9
HETATM    9  C   UNK N   1      19.351  17.786   9.073  0.00  0.00     0.163 C 
HETATM   10  O   UNK N   1      18.139  17.744   9.142  0.00  0.00    -0.648 OA
BRANCH   9  11
HETATM   11  O   UNK N   1      19.968  18.914   9.490  0.00  0.00    -0.775 OA
HETATM   12  H   UNK N   1      20.867  18.887   9.751  0.00  0.00     0.167 HD
ENDBRANCH   9  11
ENDBRANCH   6   9
TORSDOF 2
ENDMDL
MODEL 4
REMARK VINA RESULT:      -4.5      3.071      4.058
REMARK  2 active torsions:
REMARK  status: ('A' for Active; 'I' for Inactive)
REMARK       I    between atoms: N_8  and  C_5 
REMARK    1  A    between atoms: C_6  and  C_7 
REMARK    2  A    between atoms: O_11  and  C_7 
ROOT
HETATM    1  C   UNK N   1      33.823  18.202   7.986  0.00  0.00     0.117 C 
HETATM    2  C   UNK N   1      33.158  14.016   8.752  0.00  0.00     0.022 A 
HETATM    3  C   UNK N   1      34.176  13.820   9.876  0.00  0.00     0.038 A 
HETATM    4  C   UNK N   1      33.263  15.462   8.358  0.00  0.00     0.127 A 
HETATM    5  C   UNK N   1      34.551  17.397   9.021  0.00  0.00     0.216 C 
HETATM    6  C   UNK N   1      34.899  15.143  10.165  0.00  0.00     0.185 A 
HETATM    7  N   UNK N   1      34.272  16.062   9.196  0.00  0.00    -0.338 N 
HETATM    8  O   UNK N   1      35.385  17.972   9.685  0.00  0.00    -0.274 OA
ENDROOT
BRANCH   6   9
HETATM    9  C   UNK N   1      35.999  15.483  11.186  0.00  0.00     0.163 C 
HETATM   10  O   UNK N   1      35.840  15.353  12.384  0.00  0.00    -0.648 OA
BRANCH   9  11
HETATM   11  O   UNK N   1      37.193  15.944  10.755  0.00  0.00    -0.775 OA
HETATM   12  H   UNK N   1      37.229  16.586  10.074  0.00  0.00     0.167 HD
ENDBRANCH   9  11
ENDBRANCH   6   9
TORSDOF 2
ENDMDL
MODEL 5
REMARK VINA RESULT:      -4.5      4.700      5.702
REMARK  2 active torsions:
REMARK  status: ('A' for Active; 'I' for Inactive)
REMARK       I    between atoms: N_8  and  C_5 
REMARK    1  A    between atoms: C_6  and  C_7 
REMARK    2  A    between atoms: O_11  and  C_7 
ROOT
HETATM    1  C   UNK N   1      26.771  20.834   5.209  0.00  0.00     0.117 C 
HETATM    2  C   UNK N   1      29.470  17.481   5.056  0.00  0.00     0.022 A 
HETATM    3  C   UNK N   1      29.612  17.227   6.556  0.00  0.00     0.038 A 
HETATM    4  C   UNK N   1      28.536  18.651   4.929  0.00  0.00     0.127 A 
HETATM    5  C   UNK N   1      27.303  20.111   6.410  0.00  0.00     0.216 C 
HETATM    6  C   UNK N   1      28.766  18.239   7.342  0.00  0.00     0.185 A 
HETATM    7  N   UNK N   1      28.162  19.047   6.265  0.00  0.00    -0.338 N 
HETATM    8  O   UNK N   1      26.943  20.502   7.499  0.00  0.00    -0.274 OA
ENDROOT
BRANCH   6   9
HETATM    9  C   UNK N   1      28.563  18.415   8.857  0.00  0.00     0.163 C 
HETATM   10  O   UNK N   1      29.461  18.754   9.602  0.00  0.00    -0.648 OA
BRANCH   9  11
HETATM   11  O   UNK N   1      27.346  18.189   9.399  0.00  0.00    -0.775 OA
HETATM   12  H   UNK N   1      26.602  18.061   8.844  0.00  0.00     0.167 HD
ENDBRANCH   9  11
ENDBRANCH   6   9
TORSDOF 2
ENDMDL
MODEL 6
REMARK VINA RESULT:      -4.4      1.717      3.498
REMARK  2 active torsions:
REMARK  status: ('A' for Active; 'I' for Inactive)
REMARK       I    between atoms: N_8  and  C_5 
REMARK    1  A    between atoms: C_6  and  C_7 
REMARK    2  A    between atoms: O_11  and  C_7 
ROOT
HETATM    1  C   UNK N   1      34.465  18.252   8.188  0.00  0.00     0.117 C 
HETATM    2  C   UNK N   1      30.272  17.296   8.439  0.00  0.00     0.022 A 
HETATM    3  C   UNK N   1      30.019  16.973   6.967  0.00  0.00     0.038 A 
HETATM    4  C   UNK N   1      31.727  17.660   8.529  0.00  0.00     0.127 A 
HETATM    5  C   UNK N   1      33.612  17.841   7.026  0.00  0.00     0.216 C 
HETATM    6  C   UNK N   1      31.315  17.138   6.162  0.00  0.00     0.185 A 
HETATM    7  N   UNK N   1      32.279  17.554   7.201  0.00  0.00    -0.338 N 
HETATM    8  O   UNK N   1      34.147  17.775   5.940  0.00  0.00    -0.274 OA
ENDROOT
BRANCH   6   9
HETATM    9  C   UNK N   1      31.598  16.938   4.663  0.00  0.00     0.163 C 
HETATM   10  O   UNK N   1      31.671  15.837   4.154  0.00  0.00    -0.648 OA
BRANCH   9  11
HETATM   11  O   UNK N   1      31.775  18.015   3.866  0.00  0.00    -0.775 OA
HETATM   12  H   UNK N   1      32.573  18.115   3.386  0.00  0.00     0.167 HD
ENDBRANCH   9  11
ENDBRANCH   6   9
TORSDOF 2
ENDMDL
MODEL 7
REMARK VINA RESULT:      -4.3     10.556     11.871
REMARK  2 active torsions:
REMARK  status: ('A' for Active; 'I' for Inactive)
REMARK       I    between atoms: N_8  and  C_5 
REMARK    1  A    between atoms: C_6  and  C_7 
REMARK    2  A    between atoms: O_11  and  C_7 
ROOT
HETATM    1  C   UNK N   1      22.207  17.150   5.452  0.00  0.00     0.117 C 
HETATM    2  C   UNK N   1      25.272  19.619   3.702  0.00  0.00     0.022 A 
HETATM    3  C   UNK N   1      24.383  20.528   2.854  0.00  0.00     0.038 A 
HETATM    4  C   UNK N   1      24.336  18.672   4.398  0.00  0.00     0.127 A 
HETATM    5  C   UNK N   1      21.954  18.272   4.490  0.00  0.00     0.216 C 
HETATM    6  C   UNK N   1      22.909  20.135   3.032  0.00  0.00     0.185 A 
HETATM    7  N   UNK N   1      22.997  19.008   3.981  0.00  0.00    -0.338 N 
HETATM    8  O   UNK N   1      20.802  18.494   4.188  0.00  0.00    -0.274 OA
ENDROOT
BRANCH   6   9
HETATM    9  C   UNK N   1      21.631  20.725   2.410  0.00  0.00     0.163 C 
HETATM   10  O   UNK N   1      21.407  20.684   1.217  0.00  0.00    -0.648 OA
BRANCH   9  11
HETATM   11  O   UNK N   1      20.712  21.317   3.205  0.00  0.00    -0.775 OA
HETATM   12  H   UNK N   1      20.698  22.249   3.290  0.00  0.00     0.167 HD
ENDBRANCH   9  11
ENDBRANCH   6   9
TORSDOF 2
ENDMDL
MODEL 8
REMARK VINA RESULT:      -4.3      4.397      5.133
REMARK  2 active torsions:
REMARK  status: ('A' for Active; 'I' for Inactive)
REMARK       I    between atoms: N_8  and  C_5 
REMARK    1  A    between atoms: C_6  and  C_7 
REMARK    2  A    between atoms: O_11  and  C_7 
ROOT
HETATM    1  C   UNK N   1      29.518  17.135   4.378  0.00  0.00     0.117 C 
HETATM    2  C   UNK N   1      27.247  20.650   5.400  0.00  0.00     0.022 A 
HETATM    3  C   UNK N   1      27.265  20.505   6.921  0.00  0.00     0.038 A 
HETATM    4  C   UNK N   1      28.016  19.473   4.871  0.00  0.00     0.127 A 
HETATM    5  C   UNK N   1      29.183  17.558   5.776  0.00  0.00     0.216 C 
HETATM    6  C   UNK N   1      28.044  19.243   7.319  0.00  0.00     0.185 A 
HETATM    7  N   UNK N   1      28.451  18.699   6.008  0.00  0.00    -0.338 N 
HETATM    8  O   UNK N   1      29.583  16.856   6.680  0.00  0.00    -0.274 OA
ENDROOT
BRANCH   6   9
HETATM    9  C   UNK N   1      28.352  18.649   8.704  0.00  0.00     0.163 C 
HETATM   10  O   UNK N   1      29.428  18.792   9.251  0.00  0.00    -0.648 OA
BRANCH   9  11
HETATM   11  O   UNK N   1      27.404  17.938   9.354  0.00  0.00    -0.775 OA
HETATM   12  H   UNK N   1      27.297  17.025   9.173  0.00  0.00     0.167 HD
ENDBRANCH   9  11
ENDBRANCH   6   9
TORSDOF 2
ENDMDL
MODEL 9
REMARK VINA RESULT:      -4.2     11.585     12.998
REMARK  2 active torsions:
REMARK  status: ('A' for Active; 'I' for Inactive)
REMARK       I    between atoms: N_8  and  C_5 
REMARK    1  A    between atoms: C_6  and  C_7 
REMARK    2  A    between atoms: O_11  and  C_7 
ROOT
HETATM    1  C   UNK N   1      30.791  20.659  -5.832  0.00  0.00     0.117 C 
HETATM    2  C   UNK N   1      28.800  24.478  -5.846  0.00  0.00     0.022 A 
HETATM    3  C   UNK N   1      28.592  24.637  -4.340  0.00  0.00     0.038 A 
HETATM    4  C   UNK N   1      29.501  23.161  -6.021  0.00  0.00     0.127 A 
HETATM    5  C   UNK N   1      30.315  21.377  -4.606  0.00  0.00     0.216 C 
HETATM    6  C   UNK N   1      29.166  23.421  -3.599  0.00  0.00     0.185 A 
HETATM    7  N   UNK N   1      29.687  22.596  -4.706  0.00  0.00    -0.338 N 
HETATM    8  O   UNK N   1      30.508  20.839  -3.537  0.00  0.00    -0.274 OA
ENDROOT
BRANCH   6   9
HETATM    9  C   UNK N   1      29.213  23.092  -2.097  0.00  0.00     0.163 C 
HETATM   10  O   UNK N   1      28.210  22.921  -1.434  0.00  0.00    -0.648 OA
BRANCH   9  11
HETATM   11  O   UNK N   1      30.407  22.987  -1.472  0.00  0.00    -0.775 OA
HETATM   12  H   UNK N   1      30.925  23.752  -1.319  0.00  0.00     0.167 HD
ENDBRANCH   9  11
ENDBRANCH   6   9
TORSDOF 2
ENDMDL
