REMARK  10 active torsions:
REMARK  status: ('A' for Active; 'I' for Inactive)
REMARK    1  A    between atoms: C_4  and  C_2 
REMARK    2  A    between atoms: C_5  and  C_3 
REMARK    3  A    between atoms: C_6  and  C_3 
REMARK    4  A    between atoms: C_8  and  C_4 
REMARK    5  A    between atoms: C_7  and  C_5 
REMARK    6  A    between atoms: N_13  and  C_6 
REMARK    7  A    between atoms: C_9  and  C_7 
REMARK    8  A    between atoms: C_7  and  N_10 
REMARK    9  A    between atoms: N_13  and  C_8 
REMARK   10  A    between atoms: O_15  and  C_9 
ROOT
HETATM    1  C   UNK N   1       5.304   0.238   0.971  0.00  0.00     0.022 C 
ENDROOT
BRANCH   1   2
HETATM    2  C   UNK N   1       6.481  -0.731   0.890  0.00  0.00     0.045 C 
BRANCH   2   3
HETATM    3  C   UNK N   1       7.660  -0.202   0.067  0.00  0.00     0.280 C 
BRANCH   3   4
HETATM    4  C   UNK N   1       8.858  -1.103   0.183  0.00  0.00     0.171 C 
HETATM    5  O   UNK N   1       9.880  -0.830  -0.424  0.00  0.00    -0.648 OA
BRANCH   4   6
HETATM    6  O   UNK N   1       8.820  -2.209   0.954  0.00  0.00    -0.775 OA
HETATM    7  H   UNK N   1       8.141  -2.571   1.490  0.00  0.00     0.167 HD
ENDBRANCH   4   6
ENDBRANCH   3   4
BRANCH   3   8
HETATM    8  N   UNK N   1       8.023   1.131   0.523  0.00  0.00    -0.065 N 
HETATM    9  H   UNK N   1       8.959   1.378   0.843  0.00  0.00     0.275 HD
HETATM   10  H   UNK N   1       7.305   1.855   0.523  0.00  0.00     0.275 HD
HETATM   11  H   UNK N   1       8.236   2.079   0.835  0.00  0.00     0.275 HD
ENDBRANCH   3   8
ENDBRANCH   2   3
ENDBRANCH   1   2
BRANCH   1  12
HETATM   12  C   UNK N   1       4.810   0.654  -0.406  0.00  0.00     0.121 C 
BRANCH  12  13
HETATM   13  N   UNK N   1       3.372   0.614  -0.436  0.00  0.00    -0.380 N 
HETATM   14  H   UNK N   1       2.868   1.460  -0.414  0.00  0.00     0.160 HD
BRANCH  13  15
HETATM   15  C   UNK N   1       2.659  -0.613  -0.497  0.00  0.00     0.070 C 
HETATM   16  N   UNK N   1       3.284  -1.728  -0.614  0.00  0.00    -0.389 N 
HETATM   17  H   UNK N   1       2.783  -2.571  -0.703  0.00  0.00     0.157 HD
ATOM     18  HN  UNK N   1       4.304  -1.741  -0.614  1.00  0.00     0.157 HD
BRANCH  15  19
HETATM   19  C   UNK N   1       1.172  -0.606  -0.419  0.00  0.00     0.075 C 
BRANCH  19  20
HETATM   20  C   UNK N   1       0.740  -0.085   0.938  0.00  0.00     0.003 C 
HETATM   21  C   UNK N   1      -0.285   1.013   0.757  0.00  0.00     0.005 C 
ENDBRANCH  19  20
ENDBRANCH  15  19
ENDBRANCH  13  15
ENDBRANCH  12  13
ENDBRANCH   1  12
TORSDOF 10
