MODEL 1
REMARK VINA RESULT:      -4.4      0.000      0.000
REMARK  3 active torsions:
REMARK  status: ('A' for Active; 'I' for Inactive)
REMARK    1  A    between atoms: N_1  and  C_2 
REMARK    2  A    between atoms: C_2  and  N_4 
REMARK    3  A    between atoms: N_4  and  C_5 
ROOT
HETATM    1  N   UNK N   1      35.054  13.113  15.470  0.00  0.00    -0.334 N 
HETATM    2  H   UNK N   1      34.151  13.043  15.084  0.00  0.00     0.168 HD
ENDROOT
BRANCH   1   3
HETATM    3  C   UNK N   1      36.052  13.669  14.600  0.00  0.00     0.169 C 
HETATM    4  S   UNK N   1      35.811  13.905  13.198  0.00  0.00    -0.041 SA
BRANCH   3   5
HETATM    5  N   UNK N   1      37.303  14.024  15.138  0.00  0.00    -0.376 N 
HETATM    6  H   UNK N   1      38.076  13.426  15.023  0.00  0.00     0.158 HD
HETATM    7  H   UNK N   1      37.405  14.871  15.629  0.00  0.00     0.158 HD
ENDBRANCH   3   5
ENDBRANCH   1   3
BRANCH   1   8
HETATM    8  C   UNK N   1      35.183  12.648  16.811  0.00  0.00     0.034 A 
HETATM    9  C   UNK N   1      35.425  11.288  17.038  0.00  0.00     0.029 A 
HETATM   10  C   UNK N   1      35.553  10.796  18.340  0.00  0.00     0.002 A 
HETATM   11  C   UNK N   1      35.437  11.662  19.431  0.00  0.00     0.000 A 
HETATM   12  C   UNK N   1      35.196  13.020  19.218  0.00  0.00     0.002 A 
HETATM   13  C   UNK N   1      35.068  13.508  17.918  0.00  0.00     0.029 A 
ENDBRANCH   1   8
TORSDOF 3
ENDMDL
MODEL 2
REMARK VINA RESULT:      -4.4     12.760     14.778
REMARK  3 active torsions:
REMARK  status: ('A' for Active; 'I' for Inactive)
REMARK    1  A    between atoms: N_1  and  C_2 
REMARK    2  A    between atoms: C_2  and  N_4 
REMARK    3  A    between atoms: N_4  and  C_5 
ROOT
HETATM    1  N   UNK N   1      27.630  19.366   8.225  0.00  0.00    -0.334 N 
HETATM    2  H   UNK N   1      27.210  20.058   8.784  0.00  0.00     0.168 HD
ENDROOT
BRANCH   1   3
HETATM    3  C   UNK N   1      28.245  18.284   8.942  0.00  0.00     0.169 C 
HETATM    4  S   UNK N   1      29.528  18.415   9.587  0.00  0.00    -0.041 SA
BRANCH   3   5
HETATM    5  N   UNK N   1      27.561  17.059   9.045  0.00  0.00    -0.376 N 
HETATM    6  H   UNK N   1      27.314  16.706   9.930  0.00  0.00     0.158 HD
HETATM    7  H   UNK N   1      27.329  16.554   8.232  0.00  0.00     0.158 HD
ENDBRANCH   3   5
ENDBRANCH   1   3
BRANCH   1   8
HETATM    8  C   UNK N   1      27.540  19.580   6.818  0.00  0.00     0.034 A 
HETATM    9  C   UNK N   1      28.182  18.686   5.953  0.00  0.00     0.029 A 
HETATM   10  C   UNK N   1      28.120  18.868   4.568  0.00  0.00     0.002 A 
HETATM   11  C   UNK N   1      27.414  19.951   4.035  0.00  0.00     0.000 A 
HETATM   12  C   UNK N   1      26.770  20.848   4.887  0.00  0.00     0.002 A 
HETATM   13  C   UNK N   1      26.835  20.665   6.268  0.00  0.00     0.029 A 
ENDBRANCH   1   8
TORSDOF 3
ENDMDL
MODEL 3
REMARK VINA RESULT:      -4.4     26.437     27.563
REMARK  3 active torsions:
REMARK  status: ('A' for Active; 'I' for Inactive)
REMARK    1  A    between atoms: N_1  and  C_2 
REMARK    2  A    between atoms: C_2  and  N_4 
REMARK    3  A    between atoms: N_4  and  C_5 
ROOT
HETATM    1  N   UNK N   1      25.955  28.648  -3.193  0.00  0.00    -0.334 N 
HETATM    2  H   UNK N   1      25.475  28.656  -2.335  0.00  0.00     0.168 HD
ENDROOT
BRANCH   1   3
HETATM    3  C   UNK N   1      26.667  29.855  -3.511  0.00  0.00     0.169 C 
HETATM    4  S   UNK N   1      28.087  29.872  -3.763  0.00  0.00    -0.041 SA
BRANCH   3   5
HETATM    5  N   UNK N   1      25.951  31.062  -3.608  0.00  0.00    -0.376 N 
HETATM    6  H   UNK N   1      25.593  31.490  -2.797  0.00  0.00     0.158 HD
HETATM    7  H   UNK N   1      25.807  31.480  -4.488  0.00  0.00     0.158 HD
ENDBRANCH   3   5
ENDBRANCH   1   3
BRANCH   1   8
HETATM    8  C   UNK N   1      25.846  27.441  -3.943  0.00  0.00     0.034 A 
HETATM    9  C   UNK N   1      26.386  26.262  -3.413  0.00  0.00     0.029 A 
HETATM   10  C   UNK N   1      26.302  25.060  -4.123  0.00  0.00     0.002 A 
HETATM   11  C   UNK N   1      25.677  25.027  -5.373  0.00  0.00     0.000 A 
HETATM   12  C   UNK N   1      25.135  26.195  -5.911  0.00  0.00     0.002 A 
HETATM   13  C   UNK N   1      25.222  27.392  -5.202  0.00  0.00     0.029 A 
ENDBRANCH   1   8
TORSDOF 3
ENDMDL
MODEL 4
REMARK VINA RESULT:      -4.2     26.365     27.453
REMARK  3 active torsions:
REMARK  status: ('A' for Active; 'I' for Inactive)
REMARK    1  A    between atoms: N_1  and  C_2 
REMARK    2  A    between atoms: C_2  and  N_4 
REMARK    3  A    between atoms: N_4  and  C_5 
ROOT
HETATM    1  N   UNK N   1      25.499  24.630  -6.747  0.00  0.00    -0.334 N 
HETATM    2  H   UNK N   1      25.068  24.992  -7.555  0.00  0.00     0.168 HD
ENDROOT
BRANCH   1   3
HETATM    3  C   UNK N   1      25.888  23.250  -6.825  0.00  0.00     0.169 C 
HETATM    4  S   UNK N   1      27.237  22.843  -7.132  0.00  0.00    -0.041 SA
BRANCH   3   5
HETATM    5  N   UNK N   1      24.927  22.255  -6.564  0.00  0.00    -0.376 N 
HETATM    6  H   UNK N   1      25.130  21.312  -6.760  0.00  0.00     0.158 HD
HETATM    7  H   UNK N   1      24.053  22.502  -6.185  0.00  0.00     0.158 HD
ENDBRANCH   3   5
ENDBRANCH   1   3
BRANCH   1   8
HETATM    8  C   UNK N   1      25.646  25.550  -5.669  0.00  0.00     0.034 A 
HETATM    9  C   UNK N   1      25.119  26.841  -5.801  0.00  0.00     0.029 A 
HETATM   10  C   UNK N   1      25.250  27.772  -4.765  0.00  0.00     0.002 A 
HETATM   11  C   UNK N   1      25.912  27.419  -3.586  0.00  0.00     0.000 A 
HETATM   12  C   UNK N   1      26.441  26.135  -3.442  0.00  0.00     0.002 A 
HETATM   13  C   UNK N   1      26.310  25.210  -4.477  0.00  0.00     0.029 A 
ENDBRANCH   1   8
TORSDOF 3
ENDMDL
MODEL 5
REMARK VINA RESULT:      -4.2     11.327     12.162
REMARK  3 active torsions:
REMARK  status: ('A' for Active; 'I' for Inactive)
REMARK    1  A    between atoms: N_1  and  C_2 
REMARK    2  A    between atoms: C_2  and  N_4 
REMARK    3  A    between atoms: N_4  and  C_5 
ROOT
HETATM    1  N   UNK N   1      29.386  17.226   7.704  0.00  0.00    -0.334 N 
HETATM    2  H   UNK N   1      29.074  16.294   7.752  0.00  0.00     0.168 HD
ENDROOT
BRANCH   1   3
HETATM    3  C   UNK N   1      28.372  18.225   7.893  0.00  0.00     0.169 C 
HETATM    4  S   UNK N   1      27.945  19.104   6.832  0.00  0.00    -0.041 SA
BRANCH   3   5
HETATM    5  N   UNK N   1      27.749  18.334   9.150  0.00  0.00    -0.376 N 
HETATM    6  H   UNK N   1      27.473  19.217   9.489  0.00  0.00     0.158 HD
HETATM    7  H   UNK N   1      27.588  17.527   9.692  0.00  0.00     0.158 HD
ENDBRANCH   3   5
ENDBRANCH   1   3
BRANCH   1   8
HETATM    8  C   UNK N   1      30.780  17.391   7.457  0.00  0.00     0.034 A 
HETATM    9  C   UNK N   1      31.293  17.041   6.202  0.00  0.00     0.029 A 
HETATM   10  C   UNK N   1      32.657  17.185   5.926  0.00  0.00     0.002 A 
HETATM   11  C   UNK N   1      33.521  17.680   6.906  0.00  0.00     0.000 A 
HETATM   12  C   UNK N   1      33.022  18.033   8.161  0.00  0.00     0.002 A 
HETATM   13  C   UNK N   1      31.662  17.887   8.434  0.00  0.00     0.029 A 
ENDBRANCH   1   8
TORSDOF 3
ENDMDL
MODEL 6
REMARK VINA RESULT:      -4.1     12.063     13.388
REMARK  3 active torsions:
REMARK  status: ('A' for Active; 'I' for Inactive)
REMARK    1  A    between atoms: N_1  and  C_2 
REMARK    2  A    between atoms: C_2  and  N_4 
REMARK    3  A    between atoms: N_4  and  C_5 
ROOT
HETATM    1  N   UNK N   1      27.197  19.143   6.999  0.00  0.00    -0.334 N 
HETATM    2  H   UNK N   1      26.579  18.546   6.521  0.00  0.00     0.168 HD
ENDROOT
BRANCH   1   3
HETATM    3  C   UNK N   1      26.817  20.527   7.029  0.00  0.00     0.169 C 
HETATM    4  S   UNK N   1      27.289  21.480   6.055  0.00  0.00    -0.041 SA
BRANCH   3   5
HETATM    5  N   UNK N   1      25.929  20.969   8.028  0.00  0.00    -0.376 N 
HETATM    6  H   UNK N   1      25.424  21.805   7.904  0.00  0.00     0.158 HD
HETATM    7  H   UNK N   1      25.812  20.441   8.851  0.00  0.00     0.158 HD
ENDBRANCH   3   5
ENDBRANCH   1   3
BRANCH   1   8
HETATM    8  C   UNK N   1      28.342  18.509   7.564  0.00  0.00     0.034 A 
HETATM    9  C   UNK N   1      28.572  18.624   8.941  0.00  0.00     0.029 A 
HETATM   10  C   UNK N   1      29.688  18.019   9.528  0.00  0.00     0.002 A 
HETATM   11  C   UNK N   1      30.587  17.294   8.741  0.00  0.00     0.000 A 
HETATM   12  C   UNK N   1      30.369  17.173   7.368  0.00  0.00     0.002 A 
HETATM   13  C   UNK N   1      29.257  17.778   6.785  0.00  0.00     0.029 A 
ENDBRANCH   1   8
TORSDOF 3
ENDMDL
MODEL 7
REMARK VINA RESULT:      -4.1      8.463     11.005
REMARK  3 active torsions:
REMARK  status: ('A' for Active; 'I' for Inactive)
REMARK    1  A    between atoms: N_1  and  C_2 
REMARK    2  A    between atoms: C_2  and  N_4 
REMARK    3  A    between atoms: N_4  and  C_5 
ROOT
HETATM    1  N   UNK N   1      33.495  17.495   9.083  0.00  0.00    -0.334 N 
HETATM    2  H   UNK N   1      33.220  18.288   9.598  0.00  0.00     0.168 HD
ENDROOT
BRANCH   1   3
HETATM    3  C   UNK N   1      34.347  16.574   9.781  0.00  0.00     0.169 C 
HETATM    4  S   UNK N   1      34.404  15.171   9.452  0.00  0.00    -0.041 SA
BRANCH   3   5
HETATM    5  N   UNK N   1      35.181  17.059  10.806  0.00  0.00    -0.376 N 
HETATM    6  H   UNK N   1      35.961  16.534  11.097  0.00  0.00     0.158 HD
HETATM    7  H   UNK N   1      34.984  17.924  11.234  0.00  0.00     0.158 HD
ENDBRANCH   3   5
ENDBRANCH   1   3
BRANCH   1   8
HETATM    8  C   UNK N   1      32.991  17.427   7.752  0.00  0.00     0.034 A 
HETATM    9  C   UNK N   1      31.627  17.176   7.554  0.00  0.00     0.029 A 
HETATM   10  C   UNK N   1      31.099  17.097   6.262  0.00  0.00     0.002 A 
HETATM   11  C   UNK N   1      31.932  17.267   5.153  0.00  0.00     0.000 A 
HETATM   12  C   UNK N   1      33.292  17.518   5.337  0.00  0.00     0.002 A 
HETATM   13  C   UNK N   1      33.817  17.595   6.626  0.00  0.00     0.029 A 
ENDBRANCH   1   8
TORSDOF 3
ENDMDL
MODEL 8
REMARK VINA RESULT:      -4.1      9.382     11.082
REMARK  3 active torsions:
REMARK  status: ('A' for Active; 'I' for Inactive)
REMARK    1  A    between atoms: N_1  and  C_2 
REMARK    2  A    between atoms: C_2  and  N_4 
REMARK    3  A    between atoms: N_4  and  C_5 
ROOT
HETATM    1  N   UNK N   1      32.216  16.706   8.944  0.00  0.00    -0.334 N 
HETATM    2  H   UNK N   1      32.128  15.816   9.356  0.00  0.00     0.168 HD
ENDROOT
BRANCH   1   3
HETATM    3  C   UNK N   1      33.543  17.256   8.949  0.00  0.00     0.169 C 
HETATM    4  S   UNK N   1      34.025  18.122   7.901  0.00  0.00    -0.041 SA
BRANCH   3   5
HETATM    5  N   UNK N   1      34.397  16.965  10.028  0.00  0.00    -0.376 N 
HETATM    6  H   UNK N   1      34.267  17.414  10.895  0.00  0.00     0.158 HD
HETATM    7  H   UNK N   1      35.126  16.312   9.917  0.00  0.00     0.158 HD
ENDBRANCH   3   5
ENDBRANCH   1   3
BRANCH   1   8
HETATM    8  C   UNK N   1      31.010  17.262   8.427  0.00  0.00     0.034 A 
HETATM    9  C   UNK N   1      30.527  16.809   7.193  0.00  0.00     0.029 A 
HETATM   10  C   UNK N   1      29.349  17.336   6.654  0.00  0.00     0.002 A 
HETATM   11  C   UNK N   1      28.644  18.325   7.345  0.00  0.00     0.000 A 
HETATM   12  C   UNK N   1      29.115  18.785   8.575  0.00  0.00     0.002 A 
HETATM   13  C   UNK N   1      30.290  18.258   9.110  0.00  0.00     0.029 A 
ENDBRANCH   1   8
TORSDOF 3
ENDMDL
MODEL 9
REMARK VINA RESULT:      -4.1     26.227     27.336
REMARK  3 active torsions:
REMARK  status: ('A' for Active; 'I' for Inactive)
REMARK    1  A    between atoms: N_1  and  C_2 
REMARK    2  A    between atoms: C_2  and  N_4 
REMARK    3  A    between atoms: N_4  and  C_5 
ROOT
HETATM    1  N   UNK N   1      25.533  24.499  -6.807  0.00  0.00    -0.334 N 
HETATM    2  H   UNK N   1      25.165  24.898  -7.627  0.00  0.00     0.168 HD
ENDROOT
BRANCH   1   3
HETATM    3  C   UNK N   1      25.823  23.094  -6.883  0.00  0.00     0.169 C 
HETATM    4  S   UNK N   1      27.088  22.590  -7.358  0.00  0.00    -0.041 SA
BRANCH   3   5
HETATM    5  N   UNK N   1      24.850  22.173  -6.453  0.00  0.00    -0.376 N 
HETATM    6  H   UNK N   1      24.965  21.213  -6.638  0.00  0.00     0.158 HD
HETATM    7  H   UNK N   1      24.054  22.489  -5.966  0.00  0.00     0.158 HD
ENDBRANCH   3   5
ENDBRANCH   1   3
BRANCH   1   8
HETATM    8  C   UNK N   1      25.703  25.397  -5.714  0.00  0.00     0.034 A 
HETATM    9  C   UNK N   1      26.329  24.937  -4.548  0.00  0.00     0.029 A 
HETATM   10  C   UNK N   1      26.508  25.789  -3.454  0.00  0.00     0.002 A 
HETATM   11  C   UNK N   1      26.061  27.112  -3.515  0.00  0.00     0.000 A 
HETATM   12  C   UNK N   1      25.437  27.582  -4.671  0.00  0.00     0.002 A 
HETATM   13  C   UNK N   1      25.258  26.730  -5.761  0.00  0.00     0.029 A 
ENDBRANCH   1   8
TORSDOF 3
ENDMDL
