MODEL 1
REMARK VINA RESULT:      -5.3      0.000      0.000
REMARK  11 active torsions:
REMARK  status: ('A' for Active; 'I' for Inactive)
REMARK    1  A    between atoms: C_2  and  N_3 
REMARK    2  A    between atoms: C_2  and  C_4 
REMARK    3  A    between atoms: C_4  and  C_5 
REMARK    4  A    between atoms: C_4  and  N_13 
REMARK    5  A    between atoms: C_5  and  C_6 
REMARK    6  A    between atoms: C_6  and  C_7 
REMARK    7  A    between atoms: C_7  and  C_8 
REMARK    8  A    between atoms: C_8  and  C_9 
REMARK    9  A    between atoms: C_9  and  C_10 
REMARK   10  A    between atoms: C_10  and  O_11 
REMARK       I    between atoms: N_13  and  C_14 
REMARK   11  A    between atoms: C_14  and  O_15 
ROOT
HETATM    1  C   UNK N   1      20.727  16.099   8.180  0.00  0.00     0.109 C 
ENDROOT
BRANCH   1   2
HETATM    2  C   UNK N   1      21.082  16.471   6.726  0.00  0.00     0.092 C 
HETATM    3  C   UNK N   1      19.981  16.079   5.757  0.00  0.00     0.033 C 
BRANCH   2   4
HETATM    4  N   UNK N   1      21.319  17.898   6.590  0.00  0.00    -0.424 N 
HETATM    5  H   UNK N   1      22.066  18.274   6.006  0.00  0.00     0.150 HD
HETATM    6  H   UNK N   1      20.717  18.547   7.097  0.00  0.00     0.150 HD
ENDBRANCH   2   4
ENDBRANCH   1   2
BRANCH   1   7
HETATM    7  C   UNK N   1      20.751  14.584   8.354  0.00  0.00     0.027 C 
BRANCH   7   8
HETATM    8  C   UNK N   1      21.243  14.217   9.743  0.00  0.00     0.002 C 
BRANCH   8   9
HETATM    9  C   UNK N   1      20.659  12.888  10.182  0.00  0.00     0.001 C 
BRANCH   9  10
HETATM   10  C   UNK N   1      21.491  12.331  11.319  0.00  0.00     0.010 C 
BRANCH  10  11
HETATM   11  C   UNK N   1      22.864  11.938  10.800  0.00  0.00     0.110 C 
BRANCH  11  12
HETATM   12  C   UNK N   1      23.941  12.126  11.830  0.00  0.00     0.139 C 
HETATM   13  O   UNK N   1      23.696  12.026  13.023  0.00  0.00    -0.650 OA
BRANCH  12  14
HETATM   14  O   UNK N   1      25.199  12.390  11.431  0.00  0.00    -0.776 OA
HETATM   15  H   UNK N   1      25.657  11.780  10.888  0.00  0.00     0.167 HD
ENDBRANCH  12  14
ENDBRANCH  11  12
ENDBRANCH  10  11
ENDBRANCH   9  10
ENDBRANCH   8   9
ENDBRANCH   7   8
ENDBRANCH   1   7
BRANCH   1  16
HETATM   16  N   UNK N   1      19.392  16.551   8.516  0.00  0.00    -0.331 N 
HETATM   17  C   UNK N   1      19.124  17.758   9.073  0.00  0.00     0.250 C 
HETATM   18  O   UNK N   1      20.019  18.550   9.319  0.00  0.00    -0.632 OA
HETATM   19  H   UNK N   1      18.637  15.949   8.328  0.00  0.00     0.165 HD
BRANCH  17  20
HETATM   20  O   UNK N   1      17.851  18.081   9.369  0.00  0.00    -0.760 OA
HETATM   21  H   UNK N   1      17.486  18.138  10.230  0.00  0.00     0.169 HD
ENDBRANCH  17  20
ENDBRANCH   1  16
TORSDOF 11
ENDMDL
MODEL 2
REMARK VINA RESULT:      -5.0     12.023     13.703
REMARK  11 active torsions:
REMARK  status: ('A' for Active; 'I' for Inactive)
REMARK    1  A    between atoms: C_2  and  N_3 
REMARK    2  A    between atoms: C_2  and  C_4 
REMARK    3  A    between atoms: C_4  and  C_5 
REMARK    4  A    between atoms: C_4  and  N_13 
REMARK    5  A    between atoms: C_5  and  C_6 
REMARK    6  A    between atoms: C_6  and  C_7 
REMARK    7  A    between atoms: C_7  and  C_8 
REMARK    8  A    between atoms: C_8  and  C_9 
REMARK    9  A    between atoms: C_9  and  C_10 
REMARK   10  A    between atoms: C_10  and  O_11 
REMARK       I    between atoms: N_13  and  C_14 
REMARK   11  A    between atoms: C_14  and  O_15 
ROOT
HETATM    1  C   UNK N   1      34.008  16.006   9.110  0.00  0.00     0.109 C 
ENDROOT
BRANCH   1   2
HETATM    2  C   UNK N   1      32.478  15.940   8.928  0.00  0.00     0.092 C 
HETATM    3  C   UNK N   1      32.089  15.182   7.672  0.00  0.00     0.033 C 
BRANCH   2   4
HETATM    4  N   UNK N   1      31.839  15.296  10.063  0.00  0.00    -0.424 N 
HETATM    5  H   UNK N   1      31.230  15.801  10.706  0.00  0.00     0.150 HD
HETATM    6  H   UNK N   1      32.005  14.302  10.222  0.00  0.00     0.150 HD
ENDBRANCH   2   4
ENDBRANCH   1   2
BRANCH   1   7
HETATM    7  C   UNK N   1      34.419  15.246  10.368  0.00  0.00     0.027 C 
BRANCH   7   8
HETATM    8  C   UNK N   1      35.558  15.962  11.071  0.00  0.00     0.002 C 
BRANCH   8   9
HETATM    9  C   UNK N   1      35.995  15.188  12.300  0.00  0.00     0.001 C 
BRANCH   9  10
HETATM   10  C   UNK N   1      35.135  13.948  12.439  0.00  0.00     0.010 C 
BRANCH  10  11
HETATM   11  C   UNK N   1      35.821  12.954  13.363  0.00  0.00     0.110 C 
BRANCH  11  12
HETATM   12  C   UNK N   1      35.514  13.212  14.810  0.00  0.00     0.139 C 
HETATM   13  O   UNK N   1      36.364  13.659  15.565  0.00  0.00    -0.650 OA
BRANCH  12  14
HETATM   14  O   UNK N   1      34.276  12.963  15.278  0.00  0.00    -0.776 OA
HETATM   15  H   UNK N   1      33.804  13.630  15.735  0.00  0.00     0.167 HD
ENDBRANCH  12  14
ENDBRANCH  11  12
ENDBRANCH  10  11
ENDBRANCH   9  10
ENDBRANCH   8   9
ENDBRANCH   7   8
ENDBRANCH   1   7
BRANCH   1  16
HETATM   16  N   UNK N   1      34.448  17.377   9.271  0.00  0.00    -0.331 N 
HETATM   17  C   UNK N   1      34.695  18.214   8.233  0.00  0.00     0.250 C 
HETATM   18  O   UNK N   1      34.545  17.847   7.080  0.00  0.00    -0.632 OA
HETATM   19  H   UNK N   1      34.575  17.720  10.185  0.00  0.00     0.165 HD
BRANCH  17  20
HETATM   20  O   UNK N   1      35.122  19.467   8.482  0.00  0.00    -0.760 OA
HETATM   21  H   UNK N   1      35.580  19.747   9.250  0.00  0.00     0.169 HD
ENDBRANCH  17  20
ENDBRANCH   1  16
TORSDOF 11
ENDMDL
MODEL 3
REMARK VINA RESULT:      -4.9      8.927     10.042
REMARK  11 active torsions:
REMARK  status: ('A' for Active; 'I' for Inactive)
REMARK    1  A    between atoms: C_2  and  N_3 
REMARK    2  A    between atoms: C_2  and  C_4 
REMARK    3  A    between atoms: C_4  and  C_5 
REMARK    4  A    between atoms: C_4  and  N_13 
REMARK    5  A    between atoms: C_5  and  C_6 
REMARK    6  A    between atoms: C_6  and  C_7 
REMARK    7  A    between atoms: C_7  and  C_8 
REMARK    8  A    between atoms: C_8  and  C_9 
REMARK    9  A    between atoms: C_9  and  C_10 
REMARK   10  A    between atoms: C_10  and  O_11 
REMARK       I    between atoms: N_13  and  C_14 
REMARK   11  A    between atoms: C_14  and  O_15 
ROOT
HETATM    1  C   UNK N   1      28.196  19.105   6.036  0.00  0.00     0.109 C 
ENDROOT
BRANCH   1   2
HETATM    2  C   UNK N   1      27.280  20.103   5.299  0.00  0.00     0.092 C 
HETATM    3  C   UNK N   1      27.163  19.781   3.821  0.00  0.00     0.033 C 
BRANCH   2   4
HETATM    4  N   UNK N   1      25.942  20.111   5.869  0.00  0.00    -0.424 N 
HETATM    5  H   UNK N   1      25.308  20.902   5.761  0.00  0.00     0.150 HD
HETATM    6  H   UNK N   1      25.628  19.296   6.395  0.00  0.00     0.150 HD
ENDBRANCH   2   4
ENDBRANCH   1   2
BRANCH   1   7
HETATM    7  C   UNK N   1      28.484  17.902   5.143  0.00  0.00     0.027 C 
BRANCH   7   8
HETATM    8  C   UNK N   1      29.949  17.515   5.231  0.00  0.00     0.002 C 
BRANCH   8   9
HETATM    9  C   UNK N   1      30.130  16.317   6.143  0.00  0.00     0.001 C 
BRANCH   9  10
HETATM   10  C   UNK N   1      31.611  16.064   6.343  0.00  0.00     0.010 C 
BRANCH  10  11
HETATM   11  C   UNK N   1      32.243  17.261   7.036  0.00  0.00     0.110 C 
BRANCH  11  12
HETATM   12  C   UNK N   1      33.531  17.683   6.388  0.00  0.00     0.139 C 
HETATM   13  O   UNK N   1      34.545  17.846   7.050  0.00  0.00    -0.650 OA
BRANCH  12  14
HETATM   14  O   UNK N   1      33.571  17.867   5.056  0.00  0.00    -0.776 OA
HETATM   15  H   UNK N   1      32.952  17.433   4.502  0.00  0.00     0.167 HD
ENDBRANCH  12  14
ENDBRANCH  11  12
ENDBRANCH  10  11
ENDBRANCH   9  10
ENDBRANCH   8   9
ENDBRANCH   7   8
ENDBRANCH   1   7
BRANCH   1  16
HETATM   16  N   UNK N   1      27.554  18.609   7.236  0.00  0.00    -0.331 N 
HETATM   17  C   UNK N   1      28.184  18.490   8.432  0.00  0.00     0.250 C 
HETATM   18  O   UNK N   1      29.353  18.811   8.561  0.00  0.00    -0.632 OA
HETATM   19  H   UNK N   1      26.608  18.344   7.182  0.00  0.00     0.165 HD
BRANCH  17  20
HETATM   20  O   UNK N   1      27.509  17.996   9.488  0.00  0.00    -0.760 OA
HETATM   21  H   UNK N   1      26.586  17.839   9.523  0.00  0.00     0.169 HD
ENDBRANCH  17  20
ENDBRANCH   1  16
TORSDOF 11
ENDMDL
MODEL 4
REMARK VINA RESULT:      -4.8      9.371     10.446
REMARK  11 active torsions:
REMARK  status: ('A' for Active; 'I' for Inactive)
REMARK    1  A    between atoms: C_2  and  N_3 
REMARK    2  A    between atoms: C_2  and  C_4 
REMARK    3  A    between atoms: C_4  and  C_5 
REMARK    4  A    between atoms: C_4  and  N_13 
REMARK    5  A    between atoms: C_5  and  C_6 
REMARK    6  A    between atoms: C_6  and  C_7 
REMARK    7  A    between atoms: C_7  and  C_8 
REMARK    8  A    between atoms: C_8  and  C_9 
REMARK    9  A    between atoms: C_9  and  C_10 
REMARK   10  A    between atoms: C_10  and  O_11 
REMARK       I    between atoms: N_13  and  C_14 
REMARK   11  A    between atoms: C_14  and  O_15 
ROOT
HETATM    1  C   UNK N   1      28.726  17.163   7.468  0.00  0.00     0.109 C 
ENDROOT
BRANCH   1   2
HETATM    2  C   UNK N   1      28.775  17.684   8.919  0.00  0.00     0.092 C 
HETATM    3  C   UNK N   1      30.004  18.537   9.173  0.00  0.00     0.033 C 
BRANCH   2   4
HETATM    4  N   UNK N   1      27.599  18.477   9.234  0.00  0.00    -0.424 N 
HETATM    5  H   UNK N   1      27.643  19.486   9.380  0.00  0.00     0.150 HD
HETATM    6  H   UNK N   1      26.697  18.008   9.313  0.00  0.00     0.150 HD
ENDBRANCH   2   4
ENDBRANCH   1   2
BRANCH   1   7
HETATM    7  C   UNK N   1      29.982  17.593   6.715  0.00  0.00     0.027 C 
BRANCH   7   8
HETATM    8  C   UNK N   1      30.561  16.423   5.940  0.00  0.00     0.002 C 
BRANCH   8   9
HETATM    9  C   UNK N   1      32.067  16.557   5.820  0.00  0.00     0.001 C 
BRANCH   9  10
HETATM   10  C   UNK N   1      32.649  16.864   7.185  0.00  0.00     0.010 C 
BRANCH  10  11
HETATM   11  C   UNK N   1      33.781  17.868   7.041  0.00  0.00     0.110 C 
BRANCH  11  12
HETATM   12  C   UNK N   1      34.409  18.216   8.361  0.00  0.00     0.139 C 
HETATM   13  O   UNK N   1      35.242  19.105   8.448  0.00  0.00    -0.650 OA
BRANCH  12  14
HETATM   14  O   UNK N   1      34.033  17.548   9.468  0.00  0.00    -0.776 OA
HETATM   15  H   UNK N   1      33.137  17.559   9.741  0.00  0.00     0.167 HD
ENDBRANCH  12  14
ENDBRANCH  11  12
ENDBRANCH  10  11
ENDBRANCH   9  10
ENDBRANCH   8   9
ENDBRANCH   7   8
ENDBRANCH   1   7
BRANCH   1  16
HETATM   16  N   UNK N   1      27.588  17.716   6.762  0.00  0.00    -0.331 N 
HETATM   17  C   UNK N   1      26.710  16.969   6.048  0.00  0.00     0.250 C 
HETATM   18  O   UNK N   1      26.833  15.758   5.970  0.00  0.00    -0.632 OA
HETATM   19  H   UNK N   1      27.444  18.689   6.803  0.00  0.00     0.165 HD
BRANCH  17  20
HETATM   20  O   UNK N   1      25.694  17.577   5.407  0.00  0.00    -0.760 OA
HETATM   21  H   UNK N   1      24.834  17.225   5.285  0.00  0.00     0.169 HD
ENDBRANCH  17  20
ENDBRANCH   1  16
TORSDOF 11
ENDMDL
MODEL 5
REMARK VINA RESULT:      -4.8     10.634     12.518
REMARK  11 active torsions:
REMARK  status: ('A' for Active; 'I' for Inactive)
REMARK    1  A    between atoms: C_2  and  N_3 
REMARK    2  A    between atoms: C_2  and  C_4 
REMARK    3  A    between atoms: C_4  and  C_5 
REMARK    4  A    between atoms: C_4  and  N_13 
REMARK    5  A    between atoms: C_5  and  C_6 
REMARK    6  A    between atoms: C_6  and  C_7 
REMARK    7  A    between atoms: C_7  and  C_8 
REMARK    8  A    between atoms: C_8  and  C_9 
REMARK    9  A    between atoms: C_9  and  C_10 
REMARK   10  A    between atoms: C_10  and  O_11 
REMARK       I    between atoms: N_13  and  C_14 
REMARK   11  A    between atoms: C_14  and  O_15 
ROOT
HETATM    1  C   UNK N   1      33.684  15.992   8.486  0.00  0.00     0.109 C 
ENDROOT
BRANCH   1   2
HETATM    2  C   UNK N   1      34.793  15.099   7.895  0.00  0.00     0.092 C 
HETATM    3  C   UNK N   1      34.718  13.678   8.423  0.00  0.00     0.033 C 
BRANCH   2   4
HETATM    4  N   UNK N   1      34.714  15.049   6.445  0.00  0.00    -0.424 N 
HETATM    5  H   UNK N   1      34.050  14.450   5.954  0.00  0.00     0.150 HD
HETATM    6  H   UNK N   1      35.345  15.634   5.898  0.00  0.00     0.150 HD
ENDBRANCH   2   4
ENDBRANCH   1   2
BRANCH   1   7
HETATM    7  C   UNK N   1      32.624  16.280   7.428  0.00  0.00     0.027 C 
BRANCH   7   8
HETATM    8  C   UNK N   1      31.245  16.329   8.059  0.00  0.00     0.002 C 
BRANCH   8   9
HETATM    9  C   UNK N   1      30.531  17.613   7.682  0.00  0.00     0.001 C 
BRANCH   9  10
HETATM   10  C   UNK N   1      30.505  18.537   8.883  0.00  0.00     0.010 C 
BRANCH  10  11
HETATM   11  C   UNK N   1      29.493  18.028   9.896  0.00  0.00     0.110 C 
BRANCH  11  12
HETATM   12  C   UNK N   1      28.108  17.929   9.322  0.00  0.00     0.139 C 
HETATM   13  O   UNK N   1      27.472  16.887   9.386  0.00  0.00    -0.650 OA
BRANCH  12  14
HETATM   14  O   UNK N   1      27.554  19.010   8.744  0.00  0.00    -0.776 OA
HETATM   15  H   UNK N   1      26.681  18.967   8.406  0.00  0.00     0.167 HD
ENDBRANCH  12  14
ENDBRANCH  11  12
ENDBRANCH  10  11
ENDBRANCH   9  10
ENDBRANCH   8   9
ENDBRANCH   7   8
ENDBRANCH   1   7
BRANCH   1  16
HETATM   16  N   UNK N   1      34.224  17.267   8.914  0.00  0.00    -0.331 N 
HETATM   17  C   UNK N   1      34.619  18.243   8.059  0.00  0.00     0.250 C 
HETATM   18  O   UNK N   1      34.528  18.095   6.851  0.00  0.00    -0.632 OA
HETATM   19  H   UNK N   1      34.309  17.434   9.880  0.00  0.00     0.165 HD
BRANCH  17  20
HETATM   20  O   UNK N   1      35.130  19.387   8.552  0.00  0.00    -0.760 OA
HETATM   21  H   UNK N   1      36.035  19.628   8.552  0.00  0.00     0.169 HD
ENDBRANCH  17  20
ENDBRANCH   1  16
TORSDOF 11
ENDMDL
MODEL 6
REMARK VINA RESULT:      -4.8     16.566     19.303
REMARK  11 active torsions:
REMARK  status: ('A' for Active; 'I' for Inactive)
REMARK    1  A    between atoms: C_2  and  N_3 
REMARK    2  A    between atoms: C_2  and  C_4 
REMARK    3  A    between atoms: C_4  and  C_5 
REMARK    4  A    between atoms: C_4  and  N_13 
REMARK    5  A    between atoms: C_5  and  C_6 
REMARK    6  A    between atoms: C_6  and  C_7 
REMARK    7  A    between atoms: C_7  and  C_8 
REMARK    8  A    between atoms: C_8  and  C_9 
REMARK    9  A    between atoms: C_9  and  C_10 
REMARK   10  A    between atoms: C_10  and  O_11 
REMARK       I    between atoms: N_13  and  C_14 
REMARK   11  A    between atoms: C_14  and  O_15 
ROOT
HETATM    1  C   UNK N   1      28.282  23.797  -4.352  0.00  0.00     0.109 C 
ENDROOT
BRANCH   1   2
HETATM    2  C   UNK N   1      28.602  23.285  -5.771  0.00  0.00     0.092 C 
HETATM    3  C   UNK N   1      29.514  22.072  -5.743  0.00  0.00     0.033 C 
BRANCH   2   4
HETATM    4  N   UNK N   1      27.390  22.924  -6.488  0.00  0.00    -0.424 N 
HETATM    5  H   UNK N   1      26.906  23.576  -7.105  0.00  0.00     0.150 HD
HETATM    6  H   UNK N   1      27.010  21.985  -6.369  0.00  0.00     0.150 HD
ENDBRANCH   2   4
ENDBRANCH   1   2
BRANCH   1   7
HETATM    7  C   UNK N   1      28.040  25.303  -4.381  0.00  0.00     0.027 C 
BRANCH   7   8
HETATM    8  C   UNK N   1      26.564  25.606  -4.203  0.00  0.00     0.002 C 
BRANCH   8   9
HETATM    9  C   UNK N   1      25.980  26.180  -5.480  0.00  0.00     0.001 C 
BRANCH   9  10
HETATM   10  C   UNK N   1      25.094  27.360  -5.136  0.00  0.00     0.010 C 
BRANCH  10  11
HETATM   11  C   UNK N   1      25.639  28.064  -3.904  0.00  0.00     0.110 C 
BRANCH  11  12
HETATM   12  C   UNK N   1      26.316  29.362  -4.239  0.00  0.00     0.139 C 
HETATM   13  O   UNK N   1      27.092  29.444  -5.180  0.00  0.00    -0.650 OA
BRANCH  12  14
HETATM   14  O   UNK N   1      26.050  30.455  -3.501  0.00  0.00    -0.776 OA
HETATM   15  H   UNK N   1      25.240  30.522  -3.036  0.00  0.00     0.167 HD
ENDBRANCH  12  14
ENDBRANCH  11  12
ENDBRANCH  10  11
ENDBRANCH   9  10
ENDBRANCH   8   9
ENDBRANCH   7   8
ENDBRANCH   1   7
BRANCH   1  16
HETATM   16  N   UNK N   1      29.394  23.555  -3.455  0.00  0.00    -0.331 N 
HETATM   17  C   UNK N   1      29.248  23.174  -2.161  0.00  0.00     0.250 C 
HETATM   18  O   UNK N   1      28.142  23.004  -1.677  0.00  0.00    -0.632 OA
HETATM   19  H   UNK N   1      30.306  23.672  -3.805  0.00  0.00     0.165 HD
BRANCH  17  20
HETATM   20  O   UNK N   1      30.344  22.994  -1.399  0.00  0.00    -0.760 OA
HETATM   21  H   UNK N   1      30.638  23.568  -0.719  0.00  0.00     0.169 HD
ENDBRANCH  17  20
ENDBRANCH   1  16
TORSDOF 11
ENDMDL
MODEL 7
REMARK VINA RESULT:      -4.8     17.392     19.647
REMARK  11 active torsions:
REMARK  status: ('A' for Active; 'I' for Inactive)
REMARK    1  A    between atoms: C_2  and  N_3 
REMARK    2  A    between atoms: C_2  and  C_4 
REMARK    3  A    between atoms: C_4  and  C_5 
REMARK    4  A    between atoms: C_4  and  N_13 
REMARK    5  A    between atoms: C_5  and  C_6 
REMARK    6  A    between atoms: C_6  and  C_7 
REMARK    7  A    between atoms: C_7  and  C_8 
REMARK    8  A    between atoms: C_8  and  C_9 
REMARK    9  A    between atoms: C_9  and  C_10 
REMARK   10  A    between atoms: C_10  and  O_11 
REMARK       I    between atoms: N_13  and  C_14 
REMARK   11  A    between atoms: C_14  and  O_15 
ROOT
HETATM    1  C   UNK N   1      26.596  27.343  -4.066  0.00  0.00     0.109 C 
ENDROOT
BRANCH   1   2
HETATM    2  C   UNK N   1      27.046  28.473  -3.118  0.00  0.00     0.092 C 
HETATM    3  C   UNK N   1      28.486  28.882  -3.369  0.00  0.00     0.033 C 
BRANCH   2   4
HETATM    4  N   UNK N   1      26.208  29.651  -3.266  0.00  0.00    -0.424 N 
HETATM    5  H   UNK N   1      25.507  29.733  -4.002  0.00  0.00     0.150 HD
HETATM    6  H   UNK N   1      26.324  30.422  -2.609  0.00  0.00     0.150 HD
ENDBRANCH   2   4
ENDBRANCH   1   2
BRANCH   1   7
HETATM    7  C   UNK N   1      25.297  27.732  -4.765  0.00  0.00     0.027 C 
BRANCH   7   8
HETATM    8  C   UNK N   1      25.052  26.836  -5.965  0.00  0.00     0.002 C 
BRANCH   8   9
HETATM    9  C   UNK N   1      26.236  26.877  -6.912  0.00  0.00     0.001 C 
BRANCH   9  10
HETATM   10  C   UNK N   1      26.046  25.831  -7.992  0.00  0.00     0.010 C 
BRANCH  10  11
HETATM   11  C   UNK N   1      26.531  24.482  -7.485  0.00  0.00     0.110 C 
BRANCH  11  12
HETATM   12  C   UNK N   1      25.444  23.446  -7.485  0.00  0.00     0.139 C 
HETATM   13  O   UNK N   1      25.283  22.701  -6.530  0.00  0.00    -0.650 OA
BRANCH  12  14
HETATM   14  O   UNK N   1      24.623  23.349  -8.548  0.00  0.00    -0.776 OA
HETATM   15  H   UNK N   1      23.813  22.884  -8.475  0.00  0.00     0.167 HD
ENDBRANCH  12  14
ENDBRANCH  11  12
ENDBRANCH  10  11
ENDBRANCH   9  10
ENDBRANCH   8   9
ENDBRANCH   7   8
ENDBRANCH   1   7
BRANCH   1  16
HETATM   16  N   UNK N   1      26.340  26.123  -3.326  0.00  0.00    -0.331 N 
HETATM   17  C   UNK N   1      27.053  24.981  -3.487  0.00  0.00     0.250 C 
HETATM   18  O   UNK N   1      27.979  24.925  -4.280  0.00  0.00    -0.632 OA
HETATM   19  H   UNK N   1      25.607  26.124  -2.669  0.00  0.00     0.165 HD
BRANCH  17  20
HETATM   20  O   UNK N   1      26.725  23.891  -2.769  0.00  0.00    -0.760 OA
HETATM   21  H   UNK N   1      27.320  23.358  -2.279  0.00  0.00     0.169 HD
ENDBRANCH  17  20
ENDBRANCH   1  16
TORSDOF 11
ENDMDL
MODEL 8
REMARK VINA RESULT:      -4.7      4.712      6.509
REMARK  11 active torsions:
REMARK  status: ('A' for Active; 'I' for Inactive)
REMARK    1  A    between atoms: C_2  and  N_3 
REMARK    2  A    between atoms: C_2  and  C_4 
REMARK    3  A    between atoms: C_4  and  C_5 
REMARK    4  A    between atoms: C_4  and  N_13 
REMARK    5  A    between atoms: C_5  and  C_6 
REMARK    6  A    between atoms: C_6  and  C_7 
REMARK    7  A    between atoms: C_7  and  C_8 
REMARK    8  A    between atoms: C_8  and  C_9 
REMARK    9  A    between atoms: C_9  and  C_10 
REMARK   10  A    between atoms: C_10  and  O_11 
REMARK       I    between atoms: N_13  and  C_14 
REMARK   11  A    between atoms: C_14  and  O_15 
ROOT
HETATM    1  C   UNK N   1      22.662  19.107   4.140  0.00  0.00     0.109 C 
ENDROOT
BRANCH   1   2
HETATM    2  C   UNK N   1      24.176  19.123   3.850  0.00  0.00     0.092 C 
HETATM    3  C   UNK N   1      24.597  20.374   3.101  0.00  0.00     0.033 C 
BRANCH   2   4
HETATM    4  N   UNK N   1      24.949  19.050   5.080  0.00  0.00    -0.424 N 
HETATM    5  H   UNK N   1      25.779  18.464   5.169  0.00  0.00     0.150 HD
HETATM    6  H   UNK N   1      24.650  19.605   5.881  0.00  0.00     0.150 HD
ENDBRANCH   2   4
ENDBRANCH   1   2
BRANCH   1   7
HETATM    7  C   UNK N   1      22.250  17.749   4.699  0.00  0.00     0.027 C 
BRANCH   7   8
HETATM    8  C   UNK N   1      21.584  17.914   6.053  0.00  0.00     0.002 C 
BRANCH   8   9
HETATM    9  C   UNK N   1      21.495  16.579   6.768  0.00  0.00     0.001 C 
BRANCH   9  10
HETATM   10  C   UNK N   1      20.070  16.361   7.237  0.00  0.00     0.010 C 
BRANCH  10  11
HETATM   11  C   UNK N   1      19.990  16.576   8.740  0.00  0.00     0.110 C 
BRANCH  11  12
HETATM   12  C   UNK N   1      19.258  17.837   9.100  0.00  0.00     0.139 C 
HETATM   13  O   UNK N   1      18.143  17.798   9.598  0.00  0.00    -0.650 OA
BRANCH  12  14
HETATM   14  O   UNK N   1      19.848  19.027   8.885  0.00  0.00    -0.776 OA
HETATM   15  H   UNK N   1      19.694  19.491   8.086  0.00  0.00     0.167 HD
ENDBRANCH  12  14
ENDBRANCH  11  12
ENDBRANCH  10  11
ENDBRANCH   9  10
ENDBRANCH   8   9
ENDBRANCH   7   8
ENDBRANCH   1   7
BRANCH   1  16
HETATM   16  N   UNK N   1      21.904  19.321   2.923  0.00  0.00    -0.331 N 
HETATM   17  C   UNK N   1      20.785  20.084   2.859  0.00  0.00     0.250 C 
HETATM   18  O   UNK N   1      20.352  20.651   3.848  0.00  0.00    -0.632 OA
HETATM   19  H   UNK N   1      22.220  18.890   2.098  0.00  0.00     0.165 HD
BRANCH  17  20
HETATM   20  O   UNK N   1      20.135  20.206   1.685  0.00  0.00    -0.760 OA
HETATM   21  H   UNK N   1      20.362  20.794   0.992  0.00  0.00     0.169 HD
ENDBRANCH  17  20
ENDBRANCH   1  16
TORSDOF 11
ENDMDL
MODEL 9
REMARK VINA RESULT:      -4.7     14.313     15.686
REMARK  11 active torsions:
REMARK  status: ('A' for Active; 'I' for Inactive)
REMARK    1  A    between atoms: C_2  and  N_3 
REMARK    2  A    between atoms: C_2  and  C_4 
REMARK    3  A    between atoms: C_4  and  C_5 
REMARK    4  A    between atoms: C_4  and  N_13 
REMARK    5  A    between atoms: C_5  and  C_6 
REMARK    6  A    between atoms: C_6  and  C_7 
REMARK    7  A    between atoms: C_7  and  C_8 
REMARK    8  A    between atoms: C_8  and  C_9 
REMARK    9  A    between atoms: C_9  and  C_10 
REMARK   10  A    between atoms: C_10  and  O_11 
REMARK       I    between atoms: N_13  and  C_14 
REMARK   11  A    between atoms: C_14  and  O_15 
ROOT
HETATM    1  C   UNK N   1      36.248  14.053  12.272  0.00  0.00     0.109 C 
ENDROOT
BRANCH   1   2
HETATM    2  C   UNK N   1      35.833  12.595  11.985  0.00  0.00     0.092 C 
HETATM    3  C   UNK N   1      34.894  12.497  10.798  0.00  0.00     0.033 C 
BRANCH   2   4
HETATM    4  N   UNK N   1      36.992  11.760  11.717  0.00  0.00    -0.424 N 
HETATM    5  H   UNK N   1      37.613  11.926  10.926  0.00  0.00     0.150 HD
HETATM    6  H   UNK N   1      37.191  10.980  12.344  0.00  0.00     0.150 HD
ENDBRANCH   2   4
ENDBRANCH   1   2
BRANCH   1   7
HETATM    7  C   UNK N   1      36.366  14.278  13.776  0.00  0.00     0.027 C 
BRANCH   7   8
HETATM    8  C   UNK N   1      35.423  13.355  14.525  0.00  0.00     0.002 C 
BRANCH   8   9
HETATM    9  C   UNK N   1      36.030  12.933  15.849  0.00  0.00     0.001 C 
BRANCH   9  10
HETATM   10  C   UNK N   1      34.963  12.980  16.924  0.00  0.00     0.010 C 
BRANCH  10  11
HETATM   11  C   UNK N   1      35.281  11.958  18.003  0.00  0.00     0.110 C 
BRANCH  11  12
HETATM   12  C   UNK N   1      35.312  12.567  19.376  0.00  0.00     0.139 C 
HETATM   13  O   UNK N   1      35.001  13.735  19.556  0.00  0.00    -0.650 OA
BRANCH  12  14
HETATM   14  O   UNK N   1      35.671  11.806  20.427  0.00  0.00    -0.776 OA
HETATM   15  H   UNK N   1      36.070  10.971  20.288  0.00  0.00     0.167 HD
ENDBRANCH  12  14
ENDBRANCH  11  12
ENDBRANCH  10  11
ENDBRANCH   9  10
ENDBRANCH   8   9
ENDBRANCH   7   8
ENDBRANCH   1   7
BRANCH   1  16
HETATM   16  N   UNK N   1      35.251  14.978  11.773  0.00  0.00    -0.331 N 
HETATM   17  C   UNK N   1      35.546  16.074  11.031  0.00  0.00     0.250 C 
HETATM   18  O   UNK N   1      36.698  16.338  10.730  0.00  0.00    -0.632 OA
HETATM   19  H   UNK N   1      34.306  14.801  11.985  0.00  0.00     0.165 HD
BRANCH  17  20
HETATM   20  O   UNK N   1      34.550  16.889  10.631  0.00  0.00    -0.760 OA
HETATM   21  H   UNK N   1      33.642  16.664  10.589  0.00  0.00     0.169 HD
ENDBRANCH  17  20
ENDBRANCH   1  16
TORSDOF 11
ENDMDL
