MODEL 1
REMARK VINA RESULT:      -5.3      0.000      0.000
REMARK  27 active torsions:
REMARK  status: ('A' for Active; 'I' for Inactive)
REMARK    1  A    between atoms: C_3  and  C_2 
REMARK    2  A    between atoms: C_4  and  C_3 
REMARK    3  A    between atoms: C_5  and  C_4 
REMARK    4  A    between atoms: C_6  and  C_5 
REMARK    5  A    between atoms: C_7  and  C_6 
REMARK    6  A    between atoms: C_8  and  C_7 
REMARK    7  A    between atoms: C_9  and  C_8 
REMARK    8  A    between atoms: C_10  and  C_9 
REMARK    9  A    between atoms: C_11  and  C_10 
REMARK   10  A    between atoms: C_12  and  C_11 
REMARK   11  A    between atoms: C_13  and  C_12 
REMARK   12  A    between atoms: C_14  and  C_13 
REMARK   13  A    between atoms: C_15  and  C_14 
REMARK   14  A    between atoms: C_22  and  C_15 
REMARK   15  A    between atoms: C_20  and  C_16 
REMARK   16  A    between atoms: O_23  and  C_16 
REMARK   17  A    between atoms: C_21  and  C_17 
REMARK   18  A    between atoms: O_29  and  C_17 
REMARK   19  A    between atoms: C_20  and  C_18 
REMARK   20  A    between atoms: O_30  and  C_18 
REMARK   21  A    between atoms: C_21  and  C_19 
REMARK   22  A    between atoms: O_31  and  C_19 
REMARK   23  A    between atoms: C_20  and  O_24 
REMARK   24  A    between atoms: C_21  and  O_25 
REMARK   25  A    between atoms: O_29  and  C_22 
REMARK   26  A    between atoms: P_32  and  O_30 
REMARK   27  A    between atoms: P_32  and  O_31 
ROOT
HETATM    1  O   UNK N   1      19.334  16.583   6.604  0.00  0.00    -0.319 OA
ENDROOT
BRANCH   1   2
HETATM    2  C   UNK N   1      18.955  15.678   5.625  0.00  0.00     0.212 C 
BRANCH   2   3
HETATM    3  C   UNK N   1      19.428  16.082   4.229  0.00  0.00     0.166 C 
BRANCH   3   4
HETATM    4  C   UNK N   1      20.947  16.194   4.219  0.00  0.00     0.215 C 
BRANCH   4   5
HETATM    5  O   UNK N   1      21.366  17.224   3.369  0.00  0.00    -0.287 OA
BRANCH   5   6
HETATM    6  P   UNK N   1      21.953  18.497   4.405  0.00  0.00     0.408 P 
HETATM    7  O   UNK N   1      22.323  17.942   6.010  0.00  0.00    -0.624 OA
HETATM    8  O   UNK N   1      23.279  19.022   3.795  0.00  0.00    -0.624 OA
BRANCH   6   9
HETATM    9  O   UNK N   1      20.868  19.857   4.401  0.00  0.00    -0.287 OA
BRANCH   9  10
HETATM   10  C   UNK N   1      20.171  19.809   3.190  0.00  0.00     0.215 C 
BRANCH  10  11
HETATM   11  C   UNK N   1      20.690  20.880   2.242  0.00  0.00     0.166 C 
BRANCH  11  12
HETATM   12  C   UNK N   1      21.152  20.223   0.954  0.00  0.00     0.198 C 
BRANCH  12  13
HETATM   13  O   UNK N   1      20.508  20.802  -0.140  0.00  0.00    -0.398 OA
HETATM   14  H   UNK N   1      19.811  20.517  -0.751  0.00  0.00     0.209 HD
ENDBRANCH  12  13
ENDBRANCH  11  12
BRANCH  11  15
HETATM   15  O   UNK N   1      21.760  21.555   2.834  0.00  0.00    -0.391 OA
HETATM   16  H   UNK N   1      21.941  21.485   3.784  0.00  0.00     0.210 HD
ENDBRANCH  11  15
ENDBRANCH  10  11
ENDBRANCH   9  10
ENDBRANCH   6   9
ENDBRANCH   5   6
ENDBRANCH   4   5
ENDBRANCH   3   4
BRANCH   3  17
HETATM   17  O   UNK N   1      19.051  15.117   3.297  0.00  0.00    -0.391 OA
HETATM   18  H   UNK N   1      18.369  15.253   2.620  0.00  0.00     0.210 HD
ENDBRANCH   3  17
ENDBRANCH   2   3
ENDBRANCH   1   2
BRANCH   1  19
HETATM   19  C   UNK N   1      19.358  16.339   7.936  0.00  0.00     0.258 C 
HETATM   20  O   UNK N   1      18.340  16.535   8.591  0.00  0.00    -0.265 OA
BRANCH  19  21
HETATM   21  C   UNK N   1      20.573  15.832   8.646  0.00  0.00     0.111 C 
BRANCH  21  22
HETATM   22  C   UNK N   1      20.394  14.381   9.053  0.00  0.00     0.010 C 
BRANCH  22  23
HETATM   23  C   UNK N   1      21.605  13.917   9.837  0.00  0.00     0.000 C 
BRANCH  23  24
HETATM   24  C   UNK N   1      21.294  12.623  10.578  0.00  0.00     0.000 C 
BRANCH  24  25
HETATM   25  C   UNK N   1      22.546  11.998  11.184  0.00  0.00     0.000 C 
BRANCH  25  26
HETATM   26  C   UNK N   1      23.738  12.063  10.236  0.00  0.00     0.000 C 
BRANCH  26  27
HETATM   27  C   UNK N   1      23.559  11.144   9.037  0.00  0.00     0.000 C 
BRANCH  27  28
HETATM   28  C   UNK N   1      23.787  11.889   7.730  0.00  0.00     0.000 C 
BRANCH  28  29
HETATM   29  C   UNK N   1      22.510  11.927   6.915  0.00  0.00     0.000 C 
BRANCH  29  30
HETATM   30  C   UNK N   1      22.444  13.212   6.122  0.00  0.00     0.000 C 
BRANCH  30  31
HETATM   31  C   UNK N   1      23.510  14.152   6.639  0.00  0.00     0.000 C 
BRANCH  31  32
HETATM   32  C   UNK N   1      24.445  14.531   5.512  0.00  0.00     0.000 C 
BRANCH  32  33
HETATM   33  C   UNK N   1      25.874  14.382   5.985  0.00  0.00    -0.000 C 
BRANCH  33  34
HETATM   34  C   UNK N   1      26.515  15.749   6.090  0.00  0.00    -0.005 C 
HETATM   35  C   UNK N   1      25.671  16.758   5.342  0.00  0.00     0.005 C 
ENDBRANCH  33  34
ENDBRANCH  32  33
ENDBRANCH  31  32
ENDBRANCH  30  31
ENDBRANCH  29  30
ENDBRANCH  28  29
ENDBRANCH  27  28
ENDBRANCH  26  27
ENDBRANCH  25  26
ENDBRANCH  24  25
ENDBRANCH  23  24
ENDBRANCH  22  23
ENDBRANCH  21  22
ENDBRANCH  19  21
ENDBRANCH   1  19
TORSDOF 27
ENDMDL
MODEL 2
REMARK VINA RESULT:      -5.1      3.899      8.410
REMARK  27 active torsions:
REMARK  status: ('A' for Active; 'I' for Inactive)
REMARK    1  A    between atoms: C_3  and  C_2 
REMARK    2  A    between atoms: C_4  and  C_3 
REMARK    3  A    between atoms: C_5  and  C_4 
REMARK    4  A    between atoms: C_6  and  C_5 
REMARK    5  A    between atoms: C_7  and  C_6 
REMARK    6  A    between atoms: C_8  and  C_7 
REMARK    7  A    between atoms: C_9  and  C_8 
REMARK    8  A    between atoms: C_10  and  C_9 
REMARK    9  A    between atoms: C_11  and  C_10 
REMARK   10  A    between atoms: C_12  and  C_11 
REMARK   11  A    between atoms: C_13  and  C_12 
REMARK   12  A    between atoms: C_14  and  C_13 
REMARK   13  A    between atoms: C_15  and  C_14 
REMARK   14  A    between atoms: C_22  and  C_15 
REMARK   15  A    between atoms: C_20  and  C_16 
REMARK   16  A    between atoms: O_23  and  C_16 
REMARK   17  A    between atoms: C_21  and  C_17 
REMARK   18  A    between atoms: O_29  and  C_17 
REMARK   19  A    between atoms: C_20  and  C_18 
REMARK   20  A    between atoms: O_30  and  C_18 
REMARK   21  A    between atoms: C_21  and  C_19 
REMARK   22  A    between atoms: O_31  and  C_19 
REMARK   23  A    between atoms: C_20  and  O_24 
REMARK   24  A    between atoms: C_21  and  O_25 
REMARK   25  A    between atoms: O_29  and  C_22 
REMARK   26  A    between atoms: P_32  and  O_30 
REMARK   27  A    between atoms: P_32  and  O_31 
ROOT
HETATM    1  O   UNK N   1      21.218  17.456   4.078  0.00  0.00    -0.319 OA
ENDROOT
BRANCH   1   2
HETATM    2  C   UNK N   1      20.496  16.888   5.116  0.00  0.00     0.212 C 
BRANCH   2   3
HETATM    3  C   UNK N   1      20.926  17.405   6.489  0.00  0.00     0.166 C 
BRANCH   3   4
HETATM    4  C   UNK N   1      20.148  16.672   7.574  0.00  0.00     0.215 C 
BRANCH   4   5
HETATM    5  O   UNK N   1      21.005  16.227   8.588  0.00  0.00    -0.287 OA
BRANCH   5   6
HETATM    6  P   UNK N   1      20.728  14.514   8.739  0.00  0.00     0.408 P 
HETATM    7  O   UNK N   1      19.479  14.133   9.887  0.00  0.00    -0.624 OA
HETATM    8  O   UNK N   1      20.243  13.995   7.360  0.00  0.00    -0.624 OA
BRANCH   6   9
HETATM    9  O   UNK N   1      22.212  13.665   9.059  0.00  0.00    -0.287 OA
BRANCH   9  10
HETATM   10  C   UNK N   1      22.092  13.119  10.340  0.00  0.00     0.215 C 
BRANCH  10  11
HETATM   11  C   UNK N   1      22.921  11.848  10.449  0.00  0.00     0.166 C 
BRANCH  11  12
HETATM   12  C   UNK N   1      23.823  11.945  11.667  0.00  0.00     0.198 C 
BRANCH  12  13
HETATM   13  O   UNK N   1      25.019  12.580  11.331  0.00  0.00    -0.398 OA
HETATM   14  H   UNK N   1      25.331  13.088  10.565  0.00  0.00     0.209 HD
ENDBRANCH  12  13
ENDBRANCH  11  12
BRANCH  11  15
HETATM   15  O   UNK N   1      23.700  11.694   9.301  0.00  0.00    -0.391 OA
HETATM   16  H   UNK N   1      24.528  12.184   9.180  0.00  0.00     0.210 HD
ENDBRANCH  11  15
ENDBRANCH  10  11
ENDBRANCH   9  10
ENDBRANCH   6   9
ENDBRANCH   5   6
ENDBRANCH   4   5
ENDBRANCH   3   4
BRANCH   3  17
HETATM   17  O   UNK N   1      22.286  17.170   6.685  0.00  0.00    -0.391 OA
HETATM   18  H   UNK N   1      22.826  16.598   6.117  0.00  0.00     0.210 HD
ENDBRANCH   3  17
ENDBRANCH   2   3
ENDBRANCH   1   2
BRANCH   1  19
HETATM   19  C   UNK N   1      20.882  18.586   3.410  0.00  0.00     0.258 C 
HETATM   20  O   UNK N   1      19.708  18.765   3.104  0.00  0.00    -0.265 OA
BRANCH  19  21
HETATM   21  C   UNK N   1      21.882  19.634   3.037  0.00  0.00     0.111 C 
BRANCH  21  22
HETATM   22  C   UNK N   1      23.211  19.381   3.725  0.00  0.00     0.010 C 
BRANCH  22  23
HETATM   23  C   UNK N   1      24.274  20.283   3.129  0.00  0.00     0.000 C 
BRANCH  23  24
HETATM   24  C   UNK N   1      25.449  20.423   4.087  0.00  0.00     0.000 C 
BRANCH  24  25
HETATM   25  C   UNK N   1      26.658  19.614   3.630  0.00  0.00     0.000 C 
BRANCH  25  26
HETATM   26  C   UNK N   1      27.909  19.945   4.436  0.00  0.00     0.000 C 
BRANCH  26  27
HETATM   27  C   UNK N   1      27.590  20.180   5.905  0.00  0.00     0.000 C 
BRANCH  27  28
HETATM   28  C   UNK N   1      27.739  18.901   6.715  0.00  0.00     0.000 C 
BRANCH  28  29
HETATM   29  C   UNK N   1      28.161  19.221   8.135  0.00  0.00     0.000 C 
BRANCH  29  30
HETATM   30  C   UNK N   1      28.147  17.962   8.971  0.00  0.00     0.000 C 
BRANCH  30  31
HETATM   31  C   UNK N   1      29.441  17.888   9.751  0.00  0.00     0.000 C 
BRANCH  31  32
HETATM   32  C   UNK N   1      30.555  18.526   8.951  0.00  0.00     0.000 C 
BRANCH  32  33
HETATM   33  C   UNK N   1      31.479  17.442   8.440  0.00  0.00    -0.000 C 
BRANCH  33  34
HETATM   34  C   UNK N   1      31.225  17.219   6.964  0.00  0.00    -0.005 C 
HETATM   35  C   UNK N   1      31.140  15.732   6.689  0.00  0.00     0.005 C 
ENDBRANCH  33  34
ENDBRANCH  32  33
ENDBRANCH  31  32
ENDBRANCH  30  31
ENDBRANCH  29  30
ENDBRANCH  28  29
ENDBRANCH  27  28
ENDBRANCH  26  27
ENDBRANCH  25  26
ENDBRANCH  24  25
ENDBRANCH  23  24
ENDBRANCH  22  23
ENDBRANCH  21  22
ENDBRANCH  19  21
ENDBRANCH   1  19
TORSDOF 27
ENDMDL
MODEL 3
REMARK VINA RESULT:      -5.1     12.210     15.481
REMARK  27 active torsions:
REMARK  status: ('A' for Active; 'I' for Inactive)
REMARK    1  A    between atoms: C_3  and  C_2 
REMARK    2  A    between atoms: C_4  and  C_3 
REMARK    3  A    between atoms: C_5  and  C_4 
REMARK    4  A    between atoms: C_6  and  C_5 
REMARK    5  A    between atoms: C_7  and  C_6 
REMARK    6  A    between atoms: C_8  and  C_7 
REMARK    7  A    between atoms: C_9  and  C_8 
REMARK    8  A    between atoms: C_10  and  C_9 
REMARK    9  A    between atoms: C_11  and  C_10 
REMARK   10  A    between atoms: C_12  and  C_11 
REMARK   11  A    between atoms: C_13  and  C_12 
REMARK   12  A    between atoms: C_14  and  C_13 
REMARK   13  A    between atoms: C_15  and  C_14 
REMARK   14  A    between atoms: C_22  and  C_15 
REMARK   15  A    between atoms: C_20  and  C_16 
REMARK   16  A    between atoms: O_23  and  C_16 
REMARK   17  A    between atoms: C_21  and  C_17 
REMARK   18  A    between atoms: O_29  and  C_17 
REMARK   19  A    between atoms: C_20  and  C_18 
REMARK   20  A    between atoms: O_30  and  C_18 
REMARK   21  A    between atoms: C_21  and  C_19 
REMARK   22  A    between atoms: O_31  and  C_19 
REMARK   23  A    between atoms: C_20  and  O_24 
REMARK   24  A    between atoms: C_21  and  O_25 
REMARK   25  A    between atoms: O_29  and  C_22 
REMARK   26  A    between atoms: P_32  and  O_30 
REMARK   27  A    between atoms: P_32  and  O_31 
ROOT
HETATM    1  O   UNK N   1      35.268  13.450  10.687  0.00  0.00    -0.319 OA
ENDROOT
BRANCH   1   2
HETATM    2  C   UNK N   1      35.064  14.675  11.303  0.00  0.00     0.212 C 
BRANCH   2   3
HETATM    3  C   UNK N   1      35.263  15.856  10.354  0.00  0.00     0.166 C 
BRANCH   3   4
HETATM    4  C   UNK N   1      34.046  15.990   9.448  0.00  0.00     0.215 C 
BRANCH   4   5
HETATM    5  O   UNK N   1      34.434  16.220   8.123  0.00  0.00    -0.287 OA
BRANCH   5   6
HETATM    6  P   UNK N   1      34.057  17.888   7.790  0.00  0.00     0.408 P 
HETATM    7  O   UNK N   1      35.191  18.992   8.509  0.00  0.00    -0.624 OA
HETATM    8  O   UNK N   1      34.147  18.090   6.254  0.00  0.00    -0.624 OA
BRANCH   6   9
HETATM    9  O   UNK N   1      32.409  18.253   8.211  0.00  0.00    -0.287 OA
BRANCH   9  10
HETATM   10  C   UNK N   1      31.612  17.298   7.573  0.00  0.00     0.215 C 
BRANCH  10  11
HETATM   11  C   UNK N   1      30.140  17.644   7.743  0.00  0.00     0.166 C 
BRANCH  11  12
HETATM   12  C   UNK N   1      29.728  17.372   9.179  0.00  0.00     0.198 C 
BRANCH  12  13
HETATM   13  O   UNK N   1      30.098  18.441   9.996  0.00  0.00    -0.398 OA
HETATM   14  H   UNK N   1      29.993  19.404   9.950  0.00  0.00     0.209 HD
ENDBRANCH  12  13
ENDBRANCH  11  12
BRANCH  11  15
HETATM   15  O   UNK N   1      29.370  16.862   6.879  0.00  0.00    -0.391 OA
HETATM   16  H   UNK N   1      28.512  16.501   7.151  0.00  0.00     0.210 HD
ENDBRANCH  11  15
ENDBRANCH  10  11
ENDBRANCH   9  10
ENDBRANCH   6   9
ENDBRANCH   5   6
ENDBRANCH   4   5
ENDBRANCH   3   4
BRANCH   3  17
HETATM   17  O   UNK N   1      35.404  17.037  11.082  0.00  0.00    -0.391 OA
HETATM   18  H   UNK N   1      36.246  17.357  11.440  0.00  0.00     0.210 HD
ENDBRANCH   3  17
ENDBRANCH   2   3
ENDBRANCH   1   2
BRANCH   1  19
HETATM   19  C   UNK N   1      36.267  12.581  10.974  0.00  0.00     0.258 C 
HETATM   20  O   UNK N   1      36.474  11.645  10.208  0.00  0.00    -0.265 OA
BRANCH  19  21
HETATM   21  C   UNK N   1      37.138  12.716  12.182  0.00  0.00     0.111 C 
BRANCH  21  22
HETATM   22  C   UNK N   1      36.535  11.983  13.366  0.00  0.00     0.010 C 
BRANCH  22  23
HETATM   23  C   UNK N   1      37.167  12.482  14.651  0.00  0.00     0.000 C 
BRANCH  23  24
HETATM   24  C   UNK N   1      36.677  13.888  14.972  0.00  0.00     0.000 C 
BRANCH  24  25
HETATM   25  C   UNK N   1      36.375  14.061  16.457  0.00  0.00     0.000 C 
BRANCH  25  26
HETATM   26  C   UNK N   1      35.013  13.492  16.837  0.00  0.00     0.000 C 
BRANCH  26  27
HETATM   27  C   UNK N   1      34.997  12.968  18.265  0.00  0.00     0.000 C 
BRANCH  27  28
HETATM   28  C   UNK N   1      35.700  11.622  18.367  0.00  0.00     0.000 C 
BRANCH  28  29
HETATM   29  C   UNK N   1      35.188  10.676  17.299  0.00  0.00     0.000 C 
BRANCH  29  30
HETATM   30  C   UNK N   1      34.558   9.464  17.946  0.00  0.00     0.000 C 
BRANCH  30  31
HETATM   31  C   UNK N   1      35.144   9.297  19.330  0.00  0.00     0.000 C 
BRANCH  31  32
HETATM   32  C   UNK N   1      34.090   8.753  20.267  0.00  0.00     0.000 C 
BRANCH  32  33
HETATM   33  C   UNK N   1      32.785   8.613  19.515  0.00  0.00    -0.000 C 
BRANCH  33  34
HETATM   34  C   UNK N   1      31.631   8.672  20.493  0.00  0.00    -0.005 C 
HETATM   35  C   UNK N   1      30.523   7.757  20.018  0.00  0.00     0.005 C 
ENDBRANCH  33  34
ENDBRANCH  32  33
ENDBRANCH  31  32
ENDBRANCH  30  31
ENDBRANCH  29  30
ENDBRANCH  28  29
ENDBRANCH  27  28
ENDBRANCH  26  27
ENDBRANCH  25  26
ENDBRANCH  24  25
ENDBRANCH  23  24
ENDBRANCH  22  23
ENDBRANCH  21  22
ENDBRANCH  19  21
ENDBRANCH   1  19
TORSDOF 27
ENDMDL
MODEL 4
REMARK VINA RESULT:      -5.0     13.171     16.444
REMARK  27 active torsions:
REMARK  status: ('A' for Active; 'I' for Inactive)
REMARK    1  A    between atoms: C_3  and  C_2 
REMARK    2  A    between atoms: C_4  and  C_3 
REMARK    3  A    between atoms: C_5  and  C_4 
REMARK    4  A    between atoms: C_6  and  C_5 
REMARK    5  A    between atoms: C_7  and  C_6 
REMARK    6  A    between atoms: C_8  and  C_7 
REMARK    7  A    between atoms: C_9  and  C_8 
REMARK    8  A    between atoms: C_10  and  C_9 
REMARK    9  A    between atoms: C_11  and  C_10 
REMARK   10  A    between atoms: C_12  and  C_11 
REMARK   11  A    between atoms: C_13  and  C_12 
REMARK   12  A    between atoms: C_14  and  C_13 
REMARK   13  A    between atoms: C_15  and  C_14 
REMARK   14  A    between atoms: C_22  and  C_15 
REMARK   15  A    between atoms: C_20  and  C_16 
REMARK   16  A    between atoms: O_23  and  C_16 
REMARK   17  A    between atoms: C_21  and  C_17 
REMARK   18  A    between atoms: O_29  and  C_17 
REMARK   19  A    between atoms: C_20  and  C_18 
REMARK   20  A    between atoms: O_30  and  C_18 
REMARK   21  A    between atoms: C_21  and  C_19 
REMARK   22  A    between atoms: O_31  and  C_19 
REMARK   23  A    between atoms: C_20  and  O_24 
REMARK   24  A    between atoms: C_21  and  O_25 
REMARK   25  A    between atoms: O_29  and  C_22 
REMARK   26  A    between atoms: P_32  and  O_30 
REMARK   27  A    between atoms: P_32  and  O_31 
ROOT
HETATM    1  O   UNK N   1      37.010  10.895  12.383  0.00  0.00    -0.319 OA
ENDROOT
BRANCH   1   2
HETATM    2  C   UNK N   1      36.287  11.870  11.715  0.00  0.00     0.212 C 
BRANCH   2   3
HETATM    3  C   UNK N   1      37.134  12.658  10.717  0.00  0.00     0.166 C 
BRANCH   3   4
HETATM    4  C   UNK N   1      36.221  13.387   9.739  0.00  0.00     0.215 C 
BRANCH   4   5
HETATM    5  O   UNK N   1      34.905  13.420  10.216  0.00  0.00    -0.287 OA
BRANCH   5   6
HETATM    6  P   UNK N   1      33.928  14.004   8.898  0.00  0.00     0.408 P 
HETATM    7  O   UNK N   1      34.703  13.824   7.352  0.00  0.00    -0.624 OA
HETATM    8  O   UNK N   1      32.637  13.143   8.855  0.00  0.00    -0.624 OA
BRANCH   6   9
HETATM    9  O   UNK N   1      33.390  15.633   9.190  0.00  0.00    -0.287 OA
BRANCH   9  10
HETATM   10  C   UNK N   1      34.437  16.474   8.803  0.00  0.00     0.215 C 
BRANCH  10  11
HETATM   11  C   UNK N   1      33.889  17.820   8.351  0.00  0.00     0.166 C 
BRANCH  11  12
HETATM   12  C   UNK N   1      32.431  17.657   7.960  0.00  0.00     0.198 C 
BRANCH  12  13
HETATM   13  O   UNK N   1      31.616  17.764   9.087  0.00  0.00    -0.398 OA
HETATM   14  H   UNK N   1      31.415  18.470   9.721  0.00  0.00     0.209 HD
ENDBRANCH  12  13
ENDBRANCH  11  12
BRANCH  11  15
HETATM   15  O   UNK N   1      34.618  18.281   7.253  0.00  0.00    -0.391 OA
HETATM   16  H   UNK N   1      34.407  18.001   6.349  0.00  0.00     0.210 HD
ENDBRANCH  11  15
ENDBRANCH  10  11
ENDBRANCH   9  10
ENDBRANCH   6   9
ENDBRANCH   5   6
ENDBRANCH   4   5
ENDBRANCH   3   4
BRANCH   3  17
HETATM   17  O   UNK N   1      37.908  13.604  11.386  0.00  0.00    -0.391 OA
HETATM   18  H   UNK N   1      38.175  14.455  11.006  0.00  0.00     0.210 HD
ENDBRANCH   3  17
ENDBRANCH   2   3
ENDBRANCH   1   2
BRANCH   1  19
HETATM   19  C   UNK N   1      37.446  10.974  13.663  0.00  0.00     0.258 C 
HETATM   20  O   UNK N   1      37.554  12.079  14.183  0.00  0.00    -0.265 OA
BRANCH  19  21
HETATM   21  C   UNK N   1      37.793   9.769  14.477  0.00  0.00     0.111 C 
BRANCH  21  22
HETATM   22  C   UNK N   1      36.743   9.515  15.543  0.00  0.00     0.010 C 
BRANCH  22  23
HETATM   23  C   UNK N   1      35.371   9.444  14.901  0.00  0.00     0.000 C 
BRANCH  23  24
HETATM   24  C   UNK N   1      34.380  10.307  15.670  0.00  0.00     0.000 C 
BRANCH  24  25
HETATM   25  C   UNK N   1      34.085  11.618  14.948  0.00  0.00     0.000 C 
BRANCH  25  26
HETATM   26  C   UNK N   1      34.481  12.833  15.779  0.00  0.00     0.000 C 
BRANCH  26  27
HETATM   27  C   UNK N   1      35.408  12.458  16.925  0.00  0.00     0.000 C 
BRANCH  27  28
HETATM   28  C   UNK N   1      35.114  13.285  18.168  0.00  0.00     0.000 C 
BRANCH  28  29
HETATM   29  C   UNK N   1      35.294  12.445  19.416  0.00  0.00     0.000 C 
BRANCH  29  30
HETATM   30  C   UNK N   1      35.651  11.027  19.034  0.00  0.00     0.000 C 
BRANCH  30  31
HETATM   31  C   UNK N   1      34.628  10.092  19.639  0.00  0.00     0.000 C 
BRANCH  31  32
HETATM   32  C   UNK N   1      34.586   8.803  18.849  0.00  0.00     0.000 C 
BRANCH  32  33
HETATM   33  C   UNK N   1      33.409   7.975  19.318  0.00  0.00    -0.000 C 
BRANCH  33  34
HETATM   34  C   UNK N   1      32.533   8.813  20.225  0.00  0.00    -0.005 C 
HETATM   35  C   UNK N   1      31.099   8.339  20.115  0.00  0.00     0.005 C 
ENDBRANCH  33  34
ENDBRANCH  32  33
ENDBRANCH  31  32
ENDBRANCH  30  31
ENDBRANCH  29  30
ENDBRANCH  28  29
ENDBRANCH  27  28
ENDBRANCH  26  27
ENDBRANCH  25  26
ENDBRANCH  24  25
ENDBRANCH  23  24
ENDBRANCH  22  23
ENDBRANCH  21  22
ENDBRANCH  19  21
ENDBRANCH   1  19
TORSDOF 27
ENDMDL
MODEL 5
REMARK VINA RESULT:      -5.0     10.184     14.170
REMARK  27 active torsions:
REMARK  status: ('A' for Active; 'I' for Inactive)
REMARK    1  A    between atoms: C_3  and  C_2 
REMARK    2  A    between atoms: C_4  and  C_3 
REMARK    3  A    between atoms: C_5  and  C_4 
REMARK    4  A    between atoms: C_6  and  C_5 
REMARK    5  A    between atoms: C_7  and  C_6 
REMARK    6  A    between atoms: C_8  and  C_7 
REMARK    7  A    between atoms: C_9  and  C_8 
REMARK    8  A    between atoms: C_10  and  C_9 
REMARK    9  A    between atoms: C_11  and  C_10 
REMARK   10  A    between atoms: C_12  and  C_11 
REMARK   11  A    between atoms: C_13  and  C_12 
REMARK   12  A    between atoms: C_14  and  C_13 
REMARK   13  A    between atoms: C_15  and  C_14 
REMARK   14  A    between atoms: C_22  and  C_15 
REMARK   15  A    between atoms: C_20  and  C_16 
REMARK   16  A    between atoms: O_23  and  C_16 
REMARK   17  A    between atoms: C_21  and  C_17 
REMARK   18  A    between atoms: O_29  and  C_17 
REMARK   19  A    between atoms: C_20  and  C_18 
REMARK   20  A    between atoms: O_30  and  C_18 
REMARK   21  A    between atoms: C_21  and  C_19 
REMARK   22  A    between atoms: O_31  and  C_19 
REMARK   23  A    between atoms: C_20  and  O_24 
REMARK   24  A    between atoms: C_21  and  O_25 
REMARK   25  A    between atoms: O_29  and  C_22 
REMARK   26  A    between atoms: P_32  and  O_30 
REMARK   27  A    between atoms: P_32  and  O_31 
ROOT
HETATM    1  O   UNK N   1      34.398  17.418   9.585  0.00  0.00    -0.319 OA
ENDROOT
BRANCH   1   2
HETATM    2  C   UNK N   1      34.935  16.158   9.798  0.00  0.00     0.212 C 
BRANCH   2   3
HETATM    3  C   UNK N   1      33.869  15.067   9.894  0.00  0.00     0.166 C 
BRANCH   3   4
HETATM    4  C   UNK N   1      34.454  13.742   9.422  0.00  0.00     0.215 C 
BRANCH   4   5
HETATM    5  O   UNK N   1      34.652  12.872  10.501  0.00  0.00    -0.287 OA
BRANCH   5   6
HETATM    6  P   UNK N   1      36.350  12.483  10.504  0.00  0.00     0.408 P 
HETATM    7  O   UNK N   1      36.649  10.772  10.441  0.00  0.00    -0.624 OA
HETATM    8  O   UNK N   1      36.972  13.094   9.220  0.00  0.00    -0.624 OA
BRANCH   6   9
HETATM    9  O   UNK N   1      37.167  13.257  11.830  0.00  0.00    -0.287 OA
BRANCH   9  10
HETATM   10  C   UNK N   1      36.875  12.507  12.972  0.00  0.00     0.215 C 
BRANCH  10  11
HETATM   11  C   UNK N   1      35.831  13.223  13.817  0.00  0.00     0.166 C 
BRANCH  11  12
HETATM   12  C   UNK N   1      34.698  12.262  14.128  0.00  0.00     0.198 C 
BRANCH  12  13
HETATM   13  O   UNK N   1      34.116  12.584  15.355  0.00  0.00    -0.398 OA
HETATM   14  H   UNK N   1      34.024  12.130  16.207  0.00  0.00     0.209 HD
ENDBRANCH  12  13
ENDBRANCH  11  12
BRANCH  11  15
HETATM   15  O   UNK N   1      35.332  14.323  13.117  0.00  0.00    -0.391 OA
HETATM   16  H   UNK N   1      34.383  14.429  12.947  0.00  0.00     0.210 HD
ENDBRANCH  11  15
ENDBRANCH  10  11
ENDBRANCH   9  10
ENDBRANCH   6   9
ENDBRANCH   5   6
ENDBRANCH   4   5
ENDBRANCH   3   4
BRANCH   3  17
HETATM   17  O   UNK N   1      33.451  14.920  11.215  0.00  0.00    -0.391 OA
HETATM   18  H   UNK N   1      32.754  15.454  11.627  0.00  0.00     0.210 HD
ENDBRANCH   3  17
ENDBRANCH   2   3
ENDBRANCH   1   2
BRANCH   1  19
HETATM   19  C   UNK N   1      34.568  18.169   8.471  0.00  0.00     0.258 C 
HETATM   20  O   UNK N   1      35.283  19.164   8.533  0.00  0.00    -0.265 OA
BRANCH  19  21
HETATM   21  C   UNK N   1      33.927  17.835   7.162  0.00  0.00     0.111 C 
BRANCH  21  22
HETATM   22  C   UNK N   1      32.564  17.203   7.374  0.00  0.00     0.010 C 
BRANCH  22  23
HETATM   23  C   UNK N   1      31.732  18.078   8.291  0.00  0.00     0.000 C 
BRANCH  23  24
HETATM   24  C   UNK N   1      30.493  17.328   8.760  0.00  0.00     0.000 C 
BRANCH  24  25
HETATM   25  C   UNK N   1      29.519  18.240   9.499  0.00  0.00     0.000 C 
BRANCH  25  26
HETATM   26  C   UNK N   1      28.364  18.687   8.611  0.00  0.00     0.000 C 
BRANCH  26  27
HETATM   27  C   UNK N   1      28.218  17.800   7.383  0.00  0.00     0.000 C 
BRANCH  27  28
HETATM   28  C   UNK N   1      27.931  18.625   6.136  0.00  0.00     0.000 C 
BRANCH  28  29
HETATM   29  C   UNK N   1      28.409  17.894   4.898  0.00  0.00     0.000 C 
BRANCH  29  30
HETATM   30  C   UNK N   1      29.899  17.654   4.986  0.00  0.00     0.000 C 
BRANCH  30  31
HETATM   31  C   UNK N   1      30.195  16.265   4.469  0.00  0.00     0.000 C 
BRANCH  31  32
HETATM   32  C   UNK N   1      29.978  15.253   5.572  0.00  0.00     0.000 C 
BRANCH  32  33
HETATM   33  C   UNK N   1      29.540  13.941   4.959  0.00  0.00    -0.000 C 
BRANCH  33  34
HETATM   34  C   UNK N   1      28.141  14.088   4.400  0.00  0.00    -0.005 C 
HETATM   35  C   UNK N   1      27.186  14.438   5.521  0.00  0.00     0.005 C 
ENDBRANCH  33  34
ENDBRANCH  32  33
ENDBRANCH  31  32
ENDBRANCH  30  31
ENDBRANCH  29  30
ENDBRANCH  28  29
ENDBRANCH  27  28
ENDBRANCH  26  27
ENDBRANCH  25  26
ENDBRANCH  24  25
ENDBRANCH  23  24
ENDBRANCH  22  23
ENDBRANCH  21  22
ENDBRANCH  19  21
ENDBRANCH   1  19
TORSDOF 27
ENDMDL
MODEL 6
REMARK VINA RESULT:      -5.0     10.523     14.611
REMARK  27 active torsions:
REMARK  status: ('A' for Active; 'I' for Inactive)
REMARK    1  A    between atoms: C_3  and  C_2 
REMARK    2  A    between atoms: C_4  and  C_3 
REMARK    3  A    between atoms: C_5  and  C_4 
REMARK    4  A    between atoms: C_6  and  C_5 
REMARK    5  A    between atoms: C_7  and  C_6 
REMARK    6  A    between atoms: C_8  and  C_7 
REMARK    7  A    between atoms: C_9  and  C_8 
REMARK    8  A    between atoms: C_10  and  C_9 
REMARK    9  A    between atoms: C_11  and  C_10 
REMARK   10  A    between atoms: C_12  and  C_11 
REMARK   11  A    between atoms: C_13  and  C_12 
REMARK   12  A    between atoms: C_14  and  C_13 
REMARK   13  A    between atoms: C_15  and  C_14 
REMARK   14  A    between atoms: C_22  and  C_15 
REMARK   15  A    between atoms: C_20  and  C_16 
REMARK   16  A    between atoms: O_23  and  C_16 
REMARK   17  A    between atoms: C_21  and  C_17 
REMARK   18  A    between atoms: O_29  and  C_17 
REMARK   19  A    between atoms: C_20  and  C_18 
REMARK   20  A    between atoms: O_30  and  C_18 
REMARK   21  A    between atoms: C_21  and  C_19 
REMARK   22  A    between atoms: O_31  and  C_19 
REMARK   23  A    between atoms: C_20  and  O_24 
REMARK   24  A    between atoms: C_21  and  O_25 
REMARK   25  A    between atoms: O_29  and  C_22 
REMARK   26  A    between atoms: P_32  and  O_30 
REMARK   27  A    between atoms: P_32  and  O_31 
ROOT
HETATM    1  O   UNK N   1      34.194  17.521   9.465  0.00  0.00    -0.319 OA
ENDROOT
BRANCH   1   2
HETATM    2  C   UNK N   1      34.893  16.460  10.018  0.00  0.00     0.212 C 
BRANCH   2   3
HETATM    3  C   UNK N   1      34.100  15.153   9.998  0.00  0.00     0.166 C 
BRANCH   3   4
HETATM    4  C   UNK N   1      35.012  14.013   9.564  0.00  0.00     0.215 C 
BRANCH   4   5
HETATM    5  O   UNK N   1      35.065  13.015  10.545  0.00  0.00    -0.287 OA
BRANCH   5   6
HETATM    6  P   UNK N   1      36.739  12.883  11.011  0.00  0.00     0.408 P 
HETATM    7  O   UNK N   1      37.471  11.400  10.477  0.00  0.00    -0.624 OA
HETATM    8  O   UNK N   1      37.509  14.038  10.319  0.00  0.00    -0.624 OA
BRANCH   6   9
HETATM    9  O   UNK N   1      36.937  13.149  12.719  0.00  0.00    -0.287 OA
BRANCH   9  10
HETATM   10  C   UNK N   1      36.536  11.971  13.356  0.00  0.00     0.215 C 
BRANCH  10  11
HETATM   11  C   UNK N   1      35.179  12.167  14.016  0.00  0.00     0.166 C 
BRANCH  11  12
HETATM   12  C   UNK N   1      34.231  11.081  13.538  0.00  0.00     0.198 C 
BRANCH  12  13
HETATM   13  O   UNK N   1      33.425  10.648  14.591  0.00  0.00    -0.398 OA
HETATM   14  H   UNK N   1      33.145  11.028  15.438  0.00  0.00     0.209 HD
ENDBRANCH  12  13
ENDBRANCH  11  12
BRANCH  11  15
HETATM   15  O   UNK N   1      34.665  13.420  13.674  0.00  0.00    -0.391 OA
HETATM   16  H   UNK N   1      35.215  14.218  13.698  0.00  0.00     0.210 HD
ENDBRANCH  11  15
ENDBRANCH  10  11
ENDBRANCH   9  10
ENDBRANCH   6   9
ENDBRANCH   5   6
ENDBRANCH   4   5
ENDBRANCH   3   4
BRANCH   3  17
HETATM   17  O   UNK N   1      33.613  14.868  11.272  0.00  0.00    -0.391 OA
HETATM   18  H   UNK N   1      32.734  14.497  11.447  0.00  0.00     0.210 HD
ENDBRANCH   3  17
ENDBRANCH   2   3
ENDBRANCH   1   2
BRANCH   1  19
HETATM   19  C   UNK N   1      34.116  17.811   8.144  0.00  0.00     0.258 C 
HETATM   20  O   UNK N   1      34.872  18.658   7.679  0.00  0.00    -0.265 OA
BRANCH  19  21
HETATM   21  C   UNK N   1      33.153  17.135   7.221  0.00  0.00     0.111 C 
BRANCH  21  22
HETATM   22  C   UNK N   1      33.385  17.570   5.786  0.00  0.00     0.010 C 
BRANCH  22  23
HETATM   23  C   UNK N   1      33.772  16.370   4.944  0.00  0.00     0.000 C 
BRANCH  23  24
HETATM   24  C   UNK N   1      33.016  16.382   3.622  0.00  0.00     0.000 C 
BRANCH  24  25
HETATM   25  C   UNK N   1      32.881  14.984   3.029  0.00  0.00     0.000 C 
BRANCH  25  26
HETATM   26  C   UNK N   1      31.493  14.396   3.254  0.00  0.00     0.000 C 
BRANCH  26  27
HETATM   27  C   UNK N   1      30.528  15.426   3.823  0.00  0.00     0.000 C 
BRANCH  27  28
HETATM   28  C   UNK N   1      30.010  15.002   5.190  0.00  0.00     0.000 C 
BRANCH  28  29
HETATM   29  C   UNK N   1      29.741  16.218   6.054  0.00  0.00     0.000 C 
BRANCH  29  30
HETATM   30  C   UNK N   1      29.767  17.467   5.204  0.00  0.00     0.000 C 
BRANCH  30  31
HETATM   31  C   UNK N   1      28.619  18.358   5.622  0.00  0.00     0.000 C 
BRANCH  31  32
HETATM   32  C   UNK N   1      28.005  17.832   6.899  0.00  0.00     0.000 C 
BRANCH  32  33
HETATM   33  C   UNK N   1      28.154  18.875   7.985  0.00  0.00    -0.000 C 
BRANCH  33  34
HETATM   34  C   UNK N   1      28.897  18.276   9.160  0.00  0.00    -0.005 C 
HETATM   35  C   UNK N   1      30.340  18.731   9.126  0.00  0.00     0.005 C 
ENDBRANCH  33  34
ENDBRANCH  32  33
ENDBRANCH  31  32
ENDBRANCH  30  31
ENDBRANCH  29  30
ENDBRANCH  28  29
ENDBRANCH  27  28
ENDBRANCH  26  27
ENDBRANCH  25  26
ENDBRANCH  24  25
ENDBRANCH  23  24
ENDBRANCH  22  23
ENDBRANCH  21  22
ENDBRANCH  19  21
ENDBRANCH   1  19
TORSDOF 27
ENDMDL
MODEL 7
REMARK VINA RESULT:      -5.0     10.268     13.152
REMARK  27 active torsions:
REMARK  status: ('A' for Active; 'I' for Inactive)
REMARK    1  A    between atoms: C_3  and  C_2 
REMARK    2  A    between atoms: C_4  and  C_3 
REMARK    3  A    between atoms: C_5  and  C_4 
REMARK    4  A    between atoms: C_6  and  C_5 
REMARK    5  A    between atoms: C_7  and  C_6 
REMARK    6  A    between atoms: C_8  and  C_7 
REMARK    7  A    between atoms: C_9  and  C_8 
REMARK    8  A    between atoms: C_10  and  C_9 
REMARK    9  A    between atoms: C_11  and  C_10 
REMARK   10  A    between atoms: C_12  and  C_11 
REMARK   11  A    between atoms: C_13  and  C_12 
REMARK   12  A    between atoms: C_14  and  C_13 
REMARK   13  A    between atoms: C_15  and  C_14 
REMARK   14  A    between atoms: C_22  and  C_15 
REMARK   15  A    between atoms: C_20  and  C_16 
REMARK   16  A    between atoms: O_23  and  C_16 
REMARK   17  A    between atoms: C_21  and  C_17 
REMARK   18  A    between atoms: O_29  and  C_17 
REMARK   19  A    between atoms: C_20  and  C_18 
REMARK   20  A    between atoms: O_30  and  C_18 
REMARK   21  A    between atoms: C_21  and  C_19 
REMARK   22  A    between atoms: O_31  and  C_19 
REMARK   23  A    between atoms: C_20  and  O_24 
REMARK   24  A    between atoms: C_21  and  O_25 
REMARK   25  A    between atoms: O_29  and  C_22 
REMARK   26  A    between atoms: P_32  and  O_30 
REMARK   27  A    between atoms: P_32  and  O_31 
ROOT
HETATM    1  O   UNK N   1      34.430  17.326   9.820  0.00  0.00    -0.319 OA
ENDROOT
BRANCH   1   2
HETATM    2  C   UNK N   1      34.790  17.873   8.599  0.00  0.00     0.212 C 
BRANCH   2   3
HETATM    3  C   UNK N   1      34.263  17.070   7.410  0.00  0.00     0.166 C 
BRANCH   3   4
HETATM    4  C   UNK N   1      32.877  16.529   7.738  0.00  0.00     0.215 C 
BRANCH   4   5
HETATM    5  O   UNK N   1      31.900  17.513   7.548  0.00  0.00    -0.287 OA
BRANCH   5   6
HETATM    6  P   UNK N   1      30.871  16.933   6.267  0.00  0.00     0.408 P 
HETATM    7  O   UNK N   1      31.513  17.262   4.686  0.00  0.00    -0.624 OA
HETATM    8  O   UNK N   1      30.782  15.389   6.402  0.00  0.00    -0.624 OA
BRANCH   6   9
HETATM    9  O   UNK N   1      29.242  17.511   6.461  0.00  0.00    -0.287 OA
BRANCH   9  10
HETATM   10  C   UNK N   1      28.502  16.985   5.398  0.00  0.00     0.215 C 
BRANCH  10  11
HETATM   11  C   UNK N   1      27.376  17.937   5.021  0.00  0.00     0.166 C 
BRANCH  11  12
HETATM   12  C   UNK N   1      27.916  19.355   4.978  0.00  0.00     0.198 C 
BRANCH  12  13
HETATM   13  O   UNK N   1      27.970  19.810   3.661  0.00  0.00    -0.398 OA
HETATM   14  H   UNK N   1      28.537  19.623   2.896  0.00  0.00     0.209 HD
ENDBRANCH  12  13
ENDBRANCH  11  12
BRANCH  11  15
HETATM   15  O   UNK N   1      26.353  17.854   5.967  0.00  0.00    -0.391 OA
HETATM   16  H   UNK N   1      25.897  18.646   6.293  0.00  0.00     0.210 HD
ENDBRANCH  11  15
ENDBRANCH  10  11
ENDBRANCH   9  10
ENDBRANCH   6   9
ENDBRANCH   5   6
ENDBRANCH   4   5
ENDBRANCH   3   4
BRANCH   3  17
HETATM   17  O   UNK N   1      34.164  17.886   6.286  0.00  0.00    -0.391 OA
HETATM   18  H   UNK N   1      34.677  18.700   6.158  0.00  0.00     0.210 HD
ENDBRANCH   3  17
ENDBRANCH   2   3
ENDBRANCH   1   2
BRANCH   1  19
HETATM   19  C   UNK N   1      35.153  16.418  10.520  0.00  0.00     0.258 C 
HETATM   20  O   UNK N   1      36.347  16.627  10.702  0.00  0.00    -0.265 OA
BRANCH  19  21
HETATM   21  C   UNK N   1      34.554  15.173  11.092  0.00  0.00     0.111 C 
BRANCH  21  22
HETATM   22  C   UNK N   1      35.346  13.949  10.669  0.00  0.00     0.010 C 
BRANCH  22  23
HETATM   23  C   UNK N   1      35.379  12.945  11.803  0.00  0.00     0.000 C 
BRANCH  23  24
HETATM   24  C   UNK N   1      36.815  12.670  12.228  0.00  0.00     0.000 C 
BRANCH  24  25
HETATM   25  C   UNK N   1      36.961  12.612  13.745  0.00  0.00     0.000 C 
BRANCH  25  26
HETATM   26  C   UNK N   1      36.240  13.763  14.436  0.00  0.00     0.000 C 
BRANCH  26  27
HETATM   27  C   UNK N   1      36.101  13.528  15.932  0.00  0.00     0.000 C 
BRANCH  27  28
HETATM   28  C   UNK N   1      34.862  12.703  16.249  0.00  0.00     0.000 C 
BRANCH  28  29
HETATM   29  C   UNK N   1      35.256  11.312  16.706  0.00  0.00     0.000 C 
BRANCH  29  30
HETATM   30  C   UNK N   1      34.535  10.275  15.877  0.00  0.00     0.000 C 
BRANCH  30  31
HETATM   31  C   UNK N   1      33.671  10.987  14.860  0.00  0.00     0.000 C 
BRANCH  31  32
HETATM   32  C   UNK N   1      33.843  10.340  13.504  0.00  0.00     0.000 C 
BRANCH  32  33
HETATM   33  C   UNK N   1      35.062   9.444  13.535  0.00  0.00    -0.000 C 
BRANCH  33  34
HETATM   34  C   UNK N   1      35.023   8.500  12.352  0.00  0.00    -0.005 C 
HETATM   35  C   UNK N   1      35.396   9.254  11.094  0.00  0.00     0.005 C 
ENDBRANCH  33  34
ENDBRANCH  32  33
ENDBRANCH  31  32
ENDBRANCH  30  31
ENDBRANCH  29  30
ENDBRANCH  28  29
ENDBRANCH  27  28
ENDBRANCH  26  27
ENDBRANCH  25  26
ENDBRANCH  24  25
ENDBRANCH  23  24
ENDBRANCH  22  23
ENDBRANCH  21  22
ENDBRANCH  19  21
ENDBRANCH   1  19
TORSDOF 27
ENDMDL
MODEL 8
REMARK VINA RESULT:      -4.9     14.373     16.086
REMARK  27 active torsions:
REMARK  status: ('A' for Active; 'I' for Inactive)
REMARK    1  A    between atoms: C_3  and  C_2 
REMARK    2  A    between atoms: C_4  and  C_3 
REMARK    3  A    between atoms: C_5  and  C_4 
REMARK    4  A    between atoms: C_6  and  C_5 
REMARK    5  A    between atoms: C_7  and  C_6 
REMARK    6  A    between atoms: C_8  and  C_7 
REMARK    7  A    between atoms: C_9  and  C_8 
REMARK    8  A    between atoms: C_10  and  C_9 
REMARK    9  A    between atoms: C_11  and  C_10 
REMARK   10  A    between atoms: C_12  and  C_11 
REMARK   11  A    between atoms: C_13  and  C_12 
REMARK   12  A    between atoms: C_14  and  C_13 
REMARK   13  A    between atoms: C_15  and  C_14 
REMARK   14  A    between atoms: C_22  and  C_15 
REMARK   15  A    between atoms: C_20  and  C_16 
REMARK   16  A    between atoms: O_23  and  C_16 
REMARK   17  A    between atoms: C_21  and  C_17 
REMARK   18  A    between atoms: O_29  and  C_17 
REMARK   19  A    between atoms: C_20  and  C_18 
REMARK   20  A    between atoms: O_30  and  C_18 
REMARK   21  A    between atoms: C_21  and  C_19 
REMARK   22  A    between atoms: O_31  and  C_19 
REMARK   23  A    between atoms: C_20  and  O_24 
REMARK   24  A    between atoms: C_21  and  O_25 
REMARK   25  A    between atoms: O_29  and  C_22 
REMARK   26  A    between atoms: P_32  and  O_30 
REMARK   27  A    between atoms: P_32  and  O_31 
ROOT
HETATM    1  O   UNK N   1      27.514  25.625  -5.000  0.00  0.00    -0.319 OA
ENDROOT
BRANCH   1   2
HETATM    2  C   UNK N   1      27.607  26.976  -5.293  0.00  0.00     0.212 C 
BRANCH   2   3
HETATM    3  C   UNK N   1      26.294  27.562  -5.812  0.00  0.00     0.166 C 
BRANCH   3   4
HETATM    4  C   UNK N   1      25.498  26.474  -6.521  0.00  0.00     0.215 C 
BRANCH   4   5
HETATM    5  O   UNK N   1      25.917  26.334  -7.850  0.00  0.00    -0.287 OA
BRANCH   5   6
HETATM    6  P   UNK N   1      25.816  24.634  -8.213  0.00  0.00     0.408 P 
HETATM    7  O   UNK N   1      24.988  24.312  -9.708  0.00  0.00    -0.624 OA
HETATM    8  O   UNK N   1      27.264  24.104  -8.381  0.00  0.00    -0.624 OA
BRANCH   6   9
HETATM    9  O   UNK N   1      25.148  23.746  -6.875  0.00  0.00    -0.287 OA
BRANCH   9  10
HETATM   10  C   UNK N   1      25.776  22.497  -6.870  0.00  0.00     0.215 C 
BRANCH  10  11
HETATM   11  C   UNK N   1      24.857  21.444  -7.471  0.00  0.00     0.166 C 
BRANCH  11  12
HETATM   12  C   UNK N   1      25.572  20.755  -8.618  0.00  0.00     0.198 C 
BRANCH  12  13
HETATM   13  O   UNK N   1      25.155  21.290  -9.837  0.00  0.00    -0.398 OA
HETATM   14  H   UNK N   1      25.562  21.397 -10.711  0.00  0.00     0.209 HD
ENDBRANCH  12  13
ENDBRANCH  11  12
BRANCH  11  15
HETATM   15  O   UNK N   1      23.691  22.051  -7.943  0.00  0.00    -0.391 OA
HETATM   16  H   UNK N   1      22.942  22.237  -7.356  0.00  0.00     0.210 HD
ENDBRANCH  11  15
ENDBRANCH  10  11
ENDBRANCH   9  10
ENDBRANCH   6   9
ENDBRANCH   5   6
ENDBRANCH   4   5
ENDBRANCH   3   4
BRANCH   3  17
HETATM   17  O   UNK N   1      25.532  28.045  -4.750  0.00  0.00    -0.391 OA
HETATM   18  H   UNK N   1      24.885  27.514  -4.260  0.00  0.00     0.210 HD
ENDBRANCH   3  17
ENDBRANCH   2   3
ENDBRANCH   1   2
BRANCH   1  19
HETATM   19  C   UNK N   1      27.253  25.100  -3.778  0.00  0.00     0.258 C 
HETATM   20  O   UNK N   1      26.355  25.591  -3.103  0.00  0.00    -0.265 OA
BRANCH  19  21
HETATM   21  C   UNK N   1      28.009  23.938  -3.217  0.00  0.00     0.111 C 
BRANCH  21  22
HETATM   22  C   UNK N   1      29.419  23.891  -3.776  0.00  0.00     0.010 C 
BRANCH  22  23
HETATM   23  C   UNK N   1      29.550  22.726  -4.737  0.00  0.00     0.000 C 
BRANCH  23  24
HETATM   24  C   UNK N   1      30.514  21.686  -4.183  0.00  0.00     0.000 C 
BRANCH  24  25
HETATM   25  C   UNK N   1      31.719  22.329  -3.505  0.00  0.00     0.000 C 
BRANCH  25  26
HETATM   26  C   UNK N   1      32.638  21.296  -2.865  0.00  0.00     0.000 C 
BRANCH  26  27
HETATM   27  C   UNK N   1      33.849  20.997  -3.737  0.00  0.00     0.000 C 
BRANCH  27  28
HETATM   28  C   UNK N   1      34.053  19.499  -3.906  0.00  0.00     0.000 C 
BRANCH  28  29
HETATM   29  C   UNK N   1      34.051  19.128  -5.375  0.00  0.00     0.000 C 
BRANCH  29  30
HETATM   30  C   UNK N   1      33.805  20.360  -6.216  0.00  0.00     0.000 C 
BRANCH  30  31
HETATM   31  C   UNK N   1      33.068  19.949  -7.471  0.00  0.00     0.000 C 
BRANCH  31  32
HETATM   32  C   UNK N   1      31.584  20.170  -7.286  0.00  0.00     0.000 C 
BRANCH  32  33
HETATM   33  C   UNK N   1      30.827  19.122  -8.070  0.00  0.00    -0.000 C 
BRANCH  33  34
HETATM   34  C   UNK N   1      29.349  19.231  -7.760  0.00  0.00    -0.005 C 
HETATM   35  C   UNK N   1      28.966  20.691  -7.648  0.00  0.00     0.005 C 
ENDBRANCH  33  34
ENDBRANCH  32  33
ENDBRANCH  31  32
ENDBRANCH  30  31
ENDBRANCH  29  30
ENDBRANCH  28  29
ENDBRANCH  27  28
ENDBRANCH  26  27
ENDBRANCH  25  26
ENDBRANCH  24  25
ENDBRANCH  23  24
ENDBRANCH  22  23
ENDBRANCH  21  22
ENDBRANCH  19  21
ENDBRANCH   1  19
TORSDOF 27
ENDMDL
MODEL 9
REMARK VINA RESULT:      -4.8     14.497     17.480
REMARK  27 active torsions:
REMARK  status: ('A' for Active; 'I' for Inactive)
REMARK    1  A    between atoms: C_3  and  C_2 
REMARK    2  A    between atoms: C_4  and  C_3 
REMARK    3  A    between atoms: C_5  and  C_4 
REMARK    4  A    between atoms: C_6  and  C_5 
REMARK    5  A    between atoms: C_7  and  C_6 
REMARK    6  A    between atoms: C_8  and  C_7 
REMARK    7  A    between atoms: C_9  and  C_8 
REMARK    8  A    between atoms: C_10  and  C_9 
REMARK    9  A    between atoms: C_11  and  C_10 
REMARK   10  A    between atoms: C_12  and  C_11 
REMARK   11  A    between atoms: C_13  and  C_12 
REMARK   12  A    between atoms: C_14  and  C_13 
REMARK   13  A    between atoms: C_15  and  C_14 
REMARK   14  A    between atoms: C_22  and  C_15 
REMARK   15  A    between atoms: C_20  and  C_16 
REMARK   16  A    between atoms: O_23  and  C_16 
REMARK   17  A    between atoms: C_21  and  C_17 
REMARK   18  A    between atoms: O_29  and  C_17 
REMARK   19  A    between atoms: C_20  and  C_18 
REMARK   20  A    between atoms: O_30  and  C_18 
REMARK   21  A    between atoms: C_21  and  C_19 
REMARK   22  A    between atoms: O_31  and  C_19 
REMARK   23  A    between atoms: C_20  and  O_24 
REMARK   24  A    between atoms: C_21  and  O_25 
REMARK   25  A    between atoms: O_29  and  C_22 
REMARK   26  A    between atoms: P_32  and  O_30 
REMARK   27  A    between atoms: P_32  and  O_31 
ROOT
HETATM    1  O   UNK N   1      31.487  23.427  -3.154  0.00  0.00    -0.319 OA
ENDROOT
BRANCH   1   2
HETATM    2  C   UNK N   1      32.091  22.512  -4.001  0.00  0.00     0.212 C 
BRANCH   2   3
HETATM    3  C   UNK N   1      32.343  21.161  -3.331  0.00  0.00     0.166 C 
BRANCH   3   4
HETATM    4  C   UNK N   1      33.497  20.455  -4.031  0.00  0.00     0.215 C 
BRANCH   4   5
HETATM    5  O   UNK N   1      33.032  19.378  -4.796  0.00  0.00    -0.287 OA
BRANCH   5   6
HETATM    6  P   UNK N   1      33.517  19.706  -6.437  0.00  0.00     0.408 P 
HETATM    7  O   UNK N   1      34.288  21.254  -6.615  0.00  0.00    -0.624 OA
HETATM    8  O   UNK N   1      34.566  18.635  -6.837  0.00  0.00    -0.624 OA
BRANCH   6   9
HETATM    9  O   UNK N   1      32.188  19.490  -7.538  0.00  0.00    -0.287 OA
BRANCH   9  10
HETATM   10  C   UNK N   1      31.380  20.624  -7.417  0.00  0.00     0.215 C 
BRANCH  10  11
HETATM   11  C   UNK N   1      30.084  20.272  -6.701  0.00  0.00     0.166 C 
BRANCH  11  12
HETATM   12  C   UNK N   1      29.120  19.651  -7.697  0.00  0.00     0.198 C 
BRANCH  12  13
HETATM   13  O   UNK N   1      29.365  18.283  -7.815  0.00  0.00    -0.398 OA
HETATM   14  H   UNK N   1      29.280  17.519  -7.222  0.00  0.00     0.209 HD
ENDBRANCH  12  13
ENDBRANCH  11  12
BRANCH  11  15
HETATM   15  O   UNK N   1      29.517  21.426  -6.158  0.00  0.00    -0.391 OA
HETATM   16  H   UNK N   1      29.194  22.147  -6.721  0.00  0.00     0.210 HD
ENDBRANCH  11  15
ENDBRANCH  10  11
ENDBRANCH   9  10
ENDBRANCH   6   9
ENDBRANCH   5   6
ENDBRANCH   4   5
ENDBRANCH   3   4
BRANCH   3  17
HETATM   17  O   UNK N   1      32.686  21.347  -1.993  0.00  0.00    -0.391 OA
HETATM   18  H   UNK N   1      32.112  21.109  -1.247  0.00  0.00     0.210 HD
ENDBRANCH   3  17
ENDBRANCH   2   3
ENDBRANCH   1   2
BRANCH   1  19
HETATM   19  C   UNK N   1      30.266  23.287  -2.583  0.00  0.00     0.258 C 
HETATM   20  O   UNK N   1      30.199  23.046  -1.383  0.00  0.00    -0.265 OA
BRANCH  19  21
HETATM   21  C   UNK N   1      28.991  23.422  -3.353  0.00  0.00     0.111 C 
BRANCH  21  22
HETATM   22  C   UNK N   1      29.037  24.633  -4.266  0.00  0.00     0.010 C 
BRANCH  22  23
HETATM   23  C   UNK N   1      27.932  25.600  -3.890  0.00  0.00     0.000 C 
BRANCH  23  24
HETATM   24  C   UNK N   1      26.602  24.867  -3.776  0.00  0.00     0.000 C 
BRANCH  24  25
HETATM   25  C   UNK N   1      25.835  24.870  -5.094  0.00  0.00     0.000 C 
BRANCH  25  26
HETATM   26  C   UNK N   1      25.115  26.191  -5.338  0.00  0.00     0.000 C 
BRANCH  26  27
HETATM   27  C   UNK N   1      25.520  26.822  -6.661  0.00  0.00     0.000 C 
BRANCH  27  28
HETATM   28  C   UNK N   1      26.181  25.804  -7.579  0.00  0.00     0.000 C 
BRANCH  28  29
HETATM   29  C   UNK N   1      27.552  26.290  -8.006  0.00  0.00     0.000 C 
BRANCH  29  30
HETATM   30  C   UNK N   1      27.754  27.718  -7.555  0.00  0.00     0.000 C 
BRANCH  30  31
HETATM   31  C   UNK N   1      29.132  27.840  -6.944  0.00  0.00     0.000 C 
BRANCH  31  32
HETATM   32  C   UNK N   1      29.036  28.537  -5.605  0.00  0.00     0.000 C 
BRANCH  32  33
HETATM   33  C   UNK N   1      27.822  29.440  -5.605  0.00  0.00    -0.000 C 
BRANCH  33  34
HETATM   34  C   UNK N   1      27.091  29.300  -4.287  0.00  0.00    -0.005 C 
HETATM   35  C   UNK N   1      26.446  30.622  -3.928  0.00  0.00     0.005 C 
ENDBRANCH  33  34
ENDBRANCH  32  33
ENDBRANCH  31  32
ENDBRANCH  30  31
ENDBRANCH  29  30
ENDBRANCH  28  29
ENDBRANCH  27  28
ENDBRANCH  26  27
ENDBRANCH  25  26
ENDBRANCH  24  25
ENDBRANCH  23  24
ENDBRANCH  22  23
ENDBRANCH  21  22
ENDBRANCH  19  21
ENDBRANCH   1  19
TORSDOF 27
ENDMDL
