MODEL 1
REMARK VINA RESULT:      -7.6      0.000      0.000
REMARK  10 active torsions:
REMARK  status: ('A' for Active; 'I' for Inactive)
REMARK    1  A    between atoms: C_6  and  C_2 
REMARK    2  A    between atoms: O_30  and  C_2 
REMARK    3  A    between atoms: C_12  and  C_5 
REMARK    4  A    between atoms: C_5  and  N_14 
REMARK    5  A    between atoms: C_8  and  O_25 
REMARK    6  A    between atoms: N_15  and  C_10 
REMARK    7  A    between atoms: O_27  and  C_12 
REMARK    8  A    between atoms: C_13  and  N_24 
REMARK    9  A    between atoms: N_22  and  S_32 
REMARK   10  A    between atoms: S_32  and  O_30 
ROOT
HETATM    1  C   UNK N   1      35.883  13.881  12.904  0.00  0.00     0.180 C 
HETATM    2  C   UNK N   1      36.773  12.703  12.471  0.00  0.00     0.182 C 
HETATM    3  C   UNK N   1      36.929  11.962  13.767  0.00  0.00     0.198 C 
HETATM    4  C   UNK N   1      35.497  12.112  14.251  0.00  0.00     0.262 C 
HETATM    5  O   UNK N   1      37.806  12.630  14.629  0.00  0.00    -0.388 OA
HETATM    6  O   UNK N   1      35.165  13.468  14.055  0.00  0.00    -0.353 OA
HETATM    7  H   UNK N   1      38.515  12.987  15.186  0.00  0.00     0.210 HD
ENDROOT
BRANCH   2   8
HETATM    8  O   UNK N   1      37.999  13.087  11.922  0.00  0.00    -0.390 OA
HETATM    9  H   UNK N   1      38.883  12.690  11.976  0.00  0.00     0.210 HD
ENDBRANCH   2   8
BRANCH   4  10
HETATM   10  N   UNK N   1      35.280  11.706  15.641  0.00  0.00    -0.297 N 
HETATM   11  C   UNK N   1      35.078  10.440  16.091  0.00  0.00     0.188 A 
HETATM   12  N   UNK N   1      35.013  10.401  17.452  0.00  0.00    -0.346 N 
HETATM   13  C   UNK N   1      35.176  11.682  17.828  0.00  0.00     0.122 A 
ATOM     14  HN  UNK N   1      34.873   9.585  18.049  1.00  0.00     0.167 HD
HETATM   15  C   UNK N   1      35.203  12.241  19.095  0.00  0.00     0.131 A 
HETATM   16  C   UNK N   1      35.337  12.463  16.744  0.00  0.00     0.142 A 
HETATM   17  N   UNK N   1      35.374  13.593  19.194  0.00  0.00    -0.337 N 
HETATM   18  C   UNK N   1      35.525  14.372  18.073  0.00  0.00     0.183 A 
ATOM     19  HN  UNK N   1      35.390  14.031  20.116  1.00  0.00     0.168 HD
HETATM   20  N   UNK N   1      35.517  13.802  16.828  0.00  0.00    -0.336 N 
ATOM     21  HN  UNK N   1      35.645  14.369  15.989  1.00  0.00     0.168 HD
BRANCH  15  22
HETATM   22  N   UNK N   1      35.065  11.445  20.250  0.00  0.00    -0.383 N 
HETATM   23  H   UNK N   1      35.598  10.625  20.363  0.00  0.00     0.157 HD
HETATM   24  H   UNK N   1      34.429  11.713  20.951  0.00  0.00     0.157 HD
ENDBRANCH  15  22
ENDBRANCH   4  10
BRANCH   1  25
HETATM   25  C   UNK N   1      34.839  14.262  11.851  0.00  0.00     0.226 C 
BRANCH  25  26
HETATM   26  O   UNK N   1      34.870  15.622  11.457  0.00  0.00    -0.257 OA
BRANCH  26  27
HETATM   27  S   UNK N   1      35.239  16.084   9.778  0.00  0.00     0.363 S 
HETATM   28  O   UNK N   1      36.049  16.893  10.797  0.00  0.00    -0.175 OA
HETATM   29  O   UNK N   1      35.210  17.589   9.471  0.00  0.00    -0.175 OA
BRANCH  27  30
HETATM   30  N   UNK N   1      33.530  16.541   9.655  0.00  0.00    -0.243 N 
HETATM   31  C   UNK N   1      32.573  15.904   9.054  0.00  0.00     0.149 C 
ATOM     32  HN  UNK N   1      33.267  17.413  10.113  1.00  0.00     0.182 HD
BRANCH  31  33
HETATM   33  C   UNK N   1      32.726  14.595   8.285  0.00  0.00     0.146 C 
HETATM   34  C   UNK N   1      31.914  14.666   7.008  0.00  0.00     0.040 C 
BRANCH  33  35
HETATM   35  N   UNK N   1      32.339  13.399   9.009  0.00  0.00    -0.420 N 
HETATM   36  H   UNK N   1      31.526  12.850   8.731  0.00  0.00     0.150 HD
HETATM   37  H   UNK N   1      32.892  13.101   9.812  0.00  0.00     0.150 HD
ENDBRANCH  33  35
ENDBRANCH  31  33
BRANCH  31  38
HETATM   38  O   UNK N   1      31.339  16.442   9.099  0.00  0.00    -0.347 OA
HETATM   39  H   UNK N   1      31.179  17.286   9.474  0.00  0.00     0.219 HD
ENDBRANCH  31  38
ENDBRANCH  27  30
ENDBRANCH  26  27
ENDBRANCH  25  26
ENDBRANCH   1  25
TORSDOF 10
ENDMDL
MODEL 2
REMARK VINA RESULT:      -7.5      1.703      2.541
REMARK  10 active torsions:
REMARK  status: ('A' for Active; 'I' for Inactive)
REMARK    1  A    between atoms: C_6  and  C_2 
REMARK    2  A    between atoms: O_30  and  C_2 
REMARK    3  A    between atoms: C_12  and  C_5 
REMARK    4  A    between atoms: C_5  and  N_14 
REMARK    5  A    between atoms: C_8  and  O_25 
REMARK    6  A    between atoms: N_15  and  C_10 
REMARK    7  A    between atoms: O_27  and  C_12 
REMARK    8  A    between atoms: C_13  and  N_24 
REMARK    9  A    between atoms: N_22  and  S_32 
REMARK   10  A    between atoms: S_32  and  O_30 
ROOT
HETATM    1  C   UNK N   1      35.828  15.545  11.563  0.00  0.00     0.180 C 
HETATM    2  C   UNK N   1      36.572  14.649  10.557  0.00  0.00     0.182 C 
HETATM    3  C   UNK N   1      36.608  13.345  11.299  0.00  0.00     0.198 C 
HETATM    4  C   UNK N   1      35.197  13.398  11.858  0.00  0.00     0.262 C 
HETATM    5  O   UNK N   1      37.545  13.381  12.338  0.00  0.00    -0.388 OA
HETATM    6  O   UNK N   1      35.041  14.697  12.384  0.00  0.00    -0.353 OA
HETATM    7  H   UNK N   1      38.282  13.322  12.966  0.00  0.00     0.210 HD
ENDROOT
BRANCH   2   8
HETATM    8  O   UNK N   1      37.847  15.110  10.219  0.00  0.00    -0.390 OA
HETATM    9  H   UNK N   1      38.569  14.699   9.718  0.00  0.00     0.210 HD
ENDBRANCH   2   8
BRANCH   4  10
HETATM   10  N   UNK N   1      34.905  12.377  12.866  0.00  0.00    -0.297 N 
HETATM   11  C   UNK N   1      34.453  11.118  12.632  0.00  0.00     0.188 A 
HETATM   12  N   UNK N   1      34.383  10.394  13.785  0.00  0.00    -0.346 N 
HETATM   13  C   UNK N   1      34.799  11.246  14.737  0.00  0.00     0.122 A 
ATOM     14  HN  UNK N   1      34.082   9.425  13.899  1.00  0.00     0.167 HD
HETATM   15  C   UNK N   1      34.939  11.057  16.103  0.00  0.00     0.131 A 
HETATM   16  C   UNK N   1      35.113  12.434  14.187  0.00  0.00     0.142 A 
HETATM   17  N   UNK N   1      35.378  12.111  16.854  0.00  0.00    -0.337 N 
HETATM   18  C   UNK N   1      35.681  13.318  16.271  0.00  0.00     0.183 A 
ATOM     19  HN  UNK N   1      35.482  12.000  17.863  1.00  0.00     0.168 HD
HETATM   20  N   UNK N   1      35.558  13.483  14.918  0.00  0.00    -0.336 N 
ATOM     21  HN  UNK N   1      35.796  14.370  14.472  1.00  0.00     0.168 HD
BRANCH  15  22
HETATM   22  N   UNK N   1      34.645   9.817  16.704  0.00  0.00    -0.383 N 
HETATM   23  H   UNK N   1      34.925   9.626  17.628  0.00  0.00     0.157 HD
HETATM   24  H   UNK N   1      34.154   9.134  16.193  0.00  0.00     0.157 HD
ENDBRANCH  15  22
ENDBRANCH   4  10
BRANCH   1  25
HETATM   25  C   UNK N   1      34.860  16.524  10.892  0.00  0.00     0.226 C 
BRANCH  25  26
HETATM   26  O   UNK N   1      35.443  17.334   9.888  0.00  0.00    -0.257 OA
BRANCH  26  27
HETATM   27  S   UNK N   1      34.655  17.548   8.305  0.00  0.00     0.363 S 
HETATM   28  O   UNK N   1      35.327  18.833   8.801  0.00  0.00    -0.175 OA
HETATM   29  O   UNK N   1      33.732  18.767   8.171  0.00  0.00    -0.175 OA
BRANCH  27  30
HETATM   30  N   UNK N   1      33.146  17.130   9.135  0.00  0.00    -0.243 N 
HETATM   31  C   UNK N   1      32.153  16.426   8.683  0.00  0.00     0.149 C 
ATOM     32  HN  UNK N   1      33.044  17.486  10.084  1.00  0.00     0.182 HD
BRANCH  31  33
HETATM   33  C   UNK N   1      32.066  15.808   7.291  0.00  0.00     0.146 C 
HETATM   34  C   UNK N   1      30.875  16.390   6.557  0.00  0.00     0.040 C 
BRANCH  33  35
HETATM   35  N   UNK N   1      31.963  14.361   7.258  0.00  0.00    -0.420 N 
HETATM   36  H   UNK N   1      31.091  13.886   7.489  0.00  0.00     0.150 HD
HETATM   37  H   UNK N   1      32.779  13.809   6.998  0.00  0.00     0.150 HD
ENDBRANCH  33  35
ENDBRANCH  31  33
BRANCH  31  38
HETATM   38  O   UNK N   1      31.102  16.230   9.502  0.00  0.00    -0.347 OA
HETATM   39  H   UNK N   1      30.455  15.574   9.331  0.00  0.00     0.219 HD
ENDBRANCH  31  38
ENDBRANCH  27  30
ENDBRANCH  26  27
ENDBRANCH  25  26
ENDBRANCH   1  25
TORSDOF 10
ENDMDL
MODEL 3
REMARK VINA RESULT:      -7.2      8.943     11.611
REMARK  10 active torsions:
REMARK  status: ('A' for Active; 'I' for Inactive)
REMARK    1  A    between atoms: C_6  and  C_2 
REMARK    2  A    between atoms: O_30  and  C_2 
REMARK    3  A    between atoms: C_12  and  C_5 
REMARK    4  A    between atoms: C_5  and  N_14 
REMARK    5  A    between atoms: C_8  and  O_25 
REMARK    6  A    between atoms: N_15  and  C_10 
REMARK    7  A    between atoms: O_27  and  C_12 
REMARK    8  A    between atoms: C_13  and  N_24 
REMARK    9  A    between atoms: N_22  and  S_32 
REMARK   10  A    between atoms: S_32  and  O_30 
ROOT
HETATM    1  C   UNK N   1      30.429  17.952   8.735  0.00  0.00     0.180 C 
HETATM    2  C   UNK N   1      29.465  17.232   9.693  0.00  0.00     0.182 C 
HETATM    3  C   UNK N   1      28.161  17.382   8.963  0.00  0.00     0.198 C 
HETATM    4  C   UNK N   1      28.690  17.118   7.564  0.00  0.00     0.262 C 
HETATM    5  O   UNK N   1      27.675  18.691   9.060  0.00  0.00    -0.388 OA
HETATM    6  O   UNK N   1      29.856  17.902   7.439  0.00  0.00    -0.353 OA
HETATM    7  H   UNK N   1      27.241  19.541   9.231  0.00  0.00     0.210 HD
ENDROOT
BRANCH   2   8
HETATM    8  O   UNK N   1      29.425  17.778  10.979  0.00  0.00    -0.390 OA
HETATM    9  H   UNK N   1      28.698  17.885  11.612  0.00  0.00     0.210 HD
ENDBRANCH   2   8
BRANCH   4  10
HETATM   10  N   UNK N   1      27.737  17.407   6.491  0.00  0.00    -0.297 N 
HETATM   11  C   UNK N   1      26.930  16.512   5.865  0.00  0.00     0.188 A 
HETATM   12  N   UNK N   1      26.092  17.130   4.984  0.00  0.00    -0.346 N 
HETATM   13  C   UNK N   1      26.411  18.432   5.082  0.00  0.00     0.122 A 
ATOM     14  HN  UNK N   1      25.384  16.701   4.387  1.00  0.00     0.167 HD
HETATM   15  C   UNK N   1      25.883  19.530   4.422  0.00  0.00     0.131 A 
HETATM   16  C   UNK N   1      27.395  18.599   5.985  0.00  0.00     0.142 A 
HETATM   17  N   UNK N   1      26.408  20.760   4.704  0.00  0.00    -0.337 N 
HETATM   18  C   UNK N   1      27.421  20.904   5.621  0.00  0.00     0.183 A 
ATOM     19  HN  UNK N   1      26.042  21.584   4.227  1.00  0.00     0.168 HD
HETATM   20  N   UNK N   1      27.918  19.812   6.281  0.00  0.00    -0.336 N 
ATOM     21  HN  UNK N   1      28.659  19.910   6.976  1.00  0.00     0.168 HD
BRANCH  15  22
HETATM   22  N   UNK N   1      24.834  19.391   3.492  0.00  0.00    -0.383 N 
HETATM   23  H   UNK N   1      24.675  18.533   3.036  0.00  0.00     0.157 HD
HETATM   24  H   UNK N   1      24.252  20.161   3.297  0.00  0.00     0.157 HD
ENDBRANCH  15  22
ENDBRANCH   4  10
BRANCH   1  25
HETATM   25  C   UNK N   1      31.796  17.269   8.635  0.00  0.00     0.226 C 
BRANCH  25  26
HETATM   26  O   UNK N   1      32.713  17.910   7.768  0.00  0.00    -0.257 OA
BRANCH  26  27
HETATM   27  S   UNK N   1      33.486  17.026   6.430  0.00  0.00     0.363 S 
HETATM   28  O   UNK N   1      34.346  18.190   6.934  0.00  0.00    -0.175 OA
HETATM   29  O   UNK N   1      34.024  17.885   5.276  0.00  0.00    -0.175 OA
BRANCH  27  30
HETATM   30  N   UNK N   1      32.081  17.505   5.461  0.00  0.00    -0.243 N 
HETATM   31  C   UNK N   1      31.482  16.825   4.532  0.00  0.00     0.149 C 
ATOM     32  HN  UNK N   1      31.697  18.428   5.657  1.00  0.00     0.182 HD
BRANCH  31  33
HETATM   33  C   UNK N   1      31.885  15.435   4.050  0.00  0.00     0.146 C 
HETATM   34  C   UNK N   1      32.915  15.567   2.946  0.00  0.00     0.040 C 
BRANCH  33  35
HETATM   35  N   UNK N   1      30.799  14.605   3.566  0.00  0.00    -0.420 N 
HETATM   36  H   UNK N   1      29.825  14.889   3.672  0.00  0.00     0.150 HD
HETATM   37  H   UNK N   1      31.014  13.718   3.111  0.00  0.00     0.150 HD
ENDBRANCH  33  35
ENDBRANCH  31  33
BRANCH  31  38
HETATM   38  O   UNK N   1      30.419  17.393   3.930  0.00  0.00    -0.347 OA
HETATM   39  H   UNK N   1      30.266  18.318   3.960  0.00  0.00     0.219 HD
ENDBRANCH  31  38
ENDBRANCH  27  30
ENDBRANCH  26  27
ENDBRANCH  25  26
ENDBRANCH   1  25
TORSDOF 10
ENDMDL
MODEL 4
REMARK VINA RESULT:      -7.1      5.389     11.620
REMARK  10 active torsions:
REMARK  status: ('A' for Active; 'I' for Inactive)
REMARK    1  A    between atoms: C_6  and  C_2 
REMARK    2  A    between atoms: O_30  and  C_2 
REMARK    3  A    between atoms: C_12  and  C_5 
REMARK    4  A    between atoms: C_5  and  N_14 
REMARK    5  A    between atoms: C_8  and  O_25 
REMARK    6  A    between atoms: N_15  and  C_10 
REMARK    7  A    between atoms: O_27  and  C_12 
REMARK    8  A    between atoms: C_13  and  N_24 
REMARK    9  A    between atoms: N_22  and  S_32 
REMARK   10  A    between atoms: S_32  and  O_30 
ROOT
HETATM    1  C   UNK N   1      30.360  18.130   8.427  0.00  0.00     0.180 C 
HETATM    2  C   UNK N   1      29.519  17.469   9.533  0.00  0.00     0.182 C 
HETATM    3  C   UNK N   1      28.143  17.542   8.938  0.00  0.00     0.198 C 
HETATM    4  C   UNK N   1      28.527  17.183   7.513  0.00  0.00     0.262 C 
HETATM    5  O   UNK N   1      27.639  18.847   8.991  0.00  0.00    -0.388 OA
HETATM    6  O   UNK N   1      29.654  17.974   7.208  0.00  0.00    -0.353 OA
HETATM    7  H   UNK N   1      27.205  19.700   9.145  0.00  0.00     0.210 HD
ENDROOT
BRANCH   2   8
HETATM    8  O   UNK N   1      29.603  18.109  10.772  0.00  0.00    -0.390 OA
HETATM    9  H   UNK N   1      28.919  18.455  11.366  0.00  0.00     0.210 HD
ENDBRANCH   2   8
BRANCH   4  10
HETATM   10  N   UNK N   1      27.459  17.375   6.530  0.00  0.00    -0.297 N 
HETATM   11  C   UNK N   1      26.525  16.460   6.162  0.00  0.00     0.188 A 
HETATM   12  N   UNK N   1      25.616  16.997   5.300  0.00  0.00    -0.346 N 
HETATM   13  C   UNK N   1      26.021  18.269   5.142  0.00  0.00     0.122 A 
ATOM     14  HN  UNK N   1      24.812  16.537   4.872  1.00  0.00     0.167 HD
HETATM   15  C   UNK N   1      25.476  19.289   4.379  0.00  0.00     0.131 A 
HETATM   16  C   UNK N   1      27.124  18.496   5.880  0.00  0.00     0.142 A 
HETATM   17  N   UNK N   1      26.104  20.503   4.390  0.00  0.00    -0.337 N 
HETATM   18  C   UNK N   1      27.235  20.707   5.141  0.00  0.00     0.183 A 
ATOM     19  HN  UNK N   1      25.727  21.268   3.830  1.00  0.00     0.168 HD
HETATM   20  N   UNK N   1      27.750  19.696   5.907  0.00  0.00    -0.336 N 
ATOM     21  HN  UNK N   1      28.581  19.842   6.481  1.00  0.00     0.168 HD
BRANCH  15  22
HETATM   22  N   UNK N   1      24.306  19.090   3.619  0.00  0.00    -0.383 N 
HETATM   23  H   UNK N   1      24.237  18.337   2.989  0.00  0.00     0.157 HD
HETATM   24  H   UNK N   1      23.549  19.711   3.720  0.00  0.00     0.157 HD
ENDBRANCH  15  22
ENDBRANCH   4  10
BRANCH   1  25
HETATM   25  C   UNK N   1      31.724  17.464   8.231  0.00  0.00     0.226 C 
BRANCH  25  26
HETATM   26  O   UNK N   1      32.830  18.340   8.349  0.00  0.00    -0.257 OA
BRANCH  26  27
HETATM   27  S   UNK N   1      34.490  17.712   8.494  0.00  0.00     0.363 S 
HETATM   28  O   UNK N   1      33.995  17.723   7.043  0.00  0.00    -0.175 OA
HETATM   29  O   UNK N   1      34.773  16.382   7.780  0.00  0.00    -0.175 OA
BRANCH  27  30
HETATM   30  N   UNK N   1      33.791  16.437   9.508  0.00  0.00    -0.243 N 
HETATM   31  C   UNK N   1      34.376  15.740  10.433  0.00  0.00     0.149 C 
ATOM     32  HN  UNK N   1      32.807  16.225   9.344  1.00  0.00     0.182 HD
BRANCH  31  33
HETATM   33  C   UNK N   1      35.841  15.863  10.842  0.00  0.00     0.146 C 
HETATM   34  C   UNK N   1      36.666  14.868  10.051  0.00  0.00     0.040 C 
BRANCH  33  35
HETATM   35  N   UNK N   1      36.112  15.664  12.253  0.00  0.00    -0.420 N 
HETATM   36  H   UNK N   1      35.481  15.124  12.845  0.00  0.00     0.150 HD
HETATM   37  H   UNK N   1      36.952  16.073  12.662  0.00  0.00     0.150 HD
ENDBRANCH  33  35
ENDBRANCH  31  33
BRANCH  31  38
HETATM   38  O   UNK N   1      33.637  14.822  11.085  0.00  0.00    -0.347 OA
HETATM   39  H   UNK N   1      33.320  14.048  10.662  0.00  0.00     0.219 HD
ENDBRANCH  31  38
ENDBRANCH  27  30
ENDBRANCH  26  27
ENDBRANCH  25  26
ENDBRANCH   1  25
TORSDOF 10
ENDMDL
MODEL 5
REMARK VINA RESULT:      -7.1      3.486      5.537
REMARK  10 active torsions:
REMARK  status: ('A' for Active; 'I' for Inactive)
REMARK    1  A    between atoms: C_6  and  C_2 
REMARK    2  A    between atoms: O_30  and  C_2 
REMARK    3  A    between atoms: C_12  and  C_5 
REMARK    4  A    between atoms: C_5  and  N_14 
REMARK    5  A    between atoms: C_8  and  O_25 
REMARK    6  A    between atoms: N_15  and  C_10 
REMARK    7  A    between atoms: O_27  and  C_12 
REMARK    8  A    between atoms: C_13  and  N_24 
REMARK    9  A    between atoms: N_22  and  S_32 
REMARK   10  A    between atoms: S_32  and  O_30 
ROOT
HETATM    1  C   UNK N   1      33.069  15.110   9.423  0.00  0.00     0.180 C 
HETATM    2  C   UNK N   1      33.963  16.313   9.078  0.00  0.00     0.182 C 
HETATM    3  C   UNK N   1      35.167  16.037   9.932  0.00  0.00     0.198 C 
HETATM    4  C   UNK N   1      35.235  14.538   9.694  0.00  0.00     0.262 C 
HETATM    5  O   UNK N   1      34.902  16.304  11.280  0.00  0.00    -0.388 OA
HETATM    6  O   UNK N   1      33.919  14.062   9.862  0.00  0.00    -0.353 OA
HETATM    7  H   UNK N   1      34.799  16.617  12.192  0.00  0.00     0.210 HD
ENDROOT
BRANCH   2   8
HETATM    8  O   UNK N   1      33.382  17.553   9.356  0.00  0.00    -0.390 OA
HETATM    9  H   UNK N   1      32.487  17.894   9.204  0.00  0.00     0.210 HD
ENDBRANCH   2   8
BRANCH   4  10
HETATM   10  N   UNK N   1      36.173  13.828  10.566  0.00  0.00    -0.297 N 
HETATM   11  C   UNK N   1      37.518  13.734  10.399  0.00  0.00     0.188 A 
HETATM   12  N   UNK N   1      38.104  13.087  11.446  0.00  0.00    -0.346 N 
HETATM   13  C   UNK N   1      37.080  12.781  12.261  0.00  0.00     0.122 A 
ATOM     14  HN  UNK N   1      39.095  12.883  11.580  1.00  0.00     0.167 HD
HETATM   15  C   UNK N   1      37.078  12.123  13.481  0.00  0.00     0.131 A 
HETATM   16  C   UNK N   1      35.924  13.225  11.735  0.00  0.00     0.142 A 
HETATM   17  N   UNK N   1      35.877  11.929  14.102  0.00  0.00    -0.337 N 
HETATM   18  C   UNK N   1      34.708  12.382  13.539  0.00  0.00     0.183 A 
ATOM     19  HN  UNK N   1      35.847  11.441  14.997  1.00  0.00     0.168 HD
HETATM   20  N   UNK N   1      34.728  13.049  12.344  0.00  0.00    -0.336 N 
ATOM     21  HN  UNK N   1      33.867  13.404  11.925  1.00  0.00     0.168 HD
BRANCH  15  22
HETATM   22  N   UNK N   1      38.275  11.671  14.070  0.00  0.00    -0.383 N 
HETATM   23  H   UNK N   1      39.019  12.292  14.240  0.00  0.00     0.157 HD
HETATM   24  H   UNK N   1      38.368  10.722  14.315  0.00  0.00     0.157 HD
ENDBRANCH  15  22
ENDBRANCH   4  10
BRANCH   1  25
HETATM   25  C   UNK N   1      32.298  14.570   8.215  0.00  0.00     0.226 C 
BRANCH  25  26
HETATM   26  O   UNK N   1      32.314  15.416   7.080  0.00  0.00    -0.257 OA
BRANCH  26  27
HETATM   27  S   UNK N   1      30.807  16.093   6.417  0.00  0.00     0.363 S 
HETATM   28  O   UNK N   1      31.928  16.030   5.372  0.00  0.00    -0.175 OA
HETATM   29  O   UNK N   1      30.944  17.411   5.641  0.00  0.00    -0.175 OA
BRANCH  27  30
HETATM   30  N   UNK N   1      30.990  17.374   7.628  0.00  0.00    -0.243 N 
HETATM   31  C   UNK N   1      30.057  18.027   8.250  0.00  0.00     0.149 C 
ATOM     32  HN  UNK N   1      31.948  17.631   7.865  1.00  0.00     0.182 HD
BRANCH  31  33
HETATM   33  C   UNK N   1      28.557  17.835   8.049  0.00  0.00     0.146 C 
HETATM   34  C   UNK N   1      28.080  18.745   6.934  0.00  0.00     0.040 C 
BRANCH  33  35
HETATM   35  N   UNK N   1      27.736  18.076   9.220  0.00  0.00    -0.420 N 
HETATM   36  H   UNK N   1      28.148  18.174  10.147  0.00  0.00     0.150 HD
HETATM   37  H   UNK N   1      26.724  18.148   9.113  0.00  0.00     0.150 HD
ENDBRANCH  33  35
ENDBRANCH  31  33
BRANCH  31  38
HETATM   38  O   UNK N   1      30.436  18.961   9.143  0.00  0.00    -0.347 OA
HETATM   39  H   UNK N   1      30.688  19.824   8.881  0.00  0.00     0.219 HD
ENDBRANCH  31  38
ENDBRANCH  27  30
ENDBRANCH  26  27
ENDBRANCH  25  26
ENDBRANCH   1  25
TORSDOF 10
ENDMDL
MODEL 6
REMARK VINA RESULT:      -6.9      5.772      8.072
REMARK  10 active torsions:
REMARK  status: ('A' for Active; 'I' for Inactive)
REMARK    1  A    between atoms: C_6  and  C_2 
REMARK    2  A    between atoms: O_30  and  C_2 
REMARK    3  A    between atoms: C_12  and  C_5 
REMARK    4  A    between atoms: C_5  and  N_14 
REMARK    5  A    between atoms: C_8  and  O_25 
REMARK    6  A    between atoms: N_15  and  C_10 
REMARK    7  A    between atoms: O_27  and  C_12 
REMARK    8  A    between atoms: C_13  and  N_24 
REMARK    9  A    between atoms: N_22  and  S_32 
REMARK   10  A    between atoms: S_32  and  O_30 
ROOT
HETATM    1  C   UNK N   1      32.015  17.034   6.728  0.00  0.00     0.180 C 
HETATM    2  C   UNK N   1      32.721  16.643   5.419  0.00  0.00     0.182 C 
HETATM    3  C   UNK N   1      33.967  15.989   5.942  0.00  0.00     0.198 C 
HETATM    4  C   UNK N   1      33.322  15.230   7.088  0.00  0.00     0.262 C 
HETATM    5  O   UNK N   1      34.868  16.940   6.434  0.00  0.00    -0.388 OA
HETATM    6  O   UNK N   1      32.484  16.158   7.740  0.00  0.00    -0.353 OA
HETATM    7  H   UNK N   1      35.569  17.576   6.645  0.00  0.00     0.210 HD
ENDROOT
BRANCH   2   8
HETATM    8  O   UNK N   1      32.995  17.722   4.575  0.00  0.00    -0.390 OA
HETATM    9  H   UNK N   1      32.445  18.464   4.276  0.00  0.00     0.210 HD
ENDBRANCH   2   8
BRANCH   4  10
HETATM   10  N   UNK N   1      34.271  14.622   8.023  0.00  0.00    -0.297 N 
HETATM   11  C   UNK N   1      34.792  13.370   7.945  0.00  0.00     0.188 A 
HETATM   12  N   UNK N   1      35.723  13.158   8.918  0.00  0.00    -0.346 N 
HETATM   13  C   UNK N   1      35.756  14.315   9.602  0.00  0.00     0.122 A 
ATOM     14  HN  UNK N   1      36.269  12.313   9.088  1.00  0.00     0.167 HD
HETATM   15  C   UNK N   1      36.522  14.680  10.697  0.00  0.00     0.131 A 
HETATM   16  C   UNK N   1      34.888  15.192   9.065  0.00  0.00     0.142 A 
HETATM   17  N   UNK N   1      36.347  15.934  11.212  0.00  0.00    -0.337 N 
HETATM   18  C   UNK N   1      35.446  16.808  10.654  0.00  0.00     0.183 A 
ATOM     19  HN  UNK N   1      36.893  16.225  12.023  1.00  0.00     0.168 HD
HETATM   20  N   UNK N   1      34.711  16.440   9.559  0.00  0.00    -0.336 N 
ATOM     21  HN  UNK N   1      34.051  17.088   9.127  1.00  0.00     0.168 HD
BRANCH  15  22
HETATM   22  N   UNK N   1      37.460  13.793  11.263  0.00  0.00    -0.383 N 
HETATM   23  H   UNK N   1      37.824  13.043  10.740  0.00  0.00     0.157 HD
HETATM   24  H   UNK N   1      37.754  13.926  12.193  0.00  0.00     0.157 HD
ENDBRANCH  15  22
ENDBRANCH   4  10
BRANCH   1  25
HETATM   25  C   UNK N   1      30.495  16.856   6.666  0.00  0.00     0.226 C 
BRANCH  25  26
HETATM   26  O   UNK N   1      29.855  16.819   7.928  0.00  0.00    -0.257 OA
BRANCH  26  27
HETATM   27  S   UNK N   1      28.980  18.236   8.559  0.00  0.00     0.363 S 
HETATM   28  O   UNK N   1      29.299  17.213   9.654  0.00  0.00    -0.175 OA
HETATM   29  O   UNK N   1      27.758  17.938   9.439  0.00  0.00    -0.175 OA
BRANCH  27  30
HETATM   30  N   UNK N   1      27.671  17.767   7.460  0.00  0.00    -0.243 N 
HETATM   31  C   UNK N   1      27.318  18.334   6.348  0.00  0.00     0.149 C 
ATOM     32  HN  UNK N   1      27.127  16.951   7.737  1.00  0.00     0.182 HD
BRANCH  31  33
HETATM   33  C   UNK N   1      27.966  19.575   5.742  0.00  0.00     0.146 C 
HETATM   34  C   UNK N   1      27.072  20.775   5.983  0.00  0.00     0.040 C 
BRANCH  33  35
HETATM   35  N   UNK N   1      28.254  19.497   4.322  0.00  0.00    -0.420 N 
HETATM   36  H   UNK N   1      28.529  20.321   3.789  0.00  0.00     0.150 HD
HETATM   37  H   UNK N   1      28.180  18.597   3.847  0.00  0.00     0.150 HD
ENDBRANCH  33  35
ENDBRANCH  31  33
BRANCH  31  38
HETATM   38  O   UNK N   1      26.288  17.793   5.670  0.00  0.00    -0.347 OA
HETATM   39  H   UNK N   1      25.652  17.246   6.088  0.00  0.00     0.219 HD
ENDBRANCH  31  38
ENDBRANCH  27  30
ENDBRANCH  26  27
ENDBRANCH  25  26
ENDBRANCH   1  25
TORSDOF 10
ENDMDL
MODEL 7
REMARK VINA RESULT:      -6.7      6.977      9.334
REMARK  10 active torsions:
REMARK  status: ('A' for Active; 'I' for Inactive)
REMARK    1  A    between atoms: C_6  and  C_2 
REMARK    2  A    between atoms: O_30  and  C_2 
REMARK    3  A    between atoms: C_12  and  C_5 
REMARK    4  A    between atoms: C_5  and  N_14 
REMARK    5  A    between atoms: C_8  and  O_25 
REMARK    6  A    between atoms: N_15  and  C_10 
REMARK    7  A    between atoms: O_27  and  C_12 
REMARK    8  A    between atoms: C_13  and  N_24 
REMARK    9  A    between atoms: N_22  and  S_32 
REMARK   10  A    between atoms: S_32  and  O_30 
ROOT
HETATM    1  C   UNK N   1      28.712  17.111   7.518  0.00  0.00     0.180 C 
HETATM    2  C   UNK N   1      28.600  18.323   8.458  0.00  0.00     0.182 C 
HETATM    3  C   UNK N   1      29.921  18.264   9.169  0.00  0.00     0.198 C 
HETATM    4  C   UNK N   1      30.775  17.907   7.965  0.00  0.00     0.262 C 
HETATM    5  O   UNK N   1      29.943  17.225  10.107  0.00  0.00    -0.388 OA
HETATM    6  O   UNK N   1      30.092  16.865   7.305  0.00  0.00    -0.353 OA
HETATM    7  H   UNK N   1      29.940  16.615  10.861  0.00  0.00     0.210 HD
ENDROOT
BRANCH   2   8
HETATM    8  O   UNK N   1      27.515  18.265   9.336  0.00  0.00    -0.390 OA
HETATM    9  H   UNK N   1      26.625  17.892   9.238  0.00  0.00     0.210 HD
ENDBRANCH   2   8
BRANCH   4  10
HETATM   10  N   UNK N   1      32.149  17.521   8.290  0.00  0.00    -0.297 N 
HETATM   11  C   UNK N   1      33.207  18.357   8.452  0.00  0.00     0.188 A 
HETATM   12  N   UNK N   1      34.321  17.679   8.850  0.00  0.00    -0.346 N 
HETATM   13  C   UNK N   1      33.919  16.398   8.922  0.00  0.00     0.122 A 
ATOM     14  HN  UNK N   1      35.247  18.058   9.047  1.00  0.00     0.167 HD
HETATM   15  C   UNK N   1      34.628  15.262   9.279  0.00  0.00     0.131 A 
HETATM   16  C   UNK N   1      32.619  16.303   8.588  0.00  0.00     0.142 A 
HETATM   17  N   UNK N   1      33.971  14.064   9.256  0.00  0.00    -0.337 N 
HETATM   18  C   UNK N   1      32.646  13.991   8.900  0.00  0.00     0.183 A 
ATOM     19  HN  UNK N   1      34.472  13.211   9.507  1.00  0.00     0.168 HD
HETATM   20  N   UNK N   1      31.953  15.124   8.571  0.00  0.00    -0.336 N 
ATOM     21  HN  UNK N   1      30.965  15.083   8.320  1.00  0.00     0.168 HD
BRANCH  15  22
HETATM   22  N   UNK N   1      35.983  15.334   9.661  0.00  0.00    -0.383 N 
HETATM   23  H   UNK N   1      36.257  15.856  10.448  0.00  0.00     0.157 HD
HETATM   24  H   UNK N   1      36.662  14.855   9.133  0.00  0.00     0.157 HD
ENDBRANCH  15  22
ENDBRANCH   4  10
BRANCH   1  25
HETATM   25  C   UNK N   1      28.095  17.363   6.139  0.00  0.00     0.226 C 
BRANCH  25  26
HETATM   26  O   UNK N   1      27.719  16.191   5.439  0.00  0.00    -0.257 OA
BRANCH  26  27
HETATM   27  S   UNK N   1      28.412  15.810   3.844  0.00  0.00     0.363 S 
HETATM   28  O   UNK N   1      27.135  15.011   4.131  0.00  0.00    -0.175 OA
HETATM   29  O   UNK N   1      28.583  14.318   3.522  0.00  0.00    -0.175 OA
BRANCH  27  30
HETATM   30  N   UNK N   1      29.846  15.264   4.731  0.00  0.00    -0.243 N 
HETATM   31  C   UNK N   1      31.078  15.638   4.567  0.00  0.00     0.149 C 
ATOM     32  HN  UNK N   1      29.684  14.571   5.460  1.00  0.00     0.182 HD
BRANCH  31  33
HETATM   33  C   UNK N   1      31.569  16.643   3.529  0.00  0.00     0.146 C 
HETATM   34  C   UNK N   1      33.001  16.318   3.154  0.00  0.00     0.040 C 
BRANCH  33  35
HETATM   35  N   UNK N   1      31.506  18.035   3.933  0.00  0.00    -0.420 N 
HETATM   36  H   UNK N   1      30.618  18.484   4.157  0.00  0.00     0.150 HD
HETATM   37  H   UNK N   1      32.368  18.576   3.993  0.00  0.00     0.150 HD
ENDBRANCH  33  35
ENDBRANCH  31  33
BRANCH  31  38
HETATM   38  O   UNK N   1      32.010  15.088   5.369  0.00  0.00    -0.347 OA
HETATM   39  H   UNK N   1      31.831  14.877   6.265  0.00  0.00     0.219 HD
ENDBRANCH  31  38
ENDBRANCH  27  30
ENDBRANCH  26  27
ENDBRANCH  25  26
ENDBRANCH   1  25
TORSDOF 10
ENDMDL
MODEL 8
REMARK VINA RESULT:      -6.7      3.237      4.696
REMARK  10 active torsions:
REMARK  status: ('A' for Active; 'I' for Inactive)
REMARK    1  A    between atoms: C_6  and  C_2 
REMARK    2  A    between atoms: O_30  and  C_2 
REMARK    3  A    between atoms: C_12  and  C_5 
REMARK    4  A    between atoms: C_5  and  N_14 
REMARK    5  A    between atoms: C_8  and  O_25 
REMARK    6  A    between atoms: N_15  and  C_10 
REMARK    7  A    between atoms: O_27  and  C_12 
REMARK    8  A    between atoms: C_13  and  N_24 
REMARK    9  A    between atoms: N_22  and  S_32 
REMARK   10  A    between atoms: S_32  and  O_30 
ROOT
HETATM    1  C   UNK N   1      34.143  14.700   8.635  0.00  0.00     0.180 C 
HETATM    2  C   UNK N   1      34.237  15.969   9.500  0.00  0.00     0.182 C 
HETATM    3  C   UNK N   1      34.491  15.380  10.857  0.00  0.00     0.198 C 
HETATM    4  C   UNK N   1      35.462  14.297  10.421  0.00  0.00     0.262 C 
HETATM    5  O   UNK N   1      33.328  14.807  11.384  0.00  0.00    -0.388 OA
HETATM    6  O   UNK N   1      34.871  13.681   9.298  0.00  0.00    -0.353 OA
HETATM    7  H   UNK N   1      32.514  14.535  11.837  0.00  0.00     0.210 HD
ENDROOT
BRANCH   2   8
HETATM    8  O   UNK N   1      33.090  16.767   9.467  0.00  0.00    -0.390 OA
HETATM    9  H   UNK N   1      32.937  17.687   9.732  0.00  0.00     0.210 HD
ENDBRANCH   2   8
BRANCH   4  10
HETATM   10  N   UNK N   1      35.783  13.316  11.459  0.00  0.00    -0.297 N 
HETATM   11  C   UNK N   1      35.784  11.965  11.322  0.00  0.00     0.188 A 
HETATM   12  N   UNK N   1      36.229  11.350  12.455  0.00  0.00    -0.346 N 
HETATM   13  C   UNK N   1      36.496  12.363  13.297  0.00  0.00     0.122 A 
ATOM     14  HN  UNK N   1      36.335  10.349  12.624  1.00  0.00     0.167 HD
HETATM   15  C   UNK N   1      36.980  12.338  14.595  0.00  0.00     0.131 A 
HETATM   16  C   UNK N   1      36.230  13.540  12.701  0.00  0.00     0.142 A 
HETATM   17  N   UNK N   1      37.151  13.531  15.239  0.00  0.00    -0.337 N 
HETATM   18  C   UNK N   1      36.861  14.720  14.613  0.00  0.00     0.183 A 
ATOM     19  HN  UNK N   1      37.498  13.540  16.198  1.00  0.00     0.168 HD
HETATM   20  N   UNK N   1      36.404  14.730  13.323  0.00  0.00    -0.336 N 
ATOM     21  HN  UNK N   1      36.201  15.608  12.844  1.00  0.00     0.168 HD
BRANCH  15  22
HETATM   22  N   UNK N   1      37.294  11.122  15.236  0.00  0.00    -0.383 N 
HETATM   23  H   UNK N   1      36.834  10.856  16.064  0.00  0.00     0.157 HD
HETATM   24  H   UNK N   1      37.981  10.533  14.849  0.00  0.00     0.157 HD
ENDBRANCH  15  22
ENDBRANCH   4  10
BRANCH   1  25
HETATM   25  C   UNK N   1      34.783  14.867   7.254  0.00  0.00     0.226 C 
BRANCH  25  26
HETATM   26  O   UNK N   1      33.860  15.004   6.190  0.00  0.00    -0.257 OA
BRANCH  26  27
HETATM   27  S   UNK N   1      33.652  16.559   5.347  0.00  0.00     0.363 S 
HETATM   28  O   UNK N   1      35.089  16.350   5.839  0.00  0.00    -0.175 OA
HETATM   29  O   UNK N   1      34.197  17.798   6.073  0.00  0.00    -0.175 OA
BRANCH  27  30
HETATM   30  N   UNK N   1      32.481  16.954   6.617  0.00  0.00    -0.243 N 
HETATM   31  C   UNK N   1      31.206  17.166   6.492  0.00  0.00     0.149 C 
ATOM     32  HN  UNK N   1      32.854  17.025   7.563  1.00  0.00     0.182 HD
BRANCH  31  33
HETATM   33  C   UNK N   1      30.428  17.137   5.180  0.00  0.00     0.146 C 
HETATM   34  C   UNK N   1      29.116  17.875   5.359  0.00  0.00     0.040 C 
BRANCH  33  35
HETATM   35  N   UNK N   1      30.142  15.815   4.655  0.00  0.00    -0.420 N 
HETATM   36  H   UNK N   1      29.184  15.492   4.521  0.00  0.00     0.150 HD
HETATM   37  H   UNK N   1      30.916  15.196   4.415  0.00  0.00     0.150 HD
ENDBRANCH  33  35
ENDBRANCH  31  33
BRANCH  31  38
HETATM   38  O   UNK N   1      30.507  17.446   7.608  0.00  0.00    -0.347 OA
HETATM   39  H   UNK N   1      29.952  16.811   8.018  0.00  0.00     0.219 HD
ENDBRANCH  31  38
ENDBRANCH  27  30
ENDBRANCH  26  27
ENDBRANCH  25  26
ENDBRANCH   1  25
TORSDOF 10
ENDMDL
MODEL 9
REMARK VINA RESULT:      -6.7      5.883      8.293
REMARK  10 active torsions:
REMARK  status: ('A' for Active; 'I' for Inactive)
REMARK    1  A    between atoms: C_6  and  C_2 
REMARK    2  A    between atoms: O_30  and  C_2 
REMARK    3  A    between atoms: C_12  and  C_5 
REMARK    4  A    between atoms: C_5  and  N_14 
REMARK    5  A    between atoms: C_8  and  O_25 
REMARK    6  A    between atoms: N_15  and  C_10 
REMARK    7  A    between atoms: O_27  and  C_12 
REMARK    8  A    between atoms: C_13  and  N_24 
REMARK    9  A    between atoms: N_22  and  S_32 
REMARK   10  A    between atoms: S_32  and  O_30 
ROOT
HETATM    1  C   UNK N   1      32.046  17.225   5.278  0.00  0.00     0.180 C 
HETATM    2  C   UNK N   1      32.646  16.066   4.464  0.00  0.00     0.182 C 
HETATM    3  C   UNK N   1      33.424  15.337   5.522  0.00  0.00     0.198 C 
HETATM    4  C   UNK N   1      32.398  15.456   6.635  0.00  0.00     0.262 C 
HETATM    5  O   UNK N   1      34.591  16.032   5.859  0.00  0.00    -0.388 OA
HETATM    6  O   UNK N   1      31.981  16.803   6.631  0.00  0.00    -0.353 OA
HETATM    7  H   UNK N   1      35.472  16.410   6.009  0.00  0.00     0.210 HD
ENDROOT
BRANCH   2   8
HETATM    8  O   UNK N   1      33.448  16.475   3.395  0.00  0.00    -0.390 OA
HETATM    9  H   UNK N   1      33.273  16.532   2.443  0.00  0.00     0.210 HD
ENDBRANCH   2   8
BRANCH   4  10
HETATM   10  N   UNK N   1      32.886  15.055   7.955  0.00  0.00    -0.297 N 
HETATM   11  C   UNK N   1      32.734  13.837   8.537  0.00  0.00     0.188 A 
HETATM   12  N   UNK N   1      33.398  13.767   9.726  0.00  0.00    -0.346 N 
HETATM   13  C   UNK N   1      33.960  14.981   9.862  0.00  0.00     0.122 A 
ATOM     14  HN  UNK N   1      33.456  12.974  10.365  1.00  0.00     0.167 HD
HETATM   15  C   UNK N   1      34.755  15.485  10.879  0.00  0.00     0.131 A 
HETATM   16  C   UNK N   1      33.655  15.752   8.802  0.00  0.00     0.142 A 
HETATM   17  N   UNK N   1      35.189  16.776  10.772  0.00  0.00    -0.337 N 
HETATM   18  C   UNK N   1      34.855  17.548   9.685  0.00  0.00     0.183 A 
ATOM     19  HN  UNK N   1      35.770  17.174  11.511  1.00  0.00     0.168 HD
HETATM   20  N   UNK N   1      34.085  17.029   8.679  0.00  0.00    -0.336 N 
ATOM     21  HN  UNK N   1      33.845  17.588   7.860  1.00  0.00     0.168 HD
BRANCH  15  22
HETATM   22  N   UNK N   1      35.115  14.693  11.988  0.00  0.00    -0.383 N 
HETATM   23  H   UNK N   1      34.487  14.034  12.361  0.00  0.00     0.157 HD
HETATM   24  H   UNK N   1      36.006  14.801  12.393  0.00  0.00     0.157 HD
ENDBRANCH  15  22
ENDBRANCH   4  10
BRANCH   1  25
HETATM   25  C   UNK N   1      30.615  17.574   4.860  0.00  0.00     0.226 C 
BRANCH  25  26
HETATM   26  O   UNK N   1      29.684  17.619   5.925  0.00  0.00    -0.257 OA
BRANCH  26  27
HETATM   27  S   UNK N   1      28.439  16.360   6.113  0.00  0.00     0.363 S 
HETATM   28  O   UNK N   1      28.466  16.948   4.697  0.00  0.00    -0.175 OA
HETATM   29  O   UNK N   1      27.032  16.724   5.615  0.00  0.00    -0.175 OA
BRANCH  27  30
HETATM   30  N   UNK N   1      27.726  17.418   7.344  0.00  0.00    -0.243 N 
HETATM   31  C   UNK N   1      28.183  17.687   8.529  0.00  0.00     0.149 C 
ATOM     32  HN  UNK N   1      26.849  17.871   7.090  1.00  0.00     0.182 HD
BRANCH  31  33
HETATM   33  C   UNK N   1      29.460  17.115   9.137  0.00  0.00     0.146 C 
HETATM   34  C   UNK N   1      29.221  16.799  10.599  0.00  0.00     0.040 C 
BRANCH  33  35
HETATM   35  N   UNK N   1      30.631  17.966   9.038  0.00  0.00    -0.420 N 
HETATM   36  H   UNK N   1      30.755  18.772   9.650  0.00  0.00     0.150 HD
HETATM   37  H   UNK N   1      31.345  17.753   8.342  0.00  0.00     0.150 HD
ENDBRANCH  33  35
ENDBRANCH  31  33
BRANCH  31  38
HETATM   38  O   UNK N   1      27.469  18.533   9.296  0.00  0.00    -0.347 OA
HETATM   39  H   UNK N   1      27.045  18.251  10.083  0.00  0.00     0.219 HD
ENDBRANCH  31  38
ENDBRANCH  27  30
ENDBRANCH  26  27
ENDBRANCH  25  26
ENDBRANCH   1  25
TORSDOF 10
ENDMDL
