REMARK  6 active torsions:
REMARK  status: ('A' for Active; 'I' for Inactive)
REMARK    1  A    between atoms: O_1  and  C_2 
REMARK    2  A    between atoms: C_2  and  C_4 
REMARK    3  A    between atoms: C_4  and  C_5 
REMARK    4  A    between atoms: C_5  and  P_6 
REMARK    5  A    between atoms: P_6  and  O_7 
REMARK    6  A    between atoms: P_6  and  O_8 
ROOT
HETATM    1  C   UNK N   1       1.845  -0.997  -0.747  0.00  0.00     0.135 C 
ENDROOT
BRANCH   1   2
HETATM    2  C   UNK N   1       0.742  -0.614   0.225  0.00  0.00     0.121 C 
BRANCH   2   3
HETATM    3  C   UNK N   1      -0.475  -1.463   0.083  0.00  0.00     0.139 C 
HETATM    4  O   UNK N   1      -0.372  -2.681   0.052  0.00  0.00    -0.650 OA
BRANCH   3   5
HETATM    5  O   UNK N   1      -1.695  -0.897   0.103  0.00  0.00    -0.776 OA
HETATM    6  H   UNK N   1      -1.779   0.036   0.118  0.00  0.00     0.167 HD
ENDBRANCH   3   5
ENDBRANCH   2   3
ENDBRANCH   1   2
BRANCH   1   7
HETATM    7  P   UNK N   1       3.466  -0.509   0.026  0.00  0.00     0.236 P 
HETATM    8  O   UNK N   1       3.363   0.957   0.524  0.00  0.00    -0.653 OA
BRANCH   7   9
HETATM    9  O   UNK N   1       4.839  -0.486  -1.035  0.00  0.00    -0.329 OA
HETATM   10  H   UNK N   1       5.234  -1.144  -1.628  0.00  0.00     0.220 HD
ENDBRANCH   7   9
BRANCH   7  11
HETATM   11  O   UNK N   1       3.924  -1.392   1.450  0.00  0.00    -0.329 OA
HETATM   12  H   UNK N   1       3.625  -1.859   2.246  0.00  0.00     0.220 HD
ENDBRANCH   7  11
ENDBRANCH   1   7
TORSDOF 6
