REMARK  9 active torsions:
REMARK  status: ('A' for Active; 'I' for Inactive)
REMARK    1  A    between atoms: N_1  and  C_2 
REMARK    2  A    between atoms: C_2  and  C_3 
REMARK    3  A    between atoms: C_3  and  C_4 
REMARK    4  A    between atoms: C_4  and  C_5 
REMARK    5  A    between atoms: C_5  and  N_6 
REMARK    6  A    between atoms: N_6  and  C_7 
REMARK    7  A    between atoms: C_7  and  C_8 
REMARK    8  A    between atoms: C_8  and  C_9 
REMARK    9  A    between atoms: C_9  and  N_10 
ROOT
HETATM    1  N   UNK N   1       6.104   2.839  -0.000  0.00  0.00    -0.421 N 
HETATM    2  H   UNK N   1       6.104   3.859  -0.000  0.00  0.00     0.153 HD
ENDROOT
BRANCH   1   3
HETATM    3  C   UNK N   1       4.945   1.973  -0.000  0.00  0.00     0.113 C 
BRANCH   3   4
HETATM    4  C   UNK N   1       3.689   2.813  -0.000  0.00  0.00     0.021 C 
BRANCH   4   5
HETATM    5  C   UNK N   1       2.496   1.887   0.000  0.00  0.00     0.021 C 
BRANCH   5   6
HETATM    6  C   UNK N   1       1.220   2.696  -0.000  0.00  0.00     0.111 C 
BRANCH   6   7
HETATM    7  N   UNK N   1       0.086   1.791  -0.000  0.00  0.00    -0.430 N 
HETATM    8  H   UNK N   1      -0.863   2.163  -0.000  0.00  0.00     0.149 HD
HETATM    9  H   UNK N   1       0.239   0.783  -0.000  0.00  0.00     0.149 HD
ENDBRANCH   6   7
ENDBRANCH   5   6
ENDBRANCH   4   5
ENDBRANCH   3   4
ENDBRANCH   1   3
BRANCH   1  10
HETATM   10  C   UNK N   1       7.265   1.972  -0.000  0.00  0.00     0.115 C 
BRANCH  10  11
HETATM   11  C   UNK N   1       8.512   2.824   0.000  0.00  0.00     0.038 C 
BRANCH  11  12
HETATM   12  C   UNK N   1       9.736   1.937  -0.000  0.00  0.00     0.112 C 
BRANCH  12  13
HETATM   13  N   UNK N   1      10.924   2.769  -0.000  0.00  0.00    -0.430 N 
HETATM   14  H   UNK N   1      11.848   2.337  -0.000  0.00  0.00     0.149 HD
HETATM   15  H   UNK N   1      10.836   3.785  -0.000  0.00  0.00     0.149 HD
ENDBRANCH  12  13
ENDBRANCH  11  12
ENDBRANCH  10  11
ENDBRANCH   1  10
TORSDOF 9
