MODEL 1
REMARK VINA RESULT:      -3.4      0.000      0.000
REMARK  2 active torsions:
REMARK  status: ('A' for Active; 'I' for Inactive)
REMARK    1  A    between atoms: C_2  and  S_3 
REMARK    2  A    between atoms: S_3  and  O_4 
ROOT
HETATM    1  S   UNK N   1      31.513  22.456  -3.129  0.00  0.00     0.093 S 
HETATM    2  O   UNK N   1      30.929  22.831  -1.757  0.00  0.00    -0.601 OA
HETATM    3  O   UNK N   1      30.800  21.117  -3.379  0.00  0.00    -0.601 OA
ENDROOT
BRANCH   1   4
HETATM    4  C   UNK N   1      29.729  22.768  -3.336  0.00  0.00     0.151 C 
HETATM    5  C   UNK N   1      29.061  22.984  -1.986  0.00  0.00     0.023 C 
ENDBRANCH   1   4
BRANCH   1   6
HETATM    6  O   UNK N   1      32.329  21.362  -2.086  0.00  0.00    -0.296 OA
HETATM    7  H   UNK N   1      32.702  21.632  -1.233  0.00  0.00     0.232 HD
ENDBRANCH   1   6
TORSDOF 2
ENDMDL
MODEL 2
REMARK VINA RESULT:      -3.4     11.397     11.814
REMARK  2 active torsions:
REMARK  status: ('A' for Active; 'I' for Inactive)
REMARK    1  A    between atoms: C_2  and  S_3 
REMARK    2  A    between atoms: S_3  and  O_4 
ROOT
HETATM    1  S   UNK N   1      21.352  20.042   2.849  0.00  0.00     0.093 S 
HETATM    2  O   UNK N   1      20.731  20.423   1.496  0.00  0.00    -0.601 OA
HETATM    3  O   UNK N   1      20.345  20.694   3.812  0.00  0.00    -0.601 OA
ENDROOT
BRANCH   1   4
HETATM    4  C   UNK N   1      19.751  19.183   2.696  0.00  0.00     0.151 C 
HETATM    5  C   UNK N   1      19.933  17.822   2.042  0.00  0.00     0.023 C 
ENDBRANCH   1   4
BRANCH   1   6
HETATM    6  O   UNK N   1      21.721  21.717   2.749  0.00  0.00    -0.296 OA
HETATM    7  H   UNK N   1      22.572  22.047   2.421  0.00  0.00     0.232 HD
ENDBRANCH   1   6
TORSDOF 2
ENDMDL
MODEL 3
REMARK VINA RESULT:      -3.4     10.290     10.704
REMARK  2 active torsions:
REMARK  status: ('A' for Active; 'I' for Inactive)
REMARK    1  A    between atoms: C_2  and  S_3 
REMARK    2  A    between atoms: S_3  and  O_4 
ROOT
HETATM    1  S   UNK N   1      20.758  20.636   1.615  0.00  0.00     0.093 S 
HETATM    2  O   UNK N   1      22.212  20.598   1.119  0.00  0.00    -0.601 OA
HETATM    3  O   UNK N   1      20.425  19.135   1.622  0.00  0.00    -0.601 OA
ENDROOT
BRANCH   1   4
HETATM    4  C   UNK N   1      21.771  19.815   2.888  0.00  0.00     0.151 C 
HETATM    5  C   UNK N   1      23.175  20.399   2.916  0.00  0.00     0.023 C 
ENDBRANCH   1   4
BRANCH   1   6
HETATM    6  O   UNK N   1      20.554  20.259  -0.048  0.00  0.00    -0.296 OA
HETATM    7  H   UNK N   1      21.095  20.660  -0.746  0.00  0.00     0.232 HD
ENDBRANCH   1   6
TORSDOF 2
ENDMDL
MODEL 4
REMARK VINA RESULT:      -3.4     10.921     11.408
REMARK  2 active torsions:
REMARK  status: ('A' for Active; 'I' for Inactive)
REMARK    1  A    between atoms: C_2  and  S_3 
REMARK    2  A    between atoms: S_3  and  O_4 
ROOT
HETATM    1  S   UNK N   1      34.180  17.620   8.056  0.00  0.00     0.093 S 
HETATM    2  O   UNK N   1      34.602  18.028   6.635  0.00  0.00    -0.601 OA
HETATM    3  O   UNK N   1      33.037  18.617   8.306  0.00  0.00    -0.601 OA
ENDROOT
BRANCH   1   4
HETATM    4  C   UNK N   1      32.806  17.235   6.922  0.00  0.00     0.151 C 
HETATM    5  C   UNK N   1      33.241  17.403   5.474  0.00  0.00     0.023 C 
ENDBRANCH   1   4
BRANCH   1   6
HETATM    6  O   UNK N   1      34.994  19.106   8.341  0.00  0.00    -0.296 OA
HETATM    7  H   UNK N   1      34.758  19.928   7.884  0.00  0.00     0.232 HD
ENDBRANCH   1   6
TORSDOF 2
ENDMDL
MODEL 5
REMARK VINA RESULT:      -3.2     11.882     12.345
REMARK  2 active torsions:
REMARK  status: ('A' for Active; 'I' for Inactive)
REMARK    1  A    between atoms: C_2  and  S_3 
REMARK    2  A    between atoms: S_3  and  O_4 
ROOT
HETATM    1  S   UNK N   1      33.851  18.175   8.199  0.00  0.00     0.093 S 
HETATM    2  O   UNK N   1      34.723  17.296   9.110  0.00  0.00    -0.601 OA
HETATM    3  O   UNK N   1      34.614  18.041   6.870  0.00  0.00    -0.601 OA
ENDROOT
BRANCH   1   4
HETATM    4  C   UNK N   1      33.724  16.452   7.618  0.00  0.00     0.151 C 
HETATM    5  C   UNK N   1      32.563  15.741   8.296  0.00  0.00     0.023 C 
ENDBRANCH   1   4
BRANCH   1   6
HETATM    6  O   UNK N   1      35.237  19.165   8.425  0.00  0.00    -0.296 OA
HETATM    7  H   UNK N   1      35.817  19.429   7.694  0.00  0.00     0.232 HD
ENDBRANCH   1   6
TORSDOF 2
ENDMDL
MODEL 6
REMARK VINA RESULT:      -3.2      1.863      2.409
REMARK  2 active torsions:
REMARK  status: ('A' for Active; 'I' for Inactive)
REMARK    1  A    between atoms: C_2  and  S_3 
REMARK    2  A    between atoms: S_3  and  O_4 
ROOT
HETATM    1  S   UNK N   1      31.147  22.713  -3.036  0.00  0.00     0.093 S 
HETATM    2  O   UNK N   1      29.796  21.980  -3.057  0.00  0.00    -0.601 OA
HETATM    3  O   UNK N   1      31.965  21.764  -2.145  0.00  0.00    -0.601 OA
ENDROOT
BRANCH   1   4
HETATM    4  C   UNK N   1      31.372  21.130  -3.912  0.00  0.00     0.151 C 
HETATM    5  C   UNK N   1      30.466  21.058  -5.132  0.00  0.00     0.023 C 
ENDBRANCH   1   4
BRANCH   1   6
HETATM    6  O   UNK N   1      30.550  23.025  -1.456  0.00  0.00    -0.296 OA
HETATM    7  H   UNK N   1      29.702  22.677  -1.139  0.00  0.00     0.232 HD
ENDBRANCH   1   6
TORSDOF 2
ENDMDL
MODEL 7
REMARK VINA RESULT:      -3.2     18.284     18.534
REMARK  2 active torsions:
REMARK  status: ('A' for Active; 'I' for Inactive)
REMARK    1  A    between atoms: C_2  and  S_3 
REMARK    2  A    between atoms: S_3  and  O_4 
ROOT
HETATM    1  S   UNK N   1      23.499  11.703  10.973  0.00  0.00     0.093 S 
HETATM    2  O   UNK N   1      23.412  13.090  10.317  0.00  0.00    -0.601 OA
HETATM    3  O   UNK N   1      23.151  12.059  12.428  0.00  0.00    -0.601 OA
ENDROOT
BRANCH   1   4
HETATM    4  C   UNK N   1      21.764  12.257  11.044  0.00  0.00     0.151 C 
HETATM    5  C   UNK N   1      21.514  13.369  10.037  0.00  0.00     0.023 C 
ENDBRANCH   1   4
BRANCH   1   6
HETATM    6  O   UNK N   1      24.926  12.460  11.556  0.00  0.00    -0.296 OA
HETATM    7  H   UNK N   1      25.792  12.341  11.136  0.00  0.00     0.232 HD
ENDBRANCH   1   6
TORSDOF 2
ENDMDL
MODEL 8
REMARK VINA RESULT:      -3.2      2.273      2.878
REMARK  2 active torsions:
REMARK  status: ('A' for Active; 'I' for Inactive)
REMARK    1  A    between atoms: C_2  and  S_3 
REMARK    2  A    between atoms: S_3  and  O_4 
ROOT
HETATM    1  S   UNK N   1      30.999  21.973  -3.008  0.00  0.00     0.093 S 
HETATM    2  O   UNK N   1      32.163  21.644  -2.060  0.00  0.00    -0.601 OA
HETATM    3  O   UNK N   1      31.390  23.393  -3.449  0.00  0.00    -0.601 OA
ENDROOT
BRANCH   1   4
HETATM    4  C   UNK N   1      32.528  21.882  -3.995  0.00  0.00     0.151 C 
HETATM    5  C   UNK N   1      33.548  20.973  -3.326  0.00  0.00     0.023 C 
ENDBRANCH   1   4
BRANCH   1   6
HETATM    6  O   UNK N   1      30.624  22.940  -1.638  0.00  0.00    -0.296 OA
HETATM    7  H   UNK N   1      31.008  22.778  -0.762  0.00  0.00     0.232 HD
ENDBRANCH   1   6
TORSDOF 2
ENDMDL
MODEL 9
REMARK VINA RESULT:      -3.2     14.372     14.665
REMARK  2 active torsions:
REMARK  status: ('A' for Active; 'I' for Inactive)
REMARK    1  A    between atoms: C_2  and  S_3 
REMARK    2  A    between atoms: S_3  and  O_4 
ROOT
HETATM    1  S   UNK N   1      35.229  16.181  10.675  0.00  0.00     0.093 S 
HETATM    2  O   UNK N   1      35.670  15.375   9.443  0.00  0.00    -0.601 OA
HETATM    3  O   UNK N   1      35.671  17.594  10.257  0.00  0.00    -0.601 OA
ENDROOT
BRANCH   1   4
HETATM    4  C   UNK N   1      34.221  16.717   9.254  0.00  0.00     0.151 C 
HETATM    5  C   UNK N   1      33.073  15.748   9.014  0.00  0.00     0.023 C 
ENDBRANCH   1   4
BRANCH   1   6
HETATM    6  O   UNK N   1      36.935  16.145  10.868  0.00  0.00    -0.296 OA
HETATM    7  H   UNK N   1      37.489  15.437  10.502  0.00  0.00     0.232 HD
ENDBRANCH   1   6
TORSDOF 2
ENDMDL
