MODEL 1
REMARK VINA RESULT:      -5.1      0.000      0.000
REMARK  4 active torsions:
REMARK  status: ('A' for Active; 'I' for Inactive)
REMARK    1  A    between atoms: C_2  and  O_1 
REMARK    2  A    between atoms: C_5  and  O_6 
REMARK    3  A    between atoms: C_7  and  O_8 
REMARK    4  A    between atoms: C_9  and  O_10 
ROOT
HETATM    1  C   UNK N   1      20.869  19.293   3.684  0.00  0.00     0.173 A 
HETATM    2  C   UNK N   1      20.570  17.814   3.465  0.00  0.00     0.205 A 
HETATM    3  O   UNK N   1      20.354  17.306   2.151  0.00  0.00    -0.356 OA
HETATM    4  C   UNK N   1      20.423  18.208   1.069  0.00  0.00     0.288 A 
HETATM    5  C   UNK N   1      20.713  19.703   1.169  0.00  0.00     0.204 A 
HETATM    6  C   UNK N   1      20.948  20.280   2.536  0.00  0.00     0.182 A 
ENDROOT
BRANCH   1   7
HETATM    7  O   UNK N   1      21.067  19.694   5.009  0.00  0.00    -0.391 OA
HETATM    8  H   UNK N   1      20.979  19.049   5.729  0.00  0.00     0.210 HD
ENDBRANCH   1   7
BRANCH   6   9
HETATM    9  O   UNK N   1      21.219  21.640   2.707  0.00  0.00    -0.390 OA
HETATM   10  H   UNK N   1      21.974  21.919   3.250  0.00  0.00     0.210 HD
ENDBRANCH   6   9
BRANCH   5  11
HETATM   11  O   UNK N   1      20.758  20.502   0.027  0.00  0.00    -0.388 OA
HETATM   12  H   UNK N   1      21.481  20.397  -0.611  0.00  0.00     0.210 HD
ENDBRANCH   5  11
BRANCH   4  13
HETATM   13  O   UNK N   1      20.200  17.638  -0.186  0.00  0.00    -0.369 OA
HETATM   14  H   UNK N   1      19.906  16.716  -0.254  0.00  0.00     0.212 HD
ENDBRANCH   4  13
TORSDOF 4
ENDMDL
MODEL 2
REMARK VINA RESULT:      -5.1      0.715      3.077
REMARK  4 active torsions:
REMARK  status: ('A' for Active; 'I' for Inactive)
REMARK    1  A    between atoms: C_2  and  O_1 
REMARK    2  A    between atoms: C_5  and  O_6 
REMARK    3  A    between atoms: C_7  and  O_8 
REMARK    4  A    between atoms: C_9  and  O_10 
ROOT
HETATM    1  C   UNK N   1      20.234  17.817   2.757  0.00  0.00     0.173 A 
HETATM    2  C   UNK N   1      20.700  18.585   3.989  0.00  0.00     0.205 A 
HETATM    3  O   UNK N   1      21.163  19.928   3.872  0.00  0.00    -0.356 OA
HETATM    4  C   UNK N   1      21.177  20.519   2.592  0.00  0.00     0.288 A 
HETATM    5  C   UNK N   1      20.736  19.849   1.294  0.00  0.00     0.204 A 
HETATM    6  C   UNK N   1      20.240  18.433   1.371  0.00  0.00     0.182 A 
ENDROOT
BRANCH   1   7
HETATM    7  O   UNK N   1      19.797  16.507   2.974  0.00  0.00    -0.391 OA
HETATM    8  H   UNK N   1      19.532  15.953   2.222  0.00  0.00     0.210 HD
ENDBRANCH   1   7
BRANCH   6   9
HETATM    9  O   UNK N   1      19.819  17.753   0.225  0.00  0.00    -0.390 OA
HETATM   10  H   UNK N   1      19.309  18.219  -0.455  0.00  0.00     0.210 HD
ENDBRANCH   6   9
BRANCH   5  11
HETATM   11  O   UNK N   1      20.793  20.531   0.079  0.00  0.00    -0.388 OA
HETATM   12  H   UNK N   1      20.246  20.241  -0.667  0.00  0.00     0.210 HD
ENDBRANCH   5  11
BRANCH   4  13
HETATM   13  O   UNK N   1      21.643  21.834   2.557  0.00  0.00    -0.369 OA
HETATM   14  H   UNK N   1      21.015  22.572   2.576  0.00  0.00     0.212 HD
ENDBRANCH   4  13
TORSDOF 4
ENDMDL
MODEL 3
REMARK VINA RESULT:      -5.0      0.641      3.261
REMARK  4 active torsions:
REMARK  status: ('A' for Active; 'I' for Inactive)
REMARK    1  A    between atoms: C_2  and  O_1 
REMARK    2  A    between atoms: C_5  and  O_6 
REMARK    3  A    between atoms: C_7  and  O_8 
REMARK    4  A    between atoms: C_9  and  O_10 
ROOT
HETATM    1  C   UNK N   1      20.418  18.231   1.040  0.00  0.00     0.173 A 
HETATM    2  C   UNK N   1      20.362  17.342   2.277  0.00  0.00     0.205 A 
HETATM    3  O   UNK N   1      20.580  17.892   3.574  0.00  0.00    -0.356 OA
HETATM    4  C   UNK N   1      20.847  19.273   3.675  0.00  0.00     0.288 A 
HETATM    5  C   UNK N   1      20.927  20.255   2.510  0.00  0.00     0.204 A 
HETATM    6  C   UNK N   1      20.704  19.718   1.125  0.00  0.00     0.182 A 
ENDROOT
BRANCH   1   7
HETATM    7  O   UNK N   1      20.192  17.599  -0.187  0.00  0.00    -0.391 OA
HETATM    8  H   UNK N   1      20.362  16.648  -0.281  0.00  0.00     0.210 HD
ENDBRANCH   1   7
BRANCH   6   9
HETATM    9  O   UNK N   1      20.762  20.556   0.009  0.00  0.00    -0.390 OA
HETATM   10  H   UNK N   1      19.944  20.820  -0.441  0.00  0.00     0.210 HD
ENDBRANCH   6   9
BRANCH   5  11
HETATM   11  O   UNK N   1      21.199  21.605   2.729  0.00  0.00    -0.388 OA
HETATM   12  H   UNK N   1      21.909  22.044   2.235  0.00  0.00     0.210 HD
ENDBRANCH   5  11
BRANCH   4  13
HETATM   13  O   UNK N   1      21.049  19.738   4.976  0.00  0.00    -0.369 OA
HETATM   14  H   UNK N   1      20.342  20.217   5.435  0.00  0.00     0.212 HD
ENDBRANCH   4  13
TORSDOF 4
ENDMDL
MODEL 4
REMARK VINA RESULT:      -5.0      0.820      2.347
REMARK  4 active torsions:
REMARK  status: ('A' for Active; 'I' for Inactive)
REMARK    1  A    between atoms: C_2  and  O_1 
REMARK    2  A    between atoms: C_5  and  O_6 
REMARK    3  A    between atoms: C_7  and  O_8 
REMARK    4  A    between atoms: C_9  and  O_10 
ROOT
HETATM    1  C   UNK N   1      21.067  20.391   2.574  0.00  0.00     0.173 A 
HETATM    2  C   UNK N   1      20.976  19.617   3.884  0.00  0.00     0.205 A 
HETATM    3  O   UNK N   1      20.524  18.265   3.895  0.00  0.00    -0.356 OA
HETATM    4  C   UNK N   1      20.166  17.672   2.666  0.00  0.00     0.288 A 
HETATM    5  C   UNK N   1      20.216  18.349   1.300  0.00  0.00     0.204 A 
HETATM    6  C   UNK N   1      20.687  19.774   1.242  0.00  0.00     0.182 A 
ENDROOT
BRANCH   1   7
HETATM    7  O   UNK N   1      21.522  21.710   2.666  0.00  0.00    -0.391 OA
HETATM    8  H   UNK N   1      21.227  22.371   2.020  0.00  0.00     0.210 HD
ENDBRANCH   1   7
BRANCH   6   9
HETATM    9  O   UNK N   1      20.760  20.460   0.027  0.00  0.00    -0.390 OA
HETATM   10  H   UNK N   1      20.370  21.345  -0.054  0.00  0.00     0.210 HD
ENDBRANCH   6   9
BRANCH   5  11
HETATM   11  O   UNK N   1      19.836  17.664   0.146  0.00  0.00    -0.388 OA
HETATM   12  H   UNK N   1      18.896  17.556  -0.067  0.00  0.00     0.210 HD
ENDBRANCH   5  11
BRANCH   4  13
HETATM   13  O   UNK N   1      19.733  16.348   2.757  0.00  0.00    -0.369 OA
HETATM   14  H   UNK N   1      19.842  15.858   3.587  0.00  0.00     0.212 HD
ENDBRANCH   4  13
TORSDOF 4
ENDMDL
MODEL 5
REMARK VINA RESULT:      -4.8      0.798      2.355
REMARK  4 active torsions:
REMARK  status: ('A' for Active; 'I' for Inactive)
REMARK    1  A    between atoms: C_2  and  O_1 
REMARK    2  A    between atoms: C_5  and  O_6 
REMARK    3  A    between atoms: C_7  and  O_8 
REMARK    4  A    between atoms: C_9  and  O_10 
ROOT
HETATM    1  C   UNK N   1      20.392  17.998   3.059  0.00  0.00     0.173 A 
HETATM    2  C   UNK N   1      20.181  17.667   1.586  0.00  0.00     0.205 A 
HETATM    3  O   UNK N   1      20.379  18.663   0.585  0.00  0.00    -0.356 OA
HETATM    4  C   UNK N   1      20.773  19.953   0.997  0.00  0.00     0.288 A 
HETATM    5  C   UNK N   1      21.013  20.396   2.438  0.00  0.00     0.204 A 
HETATM    6  C   UNK N   1      20.815  19.378   3.525  0.00  0.00     0.182 A 
ENDROOT
BRANCH   1   7
HETATM    7  O   UNK N   1      20.173  16.956   3.964  0.00  0.00    -0.391 OA
HETATM    8  H   UNK N   1      19.555  17.076   4.703  0.00  0.00     0.210 HD
ENDBRANCH   1   7
BRANCH   6   9
HETATM    9  O   UNK N   1      21.016  19.709   4.867  0.00  0.00    -0.390 OA
HETATM   10  H   UNK N   1      20.341  20.213   5.348  0.00  0.00     0.210 HD
ENDBRANCH   6   9
BRANCH   5  11
HETATM   11  O   UNK N   1      21.402  21.703   2.730  0.00  0.00    -0.388 OA
HETATM   12  H   UNK N   1      22.082  21.867   3.402  0.00  0.00     0.210 HD
ENDBRANCH   5  11
BRANCH   4  13
HETATM   13  O   UNK N   1      20.947  20.873  -0.038  0.00  0.00    -0.369 OA
HETATM   14  H   UNK N   1      20.678  20.643  -0.941  0.00  0.00     0.212 HD
ENDBRANCH   4  13
TORSDOF 4
ENDMDL
MODEL 6
REMARK VINA RESULT:      -4.7      9.656     11.821
REMARK  4 active torsions:
REMARK  status: ('A' for Active; 'I' for Inactive)
REMARK    1  A    between atoms: C_2  and  O_1 
REMARK    2  A    between atoms: C_5  and  O_6 
REMARK    3  A    between atoms: C_7  and  O_8 
REMARK    4  A    between atoms: C_9  and  O_10 
ROOT
HETATM    1  C   UNK N   1      21.436  12.950   9.931  0.00  0.00     0.173 A 
HETATM    2  C   UNK N   1      22.755  13.357   9.284  0.00  0.00     0.205 A 
HETATM    3  O   UNK N   1      23.995  13.069   9.927  0.00  0.00    -0.356 OA
HETATM    4  C   UNK N   1      23.962  12.402  11.169  0.00  0.00     0.288 A 
HETATM    5  C   UNK N   1      22.706  11.950  11.907  0.00  0.00     0.204 A 
HETATM    6  C   UNK N   1      21.377  12.233  11.266  0.00  0.00     0.182 A 
ENDROOT
BRANCH   1   7
HETATM    7  O   UNK N   1      20.275  13.276   9.224  0.00  0.00    -0.391 OA
HETATM    8  H   UNK N   1      19.545  12.638   9.168  0.00  0.00     0.210 HD
ENDBRANCH   1   7
BRANCH   6   9
HETATM    9  O   UNK N   1      20.183  11.849  11.881  0.00  0.00    -0.390 OA
HETATM   10  H   UNK N   1      20.187  11.555  12.806  0.00  0.00     0.210 HD
ENDBRANCH   6   9
BRANCH   5  11
HETATM   11  O   UNK N   1      22.792  11.296  13.136  0.00  0.00    -0.388 OA
HETATM   12  H   UNK N   1      23.648  11.220  13.586  0.00  0.00     0.210 HD
ENDBRANCH   5  11
BRANCH   4  13
HETATM   13  O   UNK N   1      25.213  12.156  11.736  0.00  0.00    -0.369 OA
HETATM   14  H   UNK N   1      25.311  11.472  12.418  0.00  0.00     0.212 HD
ENDBRANCH   4  13
TORSDOF 4
ENDMDL
MODEL 7
REMARK VINA RESULT:      -4.7     14.187     15.336
REMARK  4 active torsions:
REMARK  status: ('A' for Active; 'I' for Inactive)
REMARK    1  A    between atoms: C_2  and  O_1 
REMARK    2  A    between atoms: C_5  and  O_6 
REMARK    3  A    between atoms: C_7  and  O_8 
REMARK    4  A    between atoms: C_9  and  O_10 
ROOT
HETATM    1  C   UNK N   1      33.965  17.308   7.128  0.00  0.00     0.173 A 
HETATM    2  C   UNK N   1      33.189  15.996   7.093  0.00  0.00     0.205 A 
HETATM    3  O   UNK N   1      33.048  15.208   8.272  0.00  0.00    -0.356 OA
HETATM    4  C   UNK N   1      33.643  15.676   9.462  0.00  0.00     0.288 A 
HETATM    5  C   UNK N   1      34.439  16.968   9.614  0.00  0.00     0.204 A 
HETATM    6  C   UNK N   1      34.612  17.830   8.396  0.00  0.00     0.182 A 
ENDROOT
BRANCH   1   7
HETATM    7  O   UNK N   1      34.048  18.010   5.922  0.00  0.00    -0.391 OA
HETATM    8  H   UNK N   1      33.387  18.688   5.708  0.00  0.00     0.210 HD
ENDBRANCH   1   7
BRANCH   6   9
HETATM    9  O   UNK N   1      35.329  19.029   8.457  0.00  0.00    -0.390 OA
HETATM   10  H   UNK N   1      34.950  19.796   8.915  0.00  0.00     0.210 HD
ENDBRANCH   6   9
BRANCH   5  11
HETATM   11  O   UNK N   1      34.984  17.333  10.844  0.00  0.00    -0.388 OA
HETATM   12  H   UNK N   1      34.667  16.913  11.659  0.00  0.00     0.210 HD
ENDBRANCH   5  11
BRANCH   4  13
HETATM   13  O   UNK N   1      33.461  14.850  10.573  0.00  0.00    -0.369 OA
HETATM   14  H   UNK N   1      33.365  15.239  11.456  0.00  0.00     0.212 HD
ENDBRANCH   4  13
TORSDOF 4
ENDMDL
MODEL 8
REMARK VINA RESULT:      -4.7      0.882      3.829
REMARK  4 active torsions:
REMARK  status: ('A' for Active; 'I' for Inactive)
REMARK    1  A    between atoms: C_2  and  O_1 
REMARK    2  A    between atoms: C_5  and  O_6 
REMARK    3  A    between atoms: C_7  and  O_8 
REMARK    4  A    between atoms: C_9  and  O_10 
ROOT
HETATM    1  C   UNK N   1      20.799  20.122   1.166  0.00  0.00     0.173 A 
HETATM    2  C   UNK N   1      21.086  20.915   2.435  0.00  0.00     0.205 A 
HETATM    3  O   UNK N   1      21.141  20.260   3.701  0.00  0.00    -0.356 OA
HETATM    4  C   UNK N   1      20.922  18.868   3.740  0.00  0.00     0.288 A 
HETATM    5  C   UNK N   1      20.627  17.976   2.538  0.00  0.00     0.204 A 
HETATM    6  C   UNK N   1      20.561  18.624   1.185  0.00  0.00     0.182 A 
ENDROOT
BRANCH   1   7
HETATM    7  O   UNK N   1      20.766  20.852  -0.026  0.00  0.00    -0.391 OA
HETATM    8  H   UNK N   1      21.404  20.659  -0.731  0.00  0.00     0.210 HD
ENDBRANCH   1   7
BRANCH   6   9
HETATM    9  O   UNK N   1      20.295  17.872   0.038  0.00  0.00    -0.390 OA
HETATM   10  H   UNK N   1      20.736  17.018  -0.095  0.00  0.00     0.210 HD
ENDBRANCH   6   9
BRANCH   5  11
HETATM   11  O   UNK N   1      20.427  16.604   2.696  0.00  0.00    -0.388 OA
HETATM   12  H   UNK N   1      19.592  16.275   3.065  0.00  0.00     0.210 HD
ENDBRANCH   5  11
BRANCH   4  13
HETATM   13  O   UNK N   1      20.991  18.299   5.013  0.00  0.00    -0.369 OA
HETATM   14  H   UNK N   1      20.611  18.764   5.774  0.00  0.00     0.212 HD
ENDBRANCH   4  13
TORSDOF 4
ENDMDL
MODEL 9
REMARK VINA RESULT:      -4.4     22.305     22.937
REMARK  4 active torsions:
REMARK  status: ('A' for Active; 'I' for Inactive)
REMARK    1  A    between atoms: C_2  and  O_1 
REMARK    2  A    between atoms: C_5  and  O_6 
REMARK    3  A    between atoms: C_7  and  O_8 
REMARK    4  A    between atoms: C_9  and  O_10 
ROOT
HETATM    1  C   UNK N   1      41.974  21.501   2.617  0.00  0.00     0.173 A 
HETATM    2  C   UNK N   1      42.827  20.375   3.191  0.00  0.00     0.205 A 
HETATM    3  O   UNK N   1      44.125  20.646   3.714  0.00  0.00    -0.356 OA
HETATM    4  C   UNK N   1      44.590  21.977   3.686  0.00  0.00     0.288 A 
HETATM    5  C   UNK N   1      43.826  23.179   3.138  0.00  0.00     0.204 A 
HETATM    6  C   UNK N   1      42.454  22.939   2.577  0.00  0.00     0.182 A 
ENDROOT
BRANCH   1   7
HETATM    7  O   UNK N   1      40.716  21.136   2.128  0.00  0.00    -0.391 OA
HETATM    8  H   UNK N   1      39.931  21.650   2.376  0.00  0.00     0.210 HD
ENDBRANCH   1   7
BRANCH   6   9
HETATM    9  O   UNK N   1      41.694  23.990   2.057  0.00  0.00    -0.390 OA
HETATM   10  H   UNK N   1      40.748  23.863   1.881  0.00  0.00     0.210 HD
ENDBRANCH   6   9
BRANCH   5  11
HETATM   11  O   UNK N   1      44.387  24.456   3.161  0.00  0.00    -0.388 OA
HETATM   12  H   UNK N   1      44.131  25.110   2.493  0.00  0.00     0.210 HD
ENDBRANCH   5  11
BRANCH   4  13
HETATM   13  O   UNK N   1      45.868  22.164   4.216  0.00  0.00    -0.369 OA
HETATM   14  H   UNK N   1      46.160  21.636   4.975  0.00  0.00     0.212 HD
ENDBRANCH   4  13
TORSDOF 4
ENDMDL
