MODEL 1
REMARK VINA RESULT:      -7.3      0.000      0.000
REMARK  14 active torsions:
REMARK  status: ('A' for Active; 'I' for Inactive)
REMARK    1  A    between atoms: C_7  and  C_5 
REMARK    2  A    between atoms: C_17  and  C_5 
REMARK    3  A    between atoms: C_8  and  C_6 
REMARK    4  A    between atoms: C_18  and  C_6 
REMARK    5  A    between atoms: C_27  and  C_7 
REMARK    6  A    between atoms: C_28  and  C_8 
REMARK    7  A    between atoms: C_29  and  C_13 
REMARK    8  A    between atoms: C_33  and  C_13 
REMARK    9  A    between atoms: C_30  and  C_14 
REMARK   10  A    between atoms: O_40  and  C_27 
REMARK   11  A    between atoms: O_42  and  C_28 
REMARK   12  A    between atoms: O_44  and  C_29 
REMARK   13  A    between atoms: O_46  and  C_30 
REMARK   14  A    between atoms: O_48  and  C_31 
ROOT
HETATM    1  C   UNK N   1      30.054  18.687   9.597  0.00  0.00     0.051 C 
HETATM    2  C   UNK N   1      28.646  13.360   1.667  0.00  0.00     0.051 C 
HETATM    3  C   UNK N   1      33.161  10.970   2.866  0.00  0.00     0.031 C 
HETATM    4  C   UNK N   1      33.557  13.198   6.537  0.00  0.00     0.020 C 
HETATM    5  C   UNK N   1      32.469  17.194   8.517  0.00  0.00     0.029 C 
HETATM    6  C   UNK N   1      28.880  16.276   5.619  0.00  0.00     0.064 A 
HETATM    7  C   UNK N   1      31.475  13.342   2.762  0.00  0.00     0.060 A 
HETATM    8  C   UNK N   1      35.564  14.490   5.410  0.00  0.00     0.030 C 
HETATM    9  C   UNK N   1      33.813  16.211   4.769  0.00  0.00     0.123 A 
HETATM   10  C   UNK N   1      30.193  17.970   8.302  0.00  0.00    -0.025 A 
HETATM   11  C   UNK N   1      29.136  14.039   2.903  0.00  0.00    -0.025 A 
HETATM   12  C   UNK N   1      29.192  17.702   7.396  0.00  0.00    -0.021 A 
HETATM   13  C   UNK N   1      28.389  14.767   3.761  0.00  0.00    -0.021 A 
HETATM   14  C   UNK N   1      31.305  17.315   7.833  0.00  0.00     0.062 A 
HETATM   15  C   UNK N   1      30.423  14.085   3.383  0.00  0.00     0.066 A 
HETATM   16  C   UNK N   1      29.679  16.852   6.490  0.00  0.00     0.066 A 
HETATM   17  C   UNK N   1      29.260  15.318   4.664  0.00  0.00     0.066 A 
HETATM   18  C   UNK N   1      33.456  16.205   8.050  0.00  0.00     0.130 C 
HETATM   19  C   UNK N   1      34.640  13.818   4.210  0.00  0.00     0.102 A 
HETATM   20  C   UNK N   1      32.747  13.312   3.116  0.00  0.00     0.054 A 
HETATM   21  C   UNK N   1      34.984  15.151   6.587  0.00  0.00     0.112 C 
HETATM   22  C   UNK N   1      33.024  15.087   7.762  0.00  0.00     0.151 C 
HETATM   23  C   UNK N   1      34.948  12.755   3.258  0.00  0.00     0.192 A 
HETATM   24  C   UNK N   1      33.683  12.371   2.501  0.00  0.00     0.077 A 
HETATM   25  C   UNK N   1      33.756  14.769   6.376  0.00  0.00     0.014 A 
HETATM   26 Fe   UNK N   1      32.154  15.471   5.539  0.00  0.00     0.000 Fe
HETATM   27  N   UNK N   1      30.991  16.655   6.675  0.00  0.00    -0.248 N 
HETATM   28  N   UNK N   1      30.507  14.886   4.470  0.00  0.00    -0.248 N 
HETATM   29  N   UNK N   1      34.118  16.260   6.933  0.00  0.00    -0.229 NA
HETATM   30  N   UNK N   1      33.334  14.058   4.127  0.00  0.00    -0.249 N 
HETATM   31  O   UNK N   1      36.011  12.167   3.174  0.00  0.00    -0.289 OA
ENDROOT
BRANCH  12  32
HETATM   32  C   UNK N   1      27.807  18.149   7.340  0.00  0.00     0.052 C 
BRANCH  32  33
HETATM   33  C   UNK N   1      27.825  19.624   7.155  0.00  0.00     0.115 C 
BRANCH  33  34
HETATM   34  C   UNK N   1      27.124  19.695   5.879  0.00  0.00     0.139 C 
HETATM   35  O   UNK N   1      27.772  19.615   4.849  0.00  0.00    -0.650 OA
BRANCH  34  36
HETATM   36  O   UNK N   1      25.791  19.544   5.849  0.00  0.00    -0.776 OA
HETATM   37  H   UNK N   1      25.374  18.704   5.847  0.00  0.00     0.167 HD
ENDBRANCH  34  36
ENDBRANCH  33  34
ENDBRANCH  32  33
ENDBRANCH  12  32
BRANCH  13  38
HETATM   38  C   UNK N   1      26.916  14.889   3.721  0.00  0.00     0.052 C 
BRANCH  38  39
HETATM   39  C   UNK N   1      26.422  15.942   2.775  0.00  0.00     0.115 C 
BRANCH  39  40
HETATM   40  C   UNK N   1      25.781  16.977   3.627  0.00  0.00     0.139 C 
HETATM   41  O   UNK N   1      25.468  16.714   4.779  0.00  0.00    -0.650 OA
BRANCH  40  42
HETATM   42  O   UNK N   1      25.583  18.215   3.145  0.00  0.00    -0.776 OA
HETATM   43  H   UNK N   1      25.943  18.955   3.594  0.00  0.00     0.167 HD
ENDBRANCH  40  42
ENDBRANCH  39  40
ENDBRANCH  38  39
ENDBRANCH  13  38
BRANCH   9  44
HETATM   44  C   UNK N   1      33.063  16.622   3.515  0.00  0.00     0.140 C 
HETATM   45  O   UNK N   1      32.066  17.314   3.572  0.00  0.00    -0.650 OA
BRANCH  44  46
HETATM   46  O   UNK N   1      33.574  16.295   2.313  0.00  0.00    -0.776 OA
HETATM   47  H   UNK N   1      33.793  15.537   1.808  0.00  0.00     0.167 HD
ENDBRANCH  44  46
ENDBRANCH   9  44
BRANCH  22  48
HETATM   48  O   UNK N   1      31.915  14.505   8.274  0.00  0.00    -0.393 OA
ATOM     49  HO  UNK N   1      31.102  14.946   8.492  1.00  0.00     0.210 HD
ENDBRANCH  22  48
BRANCH  24  50
HETATM   50  C   UNK N   1      33.719  12.687   1.013  0.00  0.00     0.133 C 
BRANCH  50  51
HETATM   51  C   UNK N   1      34.989  13.345   0.664  0.00  0.00     0.140 C 
HETATM   52  O   UNK N   1      35.057  14.563   0.676  0.00  0.00    -0.650 OA
BRANCH  51  53
HETATM   53  O   UNK N   1      36.008  12.610   0.191  0.00  0.00    -0.776 OA
HETATM   54  H   UNK N   1      36.600  12.946  -0.453  0.00  0.00     0.167 HD
ENDBRANCH  51  53
ENDBRANCH  50  51
ENDBRANCH  24  50
TORSDOF 14
ENDMDL
MODEL 2
REMARK VINA RESULT:      -6.8      3.783      9.160
REMARK  14 active torsions:
REMARK  status: ('A' for Active; 'I' for Inactive)
REMARK    1  A    between atoms: C_7  and  C_5 
REMARK    2  A    between atoms: C_17  and  C_5 
REMARK    3  A    between atoms: C_8  and  C_6 
REMARK    4  A    between atoms: C_18  and  C_6 
REMARK    5  A    between atoms: C_27  and  C_7 
REMARK    6  A    between atoms: C_28  and  C_8 
REMARK    7  A    between atoms: C_29  and  C_13 
REMARK    8  A    between atoms: C_33  and  C_13 
REMARK    9  A    between atoms: C_30  and  C_14 
REMARK   10  A    between atoms: O_40  and  C_27 
REMARK   11  A    between atoms: O_42  and  C_28 
REMARK   12  A    between atoms: O_44  and  C_29 
REMARK   13  A    between atoms: O_46  and  C_30 
REMARK   14  A    between atoms: O_48  and  C_31 
ROOT
HETATM    1  C   UNK N   1      30.812  13.553   4.951  0.00  0.00     0.051 C 
HETATM    2  C   UNK N   1      24.033  20.227   3.289  0.00  0.00     0.051 C 
HETATM    3  C   UNK N   1      20.583  16.696   5.068  0.00  0.00     0.031 C 
HETATM    4  C   UNK N   1      23.708  13.888   6.043  0.00  0.00     0.020 C 
HETATM    5  C   UNK N   1      27.938  12.573   4.841  0.00  0.00     0.029 C 
HETATM    6  C   UNK N   1      27.842  17.201   4.011  0.00  0.00     0.064 A 
HETATM    7  C   UNK N   1      23.013  17.388   3.620  0.00  0.00     0.060 A 
HETATM    8  C   UNK N   1      22.852  12.404   4.034  0.00  0.00     0.030 C 
HETATM    9  C   UNK N   1      24.618  13.615   2.672  0.00  0.00     0.123 A 
HETATM   10  C   UNK N   1      29.599  14.295   4.515  0.00  0.00    -0.025 A 
HETATM   11  C   UNK N   1      24.841  19.012   3.610  0.00  0.00    -0.025 A 
HETATM   12  C   UNK N   1      29.514  15.637   4.223  0.00  0.00    -0.021 A 
HETATM   13  C   UNK N   1      26.173  18.977   3.828  0.00  0.00    -0.021 A 
HETATM   14  C   UNK N   1      28.312  13.819   4.461  0.00  0.00     0.062 A 
HETATM   15  C   UNK N   1      24.403  17.714   3.710  0.00  0.00     0.066 A 
HETATM   16  C   UNK N   1      28.222  15.946   4.097  0.00  0.00     0.066 A 
HETATM   17  C   UNK N   1      26.514  17.655   3.942  0.00  0.00     0.066 A 
HETATM   18  C   UNK N   1      26.504  12.302   5.040  0.00  0.00     0.130 C 
HETATM   19  C   UNK N   1      22.310  13.952   3.804  0.00  0.00     0.102 A 
HETATM   20  C   UNK N   1      22.469  16.188   3.687  0.00  0.00     0.054 A 
HETATM   21  C   UNK N   1      24.213  12.097   4.497  0.00  0.00     0.112 C 
HETATM   22  C   UNK N   1      25.867  13.140   5.681  0.00  0.00     0.151 C 
HETATM   23  C   UNK N   1      20.954  14.495   3.821  0.00  0.00     0.192 A 
HETATM   24  C   UNK N   1      21.018  16.016   3.757  0.00  0.00     0.077 A 
HETATM   25  C   UNK N   1      24.538  13.320   4.810  0.00  0.00     0.014 A 
HETATM   26 Fe   UNK N   1      25.455  14.820   3.990  0.00  0.00     0.000 Fe
HETATM   27  N   UNK N   1      27.459  14.846   4.155  0.00  0.00    -0.248 N 
HETATM   28  N   UNK N   1      25.439  16.866   3.906  0.00  0.00    -0.248 N 
HETATM   29  N   UNK N   1      25.596  12.291   4.110  0.00  0.00    -0.229 NA
HETATM   30  N   UNK N   1      23.150  14.984   3.787  0.00  0.00    -0.249 N 
HETATM   31  O   UNK N   1      19.937  13.851   4.000  0.00  0.00    -0.289 OA
ENDROOT
BRANCH  12  32
HETATM   32  C   UNK N   1      30.546  16.656   4.095  0.00  0.00     0.052 C 
BRANCH  32  33
HETATM   33  C   UNK N   1      31.167  16.491   2.755  0.00  0.00     0.115 C 
BRANCH  33  34
HETATM   34  C   UNK N   1      32.566  16.631   3.141  0.00  0.00     0.139 C 
HETATM   35  O   UNK N   1      33.419  16.087   2.461  0.00  0.00    -0.650 OA
BRANCH  34  36
HETATM   36  O   UNK N   1      32.914  17.575   4.029  0.00  0.00    -0.776 OA
HETATM   37  H   UNK N   1      33.803  17.834   4.173  0.00  0.00     0.167 HD
ENDBRANCH  34  36
ENDBRANCH  33  34
ENDBRANCH  32  33
ENDBRANCH  12  32
BRANCH  13  38
HETATM   38  C   UNK N   1      27.052  20.161   3.950  0.00  0.00     0.052 C 
BRANCH  38  39
HETATM   39  C   UNK N   1      27.896  20.161   5.188  0.00  0.00     0.115 C 
BRANCH  39  40
HETATM   40  C   UNK N   1      27.003  20.619   6.283  0.00  0.00     0.139 C 
HETATM   41  O   UNK N   1      26.306  21.612   6.130  0.00  0.00    -0.650 OA
BRANCH  40  42
HETATM   42  O   UNK N   1      26.929  19.919   7.427  0.00  0.00    -0.776 OA
HETATM   43  H   UNK N   1      26.103  19.582   7.717  0.00  0.00     0.167 HD
ENDBRANCH  40  42
ENDBRANCH  39  40
ENDBRANCH  38  39
ENDBRANCH  13  38
BRANCH   9  44
HETATM   44  C   UNK N   1      24.656  14.713   1.624  0.00  0.00     0.140 C 
HETATM   45  O   UNK N   1      25.624  15.435   1.500  0.00  0.00    -0.650 OA
BRANCH  44  46
HETATM   46  O   UNK N   1      23.636  14.818   0.751  0.00  0.00    -0.776 OA
HETATM   47  H   UNK N   1      23.087  14.275   0.220  0.00  0.00     0.167 HD
ENDBRANCH  44  46
ENDBRANCH   9  44
BRANCH  22  48
HETATM   48  O   UNK N   1      26.369  13.974   6.621  0.00  0.00    -0.393 OA
ATOM     49  HO  UNK N   1      26.951  13.731   7.332  1.00  0.00     0.210 HD
ENDBRANCH  22  48
BRANCH  24  50
HETATM   50  C   UNK N   1      20.436  16.616   2.485  0.00  0.00     0.133 C 
BRANCH  50  51
HETATM   51  C   UNK N   1      20.184  15.559   1.493  0.00  0.00     0.140 C 
HETATM   52  O   UNK N   1      20.994  15.367   0.602  0.00  0.00    -0.650 OA
BRANCH  51  53
HETATM   53  O   UNK N   1      19.000  14.925   1.487  0.00  0.00    -0.776 OA
HETATM   54  H   UNK N   1      18.873  14.123   1.019  0.00  0.00     0.167 HD
ENDBRANCH  51  53
ENDBRANCH  50  51
ENDBRANCH  24  50
TORSDOF 14
ENDMDL
MODEL 3
REMARK VINA RESULT:      -6.8     12.308     16.255
REMARK  14 active torsions:
REMARK  status: ('A' for Active; 'I' for Inactive)
REMARK    1  A    between atoms: C_7  and  C_5 
REMARK    2  A    between atoms: C_17  and  C_5 
REMARK    3  A    between atoms: C_8  and  C_6 
REMARK    4  A    between atoms: C_18  and  C_6 
REMARK    5  A    between atoms: C_27  and  C_7 
REMARK    6  A    between atoms: C_28  and  C_8 
REMARK    7  A    between atoms: C_29  and  C_13 
REMARK    8  A    between atoms: C_33  and  C_13 
REMARK    9  A    between atoms: C_30  and  C_14 
REMARK   10  A    between atoms: O_40  and  C_27 
REMARK   11  A    between atoms: O_42  and  C_28 
REMARK   12  A    between atoms: O_44  and  C_29 
REMARK   13  A    between atoms: O_46  and  C_30 
REMARK   14  A    between atoms: O_48  and  C_31 
ROOT
HETATM    1  C   UNK N   1      29.532  18.685 -11.775  0.00  0.00     0.051 C 
HETATM    2  C   UNK N   1      30.991  22.356  -2.962  0.00  0.00     0.051 C 
HETATM    3  C   UNK N   1      26.211  24.474  -3.409  0.00  0.00     0.031 C 
HETATM    4  C   UNK N   1      25.536  22.559  -7.213  0.00  0.00     0.020 C 
HETATM    5  C   UNK N   1      27.704  20.961 -10.930  0.00  0.00     0.029 C 
HETATM    6  C   UNK N   1      30.705  20.224  -7.385  0.00  0.00     0.064 A 
HETATM    7  C   UNK N   1      28.756  23.647  -4.558  0.00  0.00     0.060 A 
HETATM    8  C   UNK N   1      25.731  24.945  -8.327  0.00  0.00     0.030 C 
HETATM    9  C   UNK N   1      28.174  24.348  -8.667  0.00  0.00     0.123 A 
HETATM   10  C   UNK N   1      29.648  19.571 -10.585  0.00  0.00    -0.025 A 
HETATM   11  C   UNK N   1      30.508  21.959  -4.319  0.00  0.00    -0.025 A 
HETATM   12  C   UNK N   1      30.527  19.431  -9.535  0.00  0.00    -0.021 A 
HETATM   13  C   UNK N   1      30.978  20.933  -5.062  0.00  0.00    -0.021 A 
HETATM   14  C   UNK N   1      28.813  20.604 -10.237  0.00  0.00     0.062 A 
HETATM   15  C   UNK N   1      29.535  22.566  -5.076  0.00  0.00     0.066 A 
HETATM   16  C   UNK N   1      30.158  20.284  -8.578  0.00  0.00     0.066 A 
HETATM   17  C   UNK N   1      30.357  21.020  -6.280  0.00  0.00     0.066 A 
HETATM   18  C   UNK N   1      26.732  21.858 -10.283  0.00  0.00     0.130 C 
HETATM   19  C   UNK N   1      26.456  25.005  -6.839  0.00  0.00     0.102 A 
HETATM   20  C   UNK N   1      27.807  24.318  -5.183  0.00  0.00     0.054 A 
HETATM   21  C   UNK N   1      25.900  23.814  -9.250  0.00  0.00     0.112 C 
HETATM   22  C   UNK N   1      26.427  21.594  -9.118  0.00  0.00     0.151 C 
HETATM   23  C   UNK N   1      26.083  25.734  -5.630  0.00  0.00     0.192 A 
HETATM   24  C   UNK N   1      26.969  25.286  -4.475  0.00  0.00     0.077 A 
HETATM   25  C   UNK N   1      26.491  23.022  -8.401  0.00  0.00     0.014 A 
HETATM   26 Fe   UNK N   1      28.301  22.530  -7.911  0.00  0.00     0.000 Fe
HETATM   27  N   UNK N   1      29.165  21.077  -9.002  0.00  0.00    -0.248 N 
HETATM   28  N   UNK N   1      29.444  21.993  -6.298  0.00  0.00    -0.248 N 
HETATM   29  N   UNK N   1      26.937  23.102  -9.969  0.00  0.00    -0.229 NA
HETATM   30  N   UNK N   1      27.422  24.153  -6.505  0.00  0.00    -0.249 N 
HETATM   31  O   UNK N   1      25.125  26.478  -5.520  0.00  0.00    -0.289 OA
ENDROOT
BRANCH  12  32
HETATM   32  C   UNK N   1      31.655  18.531  -9.346  0.00  0.00     0.052 C 
BRANCH  32  33
HETATM   33  C   UNK N   1      31.122  17.143  -9.353  0.00  0.00     0.115 C 
BRANCH  33  34
HETATM   34  C   UNK N   1      32.339  16.441  -9.740  0.00  0.00     0.139 C 
HETATM   35  O   UNK N   1      33.123  16.996 -10.490  0.00  0.00    -0.650 OA
BRANCH  34  36
HETATM   36  O   UNK N   1      32.721  15.354  -9.052  0.00  0.00    -0.776 OA
HETATM   37  H   UNK N   1      33.128  14.613  -9.457  0.00  0.00     0.167 HD
ENDBRANCH  34  36
ENDBRANCH  33  34
ENDBRANCH  32  33
ENDBRANCH  12  32
BRANCH  13  38
HETATM   38  C   UNK N   1      31.946  19.915  -4.601  0.00  0.00     0.052 C 
BRANCH  38  39
HETATM   39  C   UNK N   1      33.372  20.250  -4.918  0.00  0.00     0.115 C 
BRANCH  39  40
HETATM   40  C   UNK N   1      34.184  19.168  -4.304  0.00  0.00     0.139 C 
HETATM   41  O   UNK N   1      35.405  19.222  -4.344  0.00  0.00    -0.650 OA
BRANCH  40  42
HETATM   42  O   UNK N   1      33.579  18.153  -3.668  0.00  0.00    -0.776 OA
HETATM   43  H   UNK N   1      33.521  17.311  -4.078  0.00  0.00     0.167 HD
ENDBRANCH  40  42
ENDBRANCH  39  40
ENDBRANCH  38  39
ENDBRANCH  13  38
BRANCH   9  44
HETATM   44  C   UNK N   1      29.507  24.716  -8.041  0.00  0.00     0.140 C 
HETATM   45  O   UNK N   1      30.475  23.989  -8.140  0.00  0.00    -0.650 OA
BRANCH  44  46
HETATM   46  O   UNK N   1      29.641  25.920  -7.453  0.00  0.00    -0.776 OA
HETATM   47  H   UNK N   1      29.933  26.297  -6.646  0.00  0.00     0.167 HD
ENDBRANCH  44  46
ENDBRANCH   9  44
BRANCH  22  48
HETATM   48  O   UNK N   1      26.459  20.368  -8.545  0.00  0.00    -0.393 OA
ATOM     49  HO  UNK N   1      27.240  19.893  -8.283  1.00  0.00     0.210 HD
ENDBRANCH  22  48
BRANCH  24  50
HETATM   50  C   UNK N   1      27.895  26.367  -3.936  0.00  0.00     0.133 C 
BRANCH  50  51
HETATM   51  C   UNK N   1      27.153  27.623  -3.745  0.00  0.00     0.140 C 
HETATM   52  O   UNK N   1      27.509  28.627  -4.338  0.00  0.00    -0.650 OA
BRANCH  51  53
HETATM   53  O   UNK N   1      26.193  27.689  -2.807  0.00  0.00    -0.776 OA
HETATM   54  H   UNK N   1      25.988  26.958  -2.259  0.00  0.00     0.167 HD
ENDBRANCH  51  53
ENDBRANCH  50  51
ENDBRANCH  24  50
TORSDOF 14
ENDMDL
MODEL 4
REMARK VINA RESULT:      -6.4     12.444     14.702
REMARK  14 active torsions:
REMARK  status: ('A' for Active; 'I' for Inactive)
REMARK    1  A    between atoms: C_7  and  C_5 
REMARK    2  A    between atoms: C_17  and  C_5 
REMARK    3  A    between atoms: C_8  and  C_6 
REMARK    4  A    between atoms: C_18  and  C_6 
REMARK    5  A    between atoms: C_27  and  C_7 
REMARK    6  A    between atoms: C_28  and  C_8 
REMARK    7  A    between atoms: C_29  and  C_13 
REMARK    8  A    between atoms: C_33  and  C_13 
REMARK    9  A    between atoms: C_30  and  C_14 
REMARK   10  A    between atoms: O_40  and  C_27 
REMARK   11  A    between atoms: O_42  and  C_28 
REMARK   12  A    between atoms: O_44  and  C_29 
REMARK   13  A    between atoms: O_46  and  C_30 
REMARK   14  A    between atoms: O_48  and  C_31 
ROOT
HETATM    1  C   UNK N   1      24.979  26.939  -5.938  0.00  0.00     0.051 C 
HETATM    2  C   UNK N   1      34.543  27.265  -4.643  0.00  0.00     0.051 C 
HETATM    3  C   UNK N   1      34.710  22.652  -7.138  0.00  0.00     0.031 C 
HETATM    4  C   UNK N   1      30.470  22.733  -7.919  0.00  0.00     0.020 C 
HETATM    5  C   UNK N   1      26.487  24.325  -6.284  0.00  0.00     0.029 C 
HETATM    6  C   UNK N   1      29.658  27.591  -5.103  0.00  0.00     0.064 A 
HETATM    7  C   UNK N   1      33.414  24.535  -5.333  0.00  0.00     0.060 A 
HETATM    8  C   UNK N   1      30.219  20.774  -6.167  0.00  0.00     0.030 C 
HETATM    9  C   UNK N   1      29.760  22.624  -4.491  0.00  0.00     0.123 A 
HETATM   10  C   UNK N   1      26.398  26.640  -5.606  0.00  0.00    -0.025 A 
HETATM   11  C   UNK N   1      33.121  26.931  -4.952  0.00  0.00    -0.025 A 
HETATM   12  C   UNK N   1      27.362  27.542  -5.219  0.00  0.00    -0.021 A 
HETATM   13  C   UNK N   1      32.090  27.804  -4.996  0.00  0.00    -0.021 A 
HETATM   14  C   UNK N   1      27.049  25.441  -5.759  0.00  0.00     0.062 A 
HETATM   15  C   UNK N   1      32.585  25.693  -5.213  0.00  0.00     0.066 A 
HETATM   16  C   UNK N   1      28.540  26.914  -5.240  0.00  0.00     0.066 A 
HETATM   17  C   UNK N   1      30.955  27.056  -5.171  0.00  0.00     0.066 A 
HETATM   18  C   UNK N   1      27.373  23.220  -6.690  0.00  0.00     0.130 C 
HETATM   19  C   UNK N   1      31.660  21.542  -5.885  0.00  0.00     0.102 A 
HETATM   20  C   UNK N   1      33.025  23.295  -5.568  0.00  0.00     0.054 A 
HETATM   21  C   UNK N   1      28.977  21.498  -6.471  0.00  0.00     0.112 C 
HETATM   22  C   UNK N   1      28.375  23.525  -7.340  0.00  0.00     0.151 C 
HETATM   23  C   UNK N   1      33.033  21.069  -6.035  0.00  0.00     0.192 A 
HETATM   24  C   UNK N   1      33.994  22.234  -5.841  0.00  0.00     0.077 A 
HETATM   25  C   UNK N   1      29.528  22.667  -6.638  0.00  0.00     0.014 A 
HETATM   26 Fe   UNK N   1      29.871  24.260  -5.587  0.00  0.00     0.000 Fe
HETATM   27  N   UNK N   1      28.380  25.607  -5.485  0.00  0.00    -0.248 N 
HETATM   28  N   UNK N   1      31.240  25.764  -5.341  0.00  0.00    -0.248 N 
HETATM   29  N   UNK N   1      28.087  22.485  -5.892  0.00  0.00    -0.229 NA
HETATM   30  N   UNK N   1      31.714  22.855  -5.675  0.00  0.00    -0.249 N 
HETATM   31  O   UNK N   1      33.361  19.953  -6.398  0.00  0.00    -0.289 OA
ENDROOT
BRANCH  12  32
HETATM   32  C   UNK N   1      27.269  28.954  -4.875  0.00  0.00     0.052 C 
BRANCH  32  33
HETATM   33  C   UNK N   1      26.313  29.072  -3.744  0.00  0.00     0.115 C 
BRANCH  33  34
HETATM   34  C   UNK N   1      27.152  29.828  -2.823  0.00  0.00     0.139 C 
HETATM   35  O   UNK N   1      27.674  29.242  -1.890  0.00  0.00    -0.650 OA
BRANCH  34  36
HETATM   36  O   UNK N   1      27.577  31.053  -3.171  0.00  0.00    -0.776 OA
HETATM   37  H   UNK N   1      26.997  31.780  -3.280  0.00  0.00     0.167 HD
ENDBRANCH  34  36
ENDBRANCH  33  34
ENDBRANCH  32  33
ENDBRANCH  12  32
BRANCH  13  38
HETATM   38  C   UNK N   1      32.210  29.275  -4.907  0.00  0.00     0.052 C 
BRANCH  38  39
HETATM   39  C   UNK N   1      32.264  29.792  -3.501  0.00  0.00     0.115 C 
BRANCH  39  40
HETATM   40  C   UNK N   1      30.952  30.446  -3.263  0.00  0.00     0.139 C 
HETATM   41  O   UNK N   1      30.340  30.947  -4.195  0.00  0.00    -0.650 OA
BRANCH  40  42
HETATM   42  O   UNK N   1      30.417  30.451  -2.031  0.00  0.00    -0.776 OA
HETATM   43  H   UNK N   1      29.628  30.929  -1.865  0.00  0.00     0.167 HD
ENDBRANCH  40  42
ENDBRANCH  39  40
ENDBRANCH  38  39
ENDBRANCH  13  38
BRANCH   9  44
HETATM   44  C   UNK N   1      30.505  23.313  -3.363  0.00  0.00     0.140 C 
HETATM   45  O   UNK N   1      30.207  24.433  -2.999  0.00  0.00    -0.650 OA
BRANCH  44  46
HETATM   46  O   UNK N   1      31.447  22.627  -2.687  0.00  0.00    -0.776 OA
HETATM   47  H   UNK N   1      32.354  22.683  -2.464  0.00  0.00     0.167 HD
ENDBRANCH  44  46
ENDBRANCH   9  44
BRANCH  22  48
HETATM   48  O   UNK N   1      28.509  24.612  -8.135  0.00  0.00    -0.393 OA
ATOM     49  HO  UNK N   1      28.297  25.507  -7.899  1.00  0.00     0.210 HD
ENDBRANCH  22  48
BRANCH  24  50
HETATM   50  C   UNK N   1      34.884  22.117  -4.612  0.00  0.00     0.133 C 
BRANCH  50  51
HETATM   51  C   UNK N   1      34.562  20.890  -3.866  0.00  0.00     0.140 C 
HETATM   52  O   UNK N   1      33.764  20.939  -2.946  0.00  0.00    -0.650 OA
BRANCH  51  53
HETATM   53  O   UNK N   1      35.260  19.768  -4.103  0.00  0.00    -0.776 OA
HETATM   54  H   UNK N   1      35.307  19.388  -4.958  0.00  0.00     0.167 HD
ENDBRANCH  51  53
ENDBRANCH  50  51
ENDBRANCH  24  50
TORSDOF 14
ENDMDL
MODEL 5
REMARK VINA RESULT:      -6.3      4.321      8.250
REMARK  14 active torsions:
REMARK  status: ('A' for Active; 'I' for Inactive)
REMARK    1  A    between atoms: C_7  and  C_5 
REMARK    2  A    between atoms: C_17  and  C_5 
REMARK    3  A    between atoms: C_8  and  C_6 
REMARK    4  A    between atoms: C_18  and  C_6 
REMARK    5  A    between atoms: C_27  and  C_7 
REMARK    6  A    between atoms: C_28  and  C_8 
REMARK    7  A    between atoms: C_29  and  C_13 
REMARK    8  A    between atoms: C_33  and  C_13 
REMARK    9  A    between atoms: C_30  and  C_14 
REMARK   10  A    between atoms: O_40  and  C_27 
REMARK   11  A    between atoms: O_42  and  C_28 
REMARK   12  A    between atoms: O_44  and  C_29 
REMARK   13  A    between atoms: O_46  and  C_30 
REMARK   14  A    between atoms: O_48  and  C_31 
ROOT
HETATM    1  C   UNK N   1      19.188  17.285   3.126  0.00  0.00     0.051 C 
HETATM    2  C   UNK N   1      28.752  18.061   4.218  0.00  0.00     0.051 C 
HETATM    3  C   UNK N   1      29.068  13.351   1.928  0.00  0.00     0.031 C 
HETATM    4  C   UNK N   1      24.815  13.222   1.227  0.00  0.00     0.020 C 
HETATM    5  C   UNK N   1      20.799  14.722   2.867  0.00  0.00     0.029 C 
HETATM    6  C   UNK N   1      23.850  18.165   3.840  0.00  0.00     0.064 A 
HETATM    7  C   UNK N   1      27.727  15.258   3.672  0.00  0.00     0.060 A 
HETATM    8  C   UNK N   1      24.677  11.336   3.069  0.00  0.00     0.030 C 
HETATM    9  C   UNK N   1      24.171  13.239   4.670  0.00  0.00     0.123 A 
HETATM   10  C   UNK N   1      20.624  17.059   3.444  0.00  0.00    -0.025 A 
HETATM   11  C   UNK N   1      27.340  17.656   3.952  0.00  0.00    -0.025 A 
HETATM   12  C   UNK N   1      21.557  18.017   3.770  0.00  0.00    -0.021 A 
HETATM   13  C   UNK N   1      26.273  18.482   3.889  0.00  0.00    -0.021 A 
HETATM   14  C   UNK N   1      21.322  15.882   3.331  0.00  0.00     0.062 A 
HETATM   15  C   UNK N   1      26.852  16.386   3.756  0.00  0.00     0.066 A 
HETATM   16  C   UNK N   1      22.759  17.438   3.755  0.00  0.00     0.066 A 
HETATM   17  C   UNK N   1      25.167  17.682   3.770  0.00  0.00     0.066 A 
HETATM   18  C   UNK N   1      21.722  13.637   2.493  0.00  0.00     0.130 C 
HETATM   19  C   UNK N   1      26.089  12.175   3.288  0.00  0.00     0.102 A 
HETATM   20  C   UNK N   1      27.385  13.995   3.500  0.00  0.00     0.054 A 
HETATM   21  C   UNK N   1      23.401  11.994   2.758  0.00  0.00     0.112 C 
HETATM   22  C   UNK N   1      22.699  13.953   1.812  0.00  0.00     0.151 C 
HETATM   23  C   UNK N   1      27.478  11.751   3.133  0.00  0.00     0.192 A 
HETATM   24  C   UNK N   1      28.393  12.963   3.256  0.00  0.00     0.077 A 
HETATM   25  C   UNK N   1      23.899  13.176   2.528  0.00  0.00     0.014 A 
HETATM   26 Fe   UNK N   1      24.193  14.828   3.500  0.00  0.00     0.000 Fe
HETATM   27  N   UNK N   1      22.650  16.115   3.571  0.00  0.00    -0.248 N 
HETATM   28  N   UNK N   1      25.503  16.396   3.652  0.00  0.00    -0.248 N 
HETATM   29  N   UNK N   1      22.481  12.969   3.310  0.00  0.00    -0.229 NA
HETATM   30  N   UNK N   1      26.093  13.497   3.438  0.00  0.00    -0.249 N 
HETATM   31  O   UNK N   1      27.846  10.635   2.814  0.00  0.00    -0.289 OA
ENDROOT
BRANCH  12  32
HETATM   32  C   UNK N   1      21.411  19.438   4.053  0.00  0.00     0.052 C 
BRANCH  32  33
HETATM   33  C   UNK N   1      20.557  20.017   2.983  0.00  0.00     0.115 C 
BRANCH  33  34
HETATM   34  C   UNK N   1      21.607  20.570   2.137  0.00  0.00     0.139 C 
HETATM   35  O   UNK N   1      21.451  20.563   0.928  0.00  0.00    -0.650 OA
BRANCH  34  36
HETATM   36  O   UNK N   1      22.566  21.332   2.688  0.00  0.00    -0.776 OA
HETATM   37  H   UNK N   1      22.443  22.240   2.883  0.00  0.00     0.167 HD
ENDBRANCH  34  36
ENDBRANCH  33  34
ENDBRANCH  32  33
ENDBRANCH  12  32
BRANCH  13  38
HETATM   38  C   UNK N   1      26.333  19.960   3.911  0.00  0.00     0.052 C 
BRANCH  38  39
HETATM   39  C   UNK N   1      25.764  20.569   5.157  0.00  0.00     0.115 C 
BRANCH  39  40
HETATM   40  C   UNK N   1      26.900  20.670   6.108  0.00  0.00     0.139 C 
HETATM   41  O   UNK N   1      27.654  21.631   6.062  0.00  0.00    -0.650 OA
BRANCH  40  42
HETATM   42  O   UNK N   1      27.076  19.726   7.047  0.00  0.00    -0.776 OA
HETATM   43  H   UNK N   1      27.893  19.665   7.504  0.00  0.00     0.167 HD
ENDBRANCH  40  42
ENDBRANCH  39  40
ENDBRANCH  38  39
ENDBRANCH  13  38
BRANCH   9  44
HETATM   44  C   UNK N   1      24.906  14.009   5.751  0.00  0.00     0.140 C 
HETATM   45  O   UNK N   1      24.546  15.117   6.096  0.00  0.00    -0.650 OA
BRANCH  44  46
HETATM   46  O   UNK N   1      25.914  13.406   6.411  0.00  0.00    -0.776 OA
HETATM   47  H   UNK N   1      26.103  12.604   6.855  0.00  0.00     0.167 HD
ENDBRANCH  44  46
ENDBRANCH   9  44
BRANCH  22  48
HETATM   48  O   UNK N   1      22.773  15.007   0.966  0.00  0.00    -0.393 OA
ATOM     49  HO  UNK N   1      22.046  15.553   0.688  1.00  0.00     0.210 HD
ENDBRANCH  22  48
BRANCH  24  50
HETATM   50  C   UNK N   1      29.309  12.938   4.471  0.00  0.00     0.133 C 
BRANCH  50  51
HETATM   51  C   UNK N   1      30.614  12.362   4.113  0.00  0.00     0.140 C 
HETATM   52  O   UNK N   1      31.578  13.096   3.976  0.00  0.00    -0.650 OA
BRANCH  51  53
HETATM   53  O   UNK N   1      30.698  11.061   3.790  0.00  0.00    -0.776 OA
HETATM   54  H   UNK N   1      31.365  10.507   4.145  0.00  0.00     0.167 HD
ENDBRANCH  51  53
ENDBRANCH  50  51
ENDBRANCH  24  50
TORSDOF 14
ENDMDL
MODEL 6
REMARK VINA RESULT:      -6.3      4.773      7.327
REMARK  14 active torsions:
REMARK  status: ('A' for Active; 'I' for Inactive)
REMARK    1  A    between atoms: C_7  and  C_5 
REMARK    2  A    between atoms: C_17  and  C_5 
REMARK    3  A    between atoms: C_8  and  C_6 
REMARK    4  A    between atoms: C_18  and  C_6 
REMARK    5  A    between atoms: C_27  and  C_7 
REMARK    6  A    between atoms: C_28  and  C_8 
REMARK    7  A    between atoms: C_29  and  C_13 
REMARK    8  A    between atoms: C_33  and  C_13 
REMARK    9  A    between atoms: C_30  and  C_14 
REMARK   10  A    between atoms: O_40  and  C_27 
REMARK   11  A    between atoms: O_42  and  C_28 
REMARK   12  A    between atoms: O_44  and  C_29 
REMARK   13  A    between atoms: O_46  and  C_30 
REMARK   14  A    between atoms: O_48  and  C_31 
ROOT
HETATM    1  C   UNK N   1      34.144  18.698   8.313  0.00  0.00     0.051 C 
HETATM    2  C   UNK N   1      34.573   9.333   5.999  0.00  0.00     0.051 C 
HETATM    3  C   UNK N   1      34.968   8.413  11.150  0.00  0.00     0.031 C 
HETATM    4  C   UNK N   1      34.482  12.590  12.102  0.00  0.00     0.020 C 
HETATM    5  C   UNK N   1      35.193  16.816  10.454  0.00  0.00     0.029 C 
HETATM    6  C   UNK N   1      34.257  14.195   6.664  0.00  0.00     0.064 A 
HETATM    7  C   UNK N   1      35.529  10.029   8.793  0.00  0.00     0.060 A 
HETATM    8  C   UNK N   1      37.025  12.615  12.808  0.00  0.00     0.030 C 
HETATM    9  C   UNK N   1      37.454  13.395  10.431  0.00  0.00     0.123 A 
HETATM   10  C   UNK N   1      34.514  17.263   8.181  0.00  0.00    -0.025 A 
HETATM   11  C   UNK N   1      34.566  10.680   6.643  0.00  0.00    -0.025 A 
HETATM   12  C   UNK N   1      34.301  16.454   7.089  0.00  0.00    -0.021 A 
HETATM   13  C   UNK N   1      34.109  11.824   6.088  0.00  0.00    -0.021 A 
HETATM   14  C   UNK N   1      35.001  16.440   9.167  0.00  0.00     0.062 A 
HETATM   15  C   UNK N   1      35.044  11.021   7.885  0.00  0.00     0.066 A 
HETATM   16  C   UNK N   1      34.564  15.198   7.455  0.00  0.00     0.066 A 
HETATM   17  C   UNK N   1      34.423  12.832   6.962  0.00  0.00     0.066 A 
HETATM   18  C   UNK N   1      35.406  15.766  11.465  0.00  0.00     0.130 C 
HETATM   19  C   UNK N   1      36.774  11.311  11.817  0.00  0.00     0.102 A 
HETATM   20  C   UNK N   1      36.022  10.227  10.002  0.00  0.00     0.054 A 
HETATM   21  C   UNK N   1      36.441  13.938  12.547  0.00  0.00     0.112 C 
HETATM   22  C   UNK N   1      34.645  14.797  11.425  0.00  0.00     0.151 C 
HETATM   23  C   UNK N   1      36.835   9.880  12.098  0.00  0.00     0.192 A 
HETATM   24  C   UNK N   1      36.319   9.105  10.892  0.00  0.00     0.077 A 
HETATM   25  C   UNK N   1      35.640  13.557  11.593  0.00  0.00     0.014 A 
HETATM   26 Fe   UNK N   1      35.642  13.485   9.655  0.00  0.00     0.000 Fe
HETATM   27  N   UNK N   1      35.074  15.158   8.693  0.00  0.00    -0.248 N 
HETATM   28  N   UNK N   1      34.966  12.357   8.084  0.00  0.00    -0.248 N 
HETATM   29  N   UNK N   1      36.438  14.981  11.541  0.00  0.00    -0.229 NA
HETATM   30  N   UNK N   1      36.237  11.455  10.608  0.00  0.00    -0.249 N 
HETATM   31  O   UNK N   1      37.118   9.382  13.173  0.00  0.00    -0.289 OA
ENDROOT
BRANCH  12  32
HETATM   32  C   UNK N   1      33.830  16.762   5.746  0.00  0.00     0.052 C 
BRANCH  32  33
HETATM   33  C   UNK N   1      32.378  17.065   5.845  0.00  0.00     0.115 C 
BRANCH  33  34
HETATM   34  C   UNK N   1      32.080  17.183   4.423  0.00  0.00     0.139 C 
HETATM   35  O   UNK N   1      32.593  16.394   3.649  0.00  0.00    -0.650 OA
BRANCH  34  36
HETATM   36  O   UNK N   1      31.043  17.938   4.026  0.00  0.00    -0.776 OA
HETATM   37  H   UNK N   1      31.021  18.868   4.134  0.00  0.00     0.167 HD
ENDBRANCH  34  36
ENDBRANCH  33  34
ENDBRANCH  32  33
ENDBRANCH  12  32
BRANCH  13  38
HETATM   38  C   UNK N   1      33.382  11.922   4.805  0.00  0.00     0.052 C 
BRANCH  38  39
HETATM   39  C   UNK N   1      31.893  11.808   4.943  0.00  0.00     0.115 C 
BRANCH  39  40
HETATM   40  C   UNK N   1      31.366  13.182   4.741  0.00  0.00     0.139 C 
HETATM   41  O   UNK N   1      30.908  13.806   5.688  0.00  0.00    -0.650 OA
BRANCH  40  42
HETATM   42  O   UNK N   1      31.430  13.756   3.529  0.00  0.00    -0.776 OA
HETATM   43  H   UNK N   1      31.489  13.221   2.761  0.00  0.00     0.167 HD
ENDBRANCH  40  42
ENDBRANCH  39  40
ENDBRANCH  38  39
ENDBRANCH  13  38
BRANCH   9  44
HETATM   44  C   UNK N   1      37.990  12.797   9.143  0.00  0.00     0.140 C 
HETATM   45  O   UNK N   1      37.698  13.261   8.060  0.00  0.00    -0.650 OA
BRANCH  44  46
HETATM   46  O   UNK N   1      38.888  11.795   9.213  0.00  0.00    -0.776 OA
HETATM   47  H   UNK N   1      39.686  11.576   9.652  0.00  0.00     0.167 HD
ENDBRANCH  44  46
ENDBRANCH   9  44
BRANCH  22  48
HETATM   48  O   UNK N   1      33.382  14.795  10.938  0.00  0.00    -0.393 OA
ATOM     49  HO  UNK N   1      32.902  15.554  10.624  1.00  0.00     0.210 HD
ENDBRANCH  22  48
BRANCH  24  50
HETATM   50  C   UNK N   1      37.369   8.250  10.198  0.00  0.00     0.133 C 
BRANCH  50  51
HETATM   51  C   UNK N   1      38.702   8.530  10.754  0.00  0.00     0.140 C 
HETATM   52  O   UNK N   1      39.438   9.317  10.183  0.00  0.00    -0.650 OA
BRANCH  51  53
HETATM   53  O   UNK N   1      39.152   7.807  11.793  0.00  0.00    -0.776 OA
HETATM   54  H   UNK N   1      39.046   6.877  11.829  0.00  0.00     0.167 HD
ENDBRANCH  51  53
ENDBRANCH  50  51
ENDBRANCH  24  50
TORSDOF 14
ENDMDL
MODEL 7
REMARK VINA RESULT:      -6.2      5.220      9.707
REMARK  14 active torsions:
REMARK  status: ('A' for Active; 'I' for Inactive)
REMARK    1  A    between atoms: C_7  and  C_5 
REMARK    2  A    between atoms: C_17  and  C_5 
REMARK    3  A    between atoms: C_8  and  C_6 
REMARK    4  A    between atoms: C_18  and  C_6 
REMARK    5  A    between atoms: C_27  and  C_7 
REMARK    6  A    between atoms: C_28  and  C_8 
REMARK    7  A    between atoms: C_29  and  C_13 
REMARK    8  A    between atoms: C_33  and  C_13 
REMARK    9  A    between atoms: C_30  and  C_14 
REMARK   10  A    between atoms: O_40  and  C_27 
REMARK   11  A    between atoms: O_42  and  C_28 
REMARK   12  A    between atoms: O_44  and  C_29 
REMARK   13  A    between atoms: O_46  and  C_30 
REMARK   14  A    between atoms: O_48  and  C_31 
ROOT
HETATM    1  C   UNK N   1      22.514  20.207   3.026  0.00  0.00     0.051 C 
HETATM    2  C   UNK N   1      27.966  12.425   4.749  0.00  0.00     0.051 C 
HETATM    3  C   UNK N   1      23.579   9.615   4.121  0.00  0.00     0.031 C 
HETATM    4  C   UNK N   1      21.287  13.117   3.082  0.00  0.00     0.020 C 
HETATM    5  C   UNK N   1      21.043  17.651   3.756  0.00  0.00     0.029 C 
HETATM    6  C   UNK N   1      25.640  16.669   3.877  0.00  0.00     0.064 A 
HETATM    7  C   UNK N   1      24.974  12.006   5.026  0.00  0.00     0.060 A 
HETATM    8  C   UNK N   1      20.059  12.870   5.406  0.00  0.00     0.030 C 
HETATM    9  C   UNK N   1      21.812  14.495   6.259  0.00  0.00     0.123 A 
HETATM   10  C   UNK N   1      23.079  18.929   3.538  0.00  0.00    -0.025 A 
HETATM   11  C   UNK N   1      26.889  13.426   4.488  0.00  0.00    -0.025 A 
HETATM   12  C   UNK N   1      24.411  18.596   3.633  0.00  0.00    -0.021 A 
HETATM   13  C   UNK N   1      27.069  14.695   4.061  0.00  0.00    -0.021 A 
HETATM   14  C   UNK N   1      22.385  17.793   3.875  0.00  0.00     0.062 A 
HETATM   15  C   UNK N   1      25.535  13.269   4.660  0.00  0.00     0.066 A 
HETATM   16  C   UNK N   1      24.486  17.295   3.921  0.00  0.00     0.066 A 
HETATM   17  C   UNK N   1      25.838  15.295   4.094  0.00  0.00     0.066 A 
HETATM   18  C   UNK N   1      20.472  16.295   3.840  0.00  0.00     0.130 C 
HETATM   19  C   UNK N   1      21.491  12.041   5.485  0.00  0.00     0.102 A 
HETATM   20  C   UNK N   1      23.699  11.729   5.233  0.00  0.00     0.054 A 
HETATM   21  C   UNK N   1      19.938  14.193   4.778  0.00  0.00     0.112 C 
HETATM   22  C   UNK N   1      21.042  15.415   3.192  0.00  0.00     0.151 C 
HETATM   23  C   UNK N   1      21.754  10.611   5.609  0.00  0.00     0.192 A 
HETATM   24  C   UNK N   1      23.245  10.353   5.430  0.00  0.00     0.077 A 
HETATM   25  C   UNK N   1      21.122  14.204   4.234  0.00  0.00     0.014 A 
HETATM   26 Fe   UNK N   1      22.892  14.874   4.653  0.00  0.00     0.000 Fe
HETATM   27  N   UNK N   1      23.269  16.787   4.158  0.00  0.00    -0.248 N 
HETATM   28  N   UNK N   1      24.879  14.429   4.426  0.00  0.00    -0.248 N 
HETATM   29  N   UNK N   1      20.458  15.540   4.897  0.00  0.00    -0.229 NA
HETATM   30  N   UNK N   1      22.649  12.634   5.206  0.00  0.00    -0.249 N 
HETATM   31  O   UNK N   1      20.906   9.741   5.700  0.00  0.00    -0.289 OA
ENDROOT
BRANCH  12  32
HETATM   32  C   UNK N   1      25.613  19.392   3.432  0.00  0.00     0.052 C 
BRANCH  32  33
HETATM   33  C   UNK N   1      25.679  20.381   4.540  0.00  0.00     0.115 C 
BRANCH  33  34
HETATM   34  C   UNK N   1      26.893  19.903   5.190  0.00  0.00     0.139 C 
HETATM   35  O   UNK N   1      27.962  20.391   4.867  0.00  0.00    -0.650 OA
BRANCH  34  36
HETATM   36  O   UNK N   1      26.796  19.178   6.316  0.00  0.00    -0.776 OA
HETATM   37  H   UNK N   1      27.545  18.845   6.771  0.00  0.00     0.167 HD
ENDBRANCH  34  36
ENDBRANCH  33  34
ENDBRANCH  32  33
ENDBRANCH  12  32
BRANCH  13  38
HETATM   38  C   UNK N   1      28.355  15.274   3.617  0.00  0.00     0.052 C 
BRANCH  38  39
HETATM   39  C   UNK N   1      29.295  15.591   4.740  0.00  0.00     0.115 C 
BRANCH  39  40
HETATM   40  C   UNK N   1      29.285  17.071   4.866  0.00  0.00     0.139 C 
HETATM   41  O   UNK N   1      29.422  17.593   5.963  0.00  0.00    -0.650 OA
BRANCH  40  42
HETATM   42  O   UNK N   1      29.167  17.838   3.770  0.00  0.00    -0.776 OA
HETATM   43  H   UNK N   1      28.322  18.140   3.498  0.00  0.00     0.167 HD
ENDBRANCH  40  42
ENDBRANCH  39  40
ENDBRANCH  38  39
ENDBRANCH  13  38
BRANCH   9  44
HETATM   44  C   UNK N   1      23.069  14.432   7.106  0.00  0.00     0.140 C 
HETATM   45  O   UNK N   1      23.956  15.253   6.985  0.00  0.00    -0.650 OA
BRANCH  44  46
HETATM   46  O   UNK N   1      23.154  13.506   8.081  0.00  0.00    -0.776 OA
HETATM   47  H   UNK N   1      23.200  12.576   8.185  0.00  0.00     0.167 HD
ENDBRANCH  44  46
ENDBRANCH   9  44
BRANCH  22  48
HETATM   48  O   UNK N   1      21.770  15.599   2.067  0.00  0.00    -0.393 OA
ATOM     49  HO  UNK N   1      21.686  15.105   1.259  1.00  0.00     0.210 HD
ENDBRANCH  22  48
BRANCH  24  50
HETATM   50  C   UNK N   1      23.946   9.826   6.674  0.00  0.00     0.133 C 
BRANCH  50  51
HETATM   51  C   UNK N   1      24.175   8.377   6.554  0.00  0.00     0.140 C 
HETATM   52  O   UNK N   1      23.253   7.605   6.758  0.00  0.00    -0.650 OA
BRANCH  51  53
HETATM   53  O   UNK N   1      25.423   7.916   6.374  0.00  0.00    -0.776 OA
HETATM   54  H   UNK N   1      26.088   8.025   7.025  0.00  0.00     0.167 HD
ENDBRANCH  51  53
ENDBRANCH  50  51
ENDBRANCH  24  50
TORSDOF 14
ENDMDL
MODEL 8
REMARK VINA RESULT:      -6.2      3.361      7.052
REMARK  14 active torsions:
REMARK  status: ('A' for Active; 'I' for Inactive)
REMARK    1  A    between atoms: C_7  and  C_5 
REMARK    2  A    between atoms: C_17  and  C_5 
REMARK    3  A    between atoms: C_8  and  C_6 
REMARK    4  A    between atoms: C_18  and  C_6 
REMARK    5  A    between atoms: C_27  and  C_7 
REMARK    6  A    between atoms: C_28  and  C_8 
REMARK    7  A    between atoms: C_29  and  C_13 
REMARK    8  A    between atoms: C_33  and  C_13 
REMARK    9  A    between atoms: C_30  and  C_14 
REMARK   10  A    between atoms: O_40  and  C_27 
REMARK   11  A    between atoms: O_42  and  C_28 
REMARK   12  A    between atoms: O_44  and  C_29 
REMARK   13  A    between atoms: O_46  and  C_30 
REMARK   14  A    between atoms: O_48  and  C_31 
ROOT
HETATM    1  C   UNK N   1      29.060  15.308   2.122  0.00  0.00     0.051 C 
HETATM    2  C   UNK N   1      34.593   9.694   7.701  0.00  0.00     0.051 C 
HETATM    3  C   UNK N   1      34.840  13.770  10.996  0.00  0.00     0.031 C 
HETATM    4  C   UNK N   1      32.132  16.100   8.580  0.00  0.00     0.020 C 
HETATM    5  C   UNK N   1      30.696  16.710   4.263  0.00  0.00     0.029 C 
HETATM    6  C   UNK N   1      31.701  12.126   4.554  0.00  0.00     0.064 A 
HETATM    7  C   UNK N   1      34.726  12.665   8.304  0.00  0.00     0.060 A 
HETATM    8  C   UNK N   1      34.188  17.627   7.939  0.00  0.00     0.030 C 
HETATM    9  C   UNK N   1      34.403  16.114   5.913  0.00  0.00     0.123 A 
HETATM   10  C   UNK N   1      30.139  14.745   2.977  0.00  0.00    -0.025 A 
HETATM   11  C   UNK N   1      33.809  10.781   7.044  0.00  0.00    -0.025 A 
HETATM   12  C   UNK N   1      30.505  13.422   3.079  0.00  0.00    -0.021 A 
HETATM   13  C   UNK N   1      32.883  10.620   6.073  0.00  0.00    -0.021 A 
HETATM   14  C   UNK N   1      30.874  15.409   3.928  0.00  0.00     0.062 A 
HETATM   15  C   UNK N   1      33.896  12.134   7.268  0.00  0.00     0.066 A 
HETATM   16  C   UNK N   1      31.347  13.310   4.109  0.00  0.00     0.066 A 
HETATM   17  C   UNK N   1      32.524  11.878   5.665  0.00  0.00     0.066 A 
HETATM   18  C   UNK N   1      31.315  17.204   5.505  0.00  0.00     0.130 C 
HETATM   19  C   UNK N   1      34.769  16.172   8.480  0.00  0.00     0.102 A 
HETATM   20  C   UNK N   1      34.905  13.936   8.611  0.00  0.00     0.054 A 
HETATM   21  C   UNK N   1      33.029  17.738   7.042  0.00  0.00     0.112 C 
HETATM   22  C   UNK N   1      31.186  16.496   6.506  0.00  0.00     0.151 C 
HETATM   23  C   UNK N   1      35.541  15.844   9.675  0.00  0.00     0.192 A 
HETATM   24  C   UNK N   1      35.645  14.330   9.809  0.00  0.00     0.077 A 
HETATM   25  C   UNK N   1      32.659  16.491   7.130  0.00  0.00     0.014 A 
HETATM   26 Fe   UNK N   1      32.912  14.842   6.143  0.00  0.00     0.000 Fe
HETATM   27  N   UNK N   1      31.661  14.515   4.602  0.00  0.00    -0.248 N 
HETATM   28  N   UNK N   1      33.107  12.820   6.408  0.00  0.00    -0.248 N 
HETATM   29  N   UNK N   1      32.590  17.321   5.725  0.00  0.00    -0.229 NA
HETATM   30  N   UNK N   1      34.374  15.025   7.935  0.00  0.00    -0.249 N 
HETATM   31  O   UNK N   1      35.923  16.642  10.512  0.00  0.00    -0.289 OA
ENDROOT
BRANCH  12  32
HETATM   32  C   UNK N   1      30.094  12.253   2.313  0.00  0.00     0.052 C 
BRANCH  32  33
HETATM   33  C   UNK N   1      30.894  12.241   1.061  0.00  0.00     0.115 C 
BRANCH  33  34
HETATM   34  C   UNK N   1      29.817  11.982   0.114  0.00  0.00     0.139 C 
HETATM   35  O   UNK N   1      28.695  11.775   0.544  0.00  0.00    -0.650 OA
BRANCH  34  36
HETATM   36  O   UNK N   1      29.998  12.266  -1.186  0.00  0.00    -0.776 OA
HETATM   37  H   UNK N   1      29.329  12.645  -1.721  0.00  0.00     0.167 HD
ENDBRANCH  34  36
ENDBRANCH  33  34
ENDBRANCH  32  33
ENDBRANCH  12  32
BRANCH  13  38
HETATM   38  C   UNK N   1      32.360   9.321   5.597  0.00  0.00     0.052 C 
BRANCH  38  39
HETATM   39  C   UNK N   1      30.974   9.015   6.079  0.00  0.00     0.115 C 
BRANCH  39  40
HETATM   40  C   UNK N   1      31.141   8.429   7.434  0.00  0.00     0.139 C 
HETATM   41  O   UNK N   1      31.673   7.337   7.567  0.00  0.00    -0.650 OA
BRANCH  40  42
HETATM   42  O   UNK N   1      30.746   9.118   8.517  0.00  0.00    -0.776 OA
HETATM   43  H   UNK N   1      31.373   9.375   9.164  0.00  0.00     0.167 HD
ENDBRANCH  40  42
ENDBRANCH  39  40
ENDBRANCH  38  39
ENDBRANCH  13  38
BRANCH   9  44
HETATM   44  C   UNK N   1      35.312  14.987   5.457  0.00  0.00     0.140 C 
HETATM   45  O   UNK N   1      34.939  14.161   4.649  0.00  0.00    -0.650 OA
BRANCH  44  46
HETATM   46  O   UNK N   1      36.589  14.966   5.883  0.00  0.00    -0.776 OA
HETATM   47  H   UNK N   1      37.291  14.361   6.020  0.00  0.00     0.167 HD
ENDBRANCH  44  46
ENDBRANCH   9  44
BRANCH  22  48
HETATM   48  O   UNK N   1      30.175  15.628   6.743  0.00  0.00    -0.393 OA
ATOM     49  HO  UNK N   1      30.231  14.680   6.705  1.00  0.00     0.210 HD
ENDBRANCH  22  48
BRANCH  24  50
HETATM   50  C   UNK N   1      37.057  13.781   9.661  0.00  0.00     0.133 C 
BRANCH  50  51
HETATM   51  C   UNK N   1      37.307  12.742  10.672  0.00  0.00     0.140 C 
HETATM   52  O   UNK N   1      37.775  13.056  11.753  0.00  0.00    -0.650 OA
BRANCH  51  53
HETATM   53  O   UNK N   1      37.164  11.448  10.341  0.00  0.00    -0.776 OA
HETATM   54  H   UNK N   1      36.333  11.090  10.098  0.00  0.00     0.167 HD
ENDBRANCH  51  53
ENDBRANCH  50  51
ENDBRANCH  24  50
TORSDOF 14
ENDMDL
MODEL 9
REMARK VINA RESULT:      -6.0      4.310      8.063
REMARK  14 active torsions:
REMARK  status: ('A' for Active; 'I' for Inactive)
REMARK    1  A    between atoms: C_7  and  C_5 
REMARK    2  A    between atoms: C_17  and  C_5 
REMARK    3  A    between atoms: C_8  and  C_6 
REMARK    4  A    between atoms: C_18  and  C_6 
REMARK    5  A    between atoms: C_27  and  C_7 
REMARK    6  A    between atoms: C_28  and  C_8 
REMARK    7  A    between atoms: C_29  and  C_13 
REMARK    8  A    between atoms: C_33  and  C_13 
REMARK    9  A    between atoms: C_30  and  C_14 
REMARK   10  A    between atoms: O_40  and  C_27 
REMARK   11  A    between atoms: O_42  and  C_28 
REMARK   12  A    between atoms: O_44  and  C_29 
REMARK   13  A    between atoms: O_46  and  C_30 
REMARK   14  A    between atoms: O_48  and  C_31 
ROOT
HETATM    1  C   UNK N   1      32.988  17.540   4.340  0.00  0.00     0.051 C 
HETATM    2  C   UNK N   1      34.579   8.719   7.932  0.00  0.00     0.051 C 
HETATM    3  C   UNK N   1      34.575  10.997  12.658  0.00  0.00     0.031 C 
HETATM    4  C   UNK N   1      33.580  14.845  10.986  0.00  0.00     0.020 C 
HETATM    5  C   UNK N   1      34.013  17.400   7.197  0.00  0.00     0.029 C 
HETATM    6  C   UNK N   1      33.711  12.977   5.630  0.00  0.00     0.064 A 
HETATM    7  C   UNK N   1      35.190  11.020   9.812  0.00  0.00     0.060 A 
HETATM    8  C   UNK N   1      36.030  15.621  11.592  0.00  0.00     0.030 C 
HETATM    9  C   UNK N   1      36.601  14.941   9.215  0.00  0.00     0.123 A 
HETATM   10  C   UNK N   1      33.511  16.359   5.078  0.00  0.00    -0.025 A 
HETATM   11  C   UNK N   1      34.375  10.174   7.669  0.00  0.00    -0.025 A 
HETATM   12  C   UNK N   1      33.486  15.048   4.659  0.00  0.00    -0.021 A 
HETATM   13  C   UNK N   1      33.859  10.714   6.543  0.00  0.00    -0.021 A 
HETATM   14  C   UNK N   1      33.983  16.330   6.367  0.00  0.00     0.062 A 
HETATM   15  C   UNK N   1      34.696  11.230   8.487  0.00  0.00     0.066 A 
HETATM   16  C   UNK N   1      33.839  14.283   5.693  0.00  0.00     0.066 A 
HETATM   17  C   UNK N   1      33.986  12.073   6.670  0.00  0.00     0.066 A 
HETATM   18  C   UNK N   1      34.234  17.166   8.634  0.00  0.00     0.130 C 
HETATM   19  C   UNK N   1      36.006  13.966  11.543  0.00  0.00     0.102 A 
HETATM   20  C   UNK N   1      35.544  11.943  10.688  0.00  0.00     0.054 A 
HETATM   21  C   UNK N   1      35.342  16.457  10.598  0.00  0.00     0.112 C 
HETATM   22  C   UNK N   1      33.583  16.257   9.152  0.00  0.00     0.151 C 
HETATM   23  C   UNK N   1      36.185  12.982  12.607  0.00  0.00     0.192 A 
HETATM   24  C   UNK N   1      35.867  11.592  12.071  0.00  0.00     0.077 A 
HETATM   25  C   UNK N   1      34.678  15.490  10.031  0.00  0.00     0.014 A 
HETATM   26 Fe   UNK N   1      34.871  14.317   8.499  0.00  0.00     0.000 Fe
HETATM   27  N   UNK N   1      34.231  15.034   6.732  0.00  0.00    -0.248 N 
HETATM   28  N   UNK N   1      34.465  12.411   7.868  0.00  0.00    -0.248 N 
HETATM   29  N   UNK N   1      35.329  16.718   9.172  0.00  0.00    -0.229 NA
HETATM   30  N   UNK N   1      35.575  13.312  10.468  0.00  0.00    -0.249 N 
HETATM   31  O   UNK N   1      36.414  13.238  13.776  0.00  0.00    -0.289 OA
ENDROOT
BRANCH  12  32
HETATM   32  C   UNK N   1      33.116  14.459   3.380  0.00  0.00     0.052 C 
BRANCH  32  33
HETATM   33  C   UNK N   1      34.229  14.724   2.432  0.00  0.00     0.115 C 
BRANCH  33  34
HETATM   34  C   UNK N   1      34.307  13.408   1.809  0.00  0.00     0.139 C 
HETATM   35  O   UNK N   1      34.897  12.516   2.394  0.00  0.00    -0.650 OA
BRANCH  34  36
HETATM   36  O   UNK N   1      33.496  13.116   0.780  0.00  0.00    -0.776 OA
HETATM   37  H   UNK N   1      33.058  12.292   0.696  0.00  0.00     0.167 HD
ENDBRANCH  34  36
ENDBRANCH  33  34
ENDBRANCH  32  33
ENDBRANCH  12  32
BRANCH  13  38
HETATM   38  C   UNK N   1      33.251   9.954   5.430  0.00  0.00     0.052 C 
BRANCH  38  39
HETATM   39  C   UNK N   1      31.752   9.995   5.417  0.00  0.00     0.115 C 
BRANCH  39  40
HETATM   40  C   UNK N   1      31.313   8.872   6.284  0.00  0.00     0.139 C 
HETATM   41  O   UNK N   1      31.622   7.724   6.001  0.00  0.00    -0.650 OA
BRANCH  40  42
HETATM   42  O   UNK N   1      30.612   9.121   7.402  0.00  0.00    -0.776 OA
HETATM   43  H   UNK N   1      29.917   8.546   7.657  0.00  0.00     0.167 HD
ENDBRANCH  40  42
ENDBRANCH  39  40
ENDBRANCH  38  39
ENDBRANCH  13  38
BRANCH   9  44
HETATM   44  C   UNK N   1      37.314  13.791   8.527  0.00  0.00     0.140 C 
HETATM   45  O   UNK N   1      37.101  13.518   7.364  0.00  0.00    -0.650 OA
BRANCH  44  46
HETATM   46  O   UNK N   1      38.278  13.128   9.196  0.00  0.00    -0.776 OA
HETATM   47  H   UNK N   1      38.443  12.285   9.569  0.00  0.00     0.167 HD
ENDBRANCH  44  46
ENDBRANCH   9  44
BRANCH  22  48
HETATM   48  O   UNK N   1      32.378  15.801   8.735  0.00  0.00    -0.393 OA
ATOM     49  HO  UNK N   1      32.117  15.657   7.832  1.00  0.00     0.210 HD
ENDBRANCH  22  48
BRANCH  24  50
HETATM   50  C   UNK N   1      37.059  10.648  12.024  0.00  0.00     0.133 C 
BRANCH  50  51
HETATM   51  C   UNK N   1      37.144   9.874  13.273  0.00  0.00     0.140 C 
HETATM   52  O   UNK N   1      36.786   8.709  13.282  0.00  0.00    -0.650 OA
BRANCH  51  53
HETATM   53  O   UNK N   1      37.466  10.498  14.418  0.00  0.00    -0.776 OA
HETATM   54  H   UNK N   1      37.283  10.117  15.255  0.00  0.00     0.167 HD
ENDBRANCH  51  53
ENDBRANCH  50  51
ENDBRANCH  24  50
TORSDOF 14
ENDMDL
