REMARK  1 active torsions:
REMARK  status: ('A' for Active; 'I' for Inactive)
REMARK    1  A    between atoms: N_1  and  C_2 
ROOT
HETATM    1  C   UNK N   1       1.889   0.914  -0.000  0.00  0.00     0.110 A 
HETATM    2  C   UNK N   1       1.786  -0.475  -0.000  0.00  0.00     0.127 A 
HETATM    3  N   UNK N   1       0.565  -1.068  -0.000  0.00  0.00    -0.316 N 
HETATM    4  C   UNK N   1      -0.580  -0.315   0.000  0.00  0.00     0.327 A 
HETATM    5  O   UNK N   1      -1.667  -0.862   0.000  0.00  0.00    -0.247 OA
HETATM    6  N   UNK N   1      -0.502   1.053   0.000  0.00  0.00    -0.274 N 
HETATM    7  C   UNK N   1       0.716   1.680   0.000  0.00  0.00     0.277 A 
HETATM    8  O   UNK N   1       0.769   2.897   0.000  0.00  0.00    -0.266 OA
HETATM    9  H   UNK N   1       0.501  -2.050  -0.000  0.00  0.00     0.170 HD
HETATM   10  H   UNK N   1      -1.327   1.589   0.000  0.00  0.00     0.173 HD
ENDROOT
BRANCH   1  11
HETATM   11  N   UNK N   1       3.161   1.525   0.000  0.00  0.00    -0.394 N 
HETATM   12  H   UNK N   1       3.974   0.969   0.000  0.00  0.00     0.156 HD
HETATM   13  H   UNK N   1       3.235   2.507   0.000  0.00  0.00     0.156 HD
ENDBRANCH   1  11
TORSDOF 1
