MODEL 1
REMARK VINA RESULT:      -6.6      0.000      0.000
REMARK  8 active torsions:
REMARK  status: ('A' for Active; 'I' for Inactive)
REMARK    1  A    between atoms: C_1  and  N_2 
REMARK    2  A    between atoms: C_4  and  O_9 
REMARK    3  A    between atoms: C_7  and  C_13 
REMARK    4  A    between atoms: C_8  and  O_14 
REMARK    5  A    between atoms: C_13  and  O_16 
REMARK    6  A    between atoms: O_16  and  P_18 
REMARK    7  A    between atoms: P_18  and  O_19 
REMARK    8  A    between atoms: P_18  and  O_20 
ROOT
HETATM    1  C   UNK N   1      28.107  17.326   7.213  0.00  0.00     0.263 C 
HETATM    2  O   UNK N   1      29.303  16.634   6.895  0.00  0.00    -0.353 OA
HETATM    3  C   UNK N   1      28.385  18.147   8.480  0.00  0.00     0.198 C 
HETATM    4  C   UNK N   1      30.277  17.377   7.566  0.00  0.00     0.180 C 
HETATM    5  C   UNK N   1      29.707  17.607   8.932  0.00  0.00     0.182 C 
ENDROOT
BRANCH   1   6
HETATM    6  N   UNK N   1      27.693  18.192   6.089  0.00  0.00    -0.280 N 
HETATM    7  C   UNK N   1      27.218  17.667   4.901  0.00  0.00     0.331 A 
HETATM    8  N   UNK N   1      26.849  18.501   3.878  0.00  0.00    -0.275 N 
HETATM    9  O   UNK N   1      27.121  16.459   4.752  0.00  0.00    -0.246 OA
HETATM   10  C   UNK N   1      26.950  19.859   4.009  0.00  0.00     0.250 A 
HETATM   11  H   UNK N   1      26.507  18.118   3.038  0.00  0.00     0.173 HD
HETATM   12  O   UNK N   1      26.621  20.588   3.092  0.00  0.00    -0.268 OA
HETATM   13  C   UNK N   1      27.430  20.405   5.190  0.00  0.00     0.092 A 
HETATM   14  C   UNK N   1      27.798  19.550   6.222  0.00  0.00     0.104 A 
ENDBRANCH   1   6
BRANCH   3  15
HETATM   15  O   UNK N   1      27.402  17.948   9.449  0.00  0.00    -0.388 OA
HETATM   16  H   UNK N   1      26.961  18.642   9.965  0.00  0.00     0.210 HD
ENDBRANCH   3  15
BRANCH   4  17
HETATM   17  C   UNK N   1      31.673  16.775   7.469  0.00  0.00     0.215 C 
BRANCH  17  18
HETATM   18  O   UNK N   1      32.599  17.651   6.900  0.00  0.00    -0.294 OA
BRANCH  18  19
HETATM   19  P   UNK N   1      33.945  17.586   7.999  0.00  0.00     0.390 P 
HETATM   20  O   UNK N   1      33.167  18.820   8.533  0.00  0.00    -0.632 OA
BRANCH  19  21
HETATM   21  O   UNK N   1      34.495  17.903   6.384  0.00  0.00    -0.307 OA
HETATM   22  H   UNK N   1      34.038  17.869   5.530  0.00  0.00     0.222 HD
ENDBRANCH  19  21
BRANCH  19  23
HETATM   23  O   UNK N   1      35.166  18.819   7.992  0.00  0.00    -0.307 OA
HETATM   24  H   UNK N   1      34.998  19.766   8.112  0.00  0.00     0.222 HD
ENDBRANCH  19  23
ENDBRANCH  18  19
ENDBRANCH  17  18
ENDBRANCH   4  17
BRANCH   5  25
HETATM   25  O   UNK N   1      30.423  18.566   9.648  0.00  0.00    -0.390 OA
HETATM   26  H   UNK N   1      31.001  18.811  10.388  0.00  0.00     0.210 HD
ENDBRANCH   5  25
TORSDOF 8
ENDMDL
MODEL 2
REMARK VINA RESULT:      -6.5      7.520     10.502
REMARK  8 active torsions:
REMARK  status: ('A' for Active; 'I' for Inactive)
REMARK    1  A    between atoms: C_1  and  N_2 
REMARK    2  A    between atoms: C_4  and  O_9 
REMARK    3  A    between atoms: C_7  and  C_13 
REMARK    4  A    between atoms: C_8  and  O_14 
REMARK    5  A    between atoms: C_13  and  O_16 
REMARK    6  A    between atoms: O_16  and  P_18 
REMARK    7  A    between atoms: P_18  and  O_19 
REMARK    8  A    between atoms: P_18  and  O_20 
ROOT
HETATM    1  C   UNK N   1      35.869  12.803  12.012  0.00  0.00     0.263 C 
HETATM    2  O   UNK N   1      34.809  13.399  11.281  0.00  0.00    -0.353 OA
HETATM    3  C   UNK N   1      37.135  13.620  11.716  0.00  0.00     0.198 C 
HETATM    4  C   UNK N   1      35.289  14.689  11.039  0.00  0.00     0.180 C 
HETATM    5  C   UNK N   1      36.700  14.490  10.577  0.00  0.00     0.182 C 
ENDROOT
BRANCH   1   6
HETATM    6  N   UNK N   1      35.561  12.791  13.457  0.00  0.00    -0.280 N 
HETATM    7  C   UNK N   1      34.638  11.914  13.998  0.00  0.00     0.331 A 
HETATM    8  N   UNK N   1      34.374  11.935  15.342  0.00  0.00    -0.275 N 
HETATM    9  O   UNK N   1      34.053  11.113  13.286  0.00  0.00    -0.246 OA
HETATM   10  C   UNK N   1      35.007  12.823  16.169  0.00  0.00     0.250 A 
HETATM   11  H   UNK N   1      33.718  11.303  15.718  0.00  0.00     0.173 HD
HETATM   12  O   UNK N   1      34.761  12.832  17.360  0.00  0.00    -0.268 OA
HETATM   13  C   UNK N   1      35.931  13.715  15.644  0.00  0.00     0.092 A 
HETATM   14  C   UNK N   1      36.194  13.682  14.279  0.00  0.00     0.104 A 
ENDBRANCH   1   6
BRANCH   3  15
HETATM   15  O   UNK N   1      38.201  12.801  11.345  0.00  0.00    -0.388 OA
HETATM   16  H   UNK N   1      39.105  13.095  11.151  0.00  0.00     0.210 HD
ENDBRANCH   3  15
BRANCH   4  17
HETATM   17  C   UNK N   1      34.363  15.525  10.164  0.00  0.00     0.215 C 
BRANCH  17  18
HETATM   18  O   UNK N   1      35.002  16.026   9.029  0.00  0.00    -0.294 OA
BRANCH  18  19
HETATM   19  P   UNK N   1      34.139  17.499   8.696  0.00  0.00     0.390 P 
HETATM   20  O   UNK N   1      34.752  17.177   7.305  0.00  0.00    -0.632 OA
BRANCH  19  21
HETATM   21  O   UNK N   1      35.415  17.787   9.838  0.00  0.00    -0.307 OA
HETATM   22  H   UNK N   1      36.157  17.234  10.127  0.00  0.00     0.222 HD
ENDBRANCH  19  21
BRANCH  19  23
HETATM   23  O   UNK N   1      34.986  18.966   8.323  0.00  0.00    -0.307 OA
HETATM   24  H   UNK N   1      35.706  19.042   7.678  0.00  0.00     0.222 HD
ENDBRANCH  19  23
ENDBRANCH  18  19
ENDBRANCH  17  18
ENDBRANCH   4  17
BRANCH   5  25
HETATM   25  O   UNK N   1      37.421  15.684  10.554  0.00  0.00    -0.390 OA
HETATM   26  H   UNK N   1      37.917  16.381  11.013  0.00  0.00     0.210 HD
ENDBRANCH   5  25
TORSDOF 8
ENDMDL
MODEL 3
REMARK VINA RESULT:      -6.3      9.548     10.776
REMARK  8 active torsions:
REMARK  status: ('A' for Active; 'I' for Inactive)
REMARK    1  A    between atoms: C_1  and  N_2 
REMARK    2  A    between atoms: C_4  and  O_9 
REMARK    3  A    between atoms: C_7  and  C_13 
REMARK    4  A    between atoms: C_8  and  O_14 
REMARK    5  A    between atoms: C_13  and  O_16 
REMARK    6  A    between atoms: O_16  and  P_18 
REMARK    7  A    between atoms: P_18  and  O_19 
REMARK    8  A    between atoms: P_18  and  O_20 
ROOT
HETATM    1  C   UNK N   1      20.791  16.566   3.402  0.00  0.00     0.263 C 
HETATM    2  O   UNK N   1      21.270  16.644   4.736  0.00  0.00    -0.353 OA
HETATM    3  C   UNK N   1      19.386  15.950   3.464  0.00  0.00     0.198 C 
HETATM    4  C   UNK N   1      20.094  16.589   5.489  0.00  0.00     0.180 C 
HETATM    5  C   UNK N   1      19.304  15.471   4.881  0.00  0.00     0.182 C 
ENDROOT
BRANCH   1   6
HETATM    6  N   UNK N   1      20.765  17.905   2.779  0.00  0.00    -0.280 N 
HETATM    7  C   UNK N   1      20.416  18.085   1.453  0.00  0.00     0.331 A 
HETATM    8  N   UNK N   1      20.409  19.342   0.907  0.00  0.00    -0.275 N 
HETATM    9  O   UNK N   1      20.111  17.130   0.757  0.00  0.00    -0.246 OA
HETATM   10  C   UNK N   1      20.752  20.435   1.656  0.00  0.00     0.250 A 
HETATM   11  H   UNK N   1      20.155  19.460  -0.037  0.00  0.00     0.173 HD
HETATM   12  O   UNK N   1      20.744  21.544   1.158  0.00  0.00    -0.268 OA
HETATM   13  C   UNK N   1      21.111  20.274   2.987  0.00  0.00     0.092 A 
HETATM   14  C   UNK N   1      21.111  18.995   3.531  0.00  0.00     0.104 A 
ENDBRANCH   1   6
BRANCH   3  15
HETATM   15  O   UNK N   1      19.247  14.892   2.566  0.00  0.00    -0.388 OA
HETATM   16  H   UNK N   1      19.970  14.421   2.123  0.00  0.00     0.210 HD
ENDBRANCH   3  15
BRANCH   4  17
HETATM   17  C   UNK N   1      20.339  16.554   6.992  0.00  0.00     0.215 C 
BRANCH  17  18
HETATM   18  O   UNK N   1      19.372  15.819   7.679  0.00  0.00    -0.294 OA
BRANCH  18  19
HETATM   19  P   UNK N   1      20.265  15.097   8.984  0.00  0.00     0.390 P 
HETATM   20  O   UNK N   1      20.247  13.942   7.945  0.00  0.00    -0.632 OA
BRANCH  19  21
HETATM   21  O   UNK N   1      18.642  15.452   9.483  0.00  0.00    -0.307 OA
HETATM   22  H   UNK N   1      18.283  16.132  10.074  0.00  0.00     0.222 HD
ENDBRANCH  19  21
BRANCH  19  23
HETATM   23  O   UNK N   1      19.599  13.787   9.906  0.00  0.00    -0.307 OA
HETATM   24  H   UNK N   1      20.051  12.947  10.082  0.00  0.00     0.222 HD
ENDBRANCH  19  23
ENDBRANCH  18  19
ENDBRANCH  17  18
ENDBRANCH   4  17
BRANCH   5  25
HETATM   25  O   UNK N   1      17.984  15.453   5.330  0.00  0.00    -0.390 OA
HETATM   26  H   UNK N   1      17.124  15.888   5.444  0.00  0.00     0.210 HD
ENDBRANCH   5  25
TORSDOF 8
ENDMDL
MODEL 4
REMARK VINA RESULT:      -6.3      7.906     10.233
REMARK  8 active torsions:
REMARK  status: ('A' for Active; 'I' for Inactive)
REMARK    1  A    between atoms: C_1  and  N_2 
REMARK    2  A    between atoms: C_4  and  O_9 
REMARK    3  A    between atoms: C_7  and  C_13 
REMARK    4  A    between atoms: C_8  and  O_14 
REMARK    5  A    between atoms: C_13  and  O_16 
REMARK    6  A    between atoms: O_16  and  P_18 
REMARK    7  A    between atoms: P_18  and  O_19 
REMARK    8  A    between atoms: P_18  and  O_20 
ROOT
HETATM    1  C   UNK N   1      21.095  16.290   4.176  0.00  0.00     0.263 C 
HETATM    2  O   UNK N   1      21.426  16.019   5.529  0.00  0.00    -0.353 OA
HETATM    3  C   UNK N   1      19.576  16.109   4.040  0.00  0.00     0.198 C 
HETATM    4  C   UNK N   1      20.205  16.194   6.186  0.00  0.00     0.180 C 
HETATM    5  C   UNK N   1      19.210  15.462   5.339  0.00  0.00     0.182 C 
ENDROOT
BRANCH   1   6
HETATM    6  N   UNK N   1      21.510  17.659   3.804  0.00  0.00    -0.280 N 
HETATM    7  C   UNK N   1      22.833  18.059   3.858  0.00  0.00     0.331 A 
HETATM    8  N   UNK N   1      23.180  19.338   3.511  0.00  0.00    -0.275 N 
HETATM    9  O   UNK N   1      23.702  17.280   4.215  0.00  0.00    -0.246 OA
HETATM   10  C   UNK N   1      22.231  20.240   3.113  0.00  0.00     0.250 A 
HETATM   11  H   UNK N   1      24.125  19.613   3.549  0.00  0.00     0.173 HD
HETATM   12  O   UNK N   1      22.553  21.373   2.810  0.00  0.00    -0.268 OA
HETATM   13  C   UNK N   1      20.898  19.859   3.057  0.00  0.00     0.092 A 
HETATM   14  C   UNK N   1      20.558  18.558   3.409  0.00  0.00     0.104 A 
ENDBRANCH   1   6
BRANCH   3  15
HETATM   15  O   UNK N   1      19.251  15.289   2.960  0.00  0.00    -0.388 OA
HETATM   16  H   UNK N   1      18.921  14.378   3.014  0.00  0.00     0.210 HD
ENDBRANCH   3  15
BRANCH   4  17
HETATM   17  C   UNK N   1      20.263  15.857   7.671  0.00  0.00     0.215 C 
BRANCH  17  18
HETATM   18  O   UNK N   1      19.875  14.545   7.941  0.00  0.00    -0.294 OA
BRANCH  18  19
HETATM   19  P   UNK N   1      20.761  14.150   9.384  0.00  0.00     0.390 P 
HETATM   20  O   UNK N   1      20.852  12.818   8.591  0.00  0.00    -0.632 OA
BRANCH  19  21
HETATM   21  O   UNK N   1      19.101  14.485   9.763  0.00  0.00    -0.307 OA
HETATM   22  H   UNK N   1      18.621  15.321   9.872  0.00  0.00     0.222 HD
ENDBRANCH  19  21
BRANCH  19  23
HETATM   23  O   UNK N   1      20.142  13.001  10.527  0.00  0.00    -0.307 OA
HETATM   24  H   UNK N   1      19.697  13.230  11.358  0.00  0.00     0.222 HD
ENDBRANCH  19  23
ENDBRANCH  18  19
ENDBRANCH  17  18
ENDBRANCH   4  17
BRANCH   5  25
HETATM   25  O   UNK N   1      17.894  15.760   5.695  0.00  0.00    -0.390 OA
HETATM   26  H   UNK N   1      17.115  16.336   5.645  0.00  0.00     0.210 HD
ENDBRANCH   5  25
TORSDOF 8
ENDMDL
MODEL 5
REMARK VINA RESULT:      -6.2      8.963     10.737
REMARK  8 active torsions:
REMARK  status: ('A' for Active; 'I' for Inactive)
REMARK    1  A    between atoms: C_1  and  N_2 
REMARK    2  A    between atoms: C_4  and  O_9 
REMARK    3  A    between atoms: C_7  and  C_13 
REMARK    4  A    between atoms: C_8  and  O_14 
REMARK    5  A    between atoms: C_13  and  O_16 
REMARK    6  A    between atoms: O_16  and  P_18 
REMARK    7  A    between atoms: P_18  and  O_19 
REMARK    8  A    between atoms: P_18  and  O_20 
ROOT
HETATM    1  C   UNK N   1      19.720  16.286   6.434  0.00  0.00     0.263 C 
HETATM    2  O   UNK N   1      20.670  17.227   5.961  0.00  0.00    -0.353 OA
HETATM    3  C   UNK N   1      19.037  15.678   5.200  0.00  0.00     0.198 C 
HETATM    4  C   UNK N   1      20.882  16.816   4.642  0.00  0.00     0.180 C 
HETATM    5  C   UNK N   1      19.509  16.572   4.095  0.00  0.00     0.182 C 
ENDROOT
BRANCH   1   6
HETATM    6  N   UNK N   1      20.379  15.247   7.252  0.00  0.00    -0.280 N 
HETATM    7  C   UNK N   1      20.820  15.503   8.538  0.00  0.00     0.331 A 
HETATM    8  N   UNK N   1      21.433  14.517   9.265  0.00  0.00    -0.275 N 
HETATM    9  O   UNK N   1      20.668  16.607   9.037  0.00  0.00    -0.246 OA
HETATM   10  C   UNK N   1      21.626  13.270   8.734  0.00  0.00     0.250 A 
HETATM   11  H   UNK N   1      21.740  14.708  10.181  0.00  0.00     0.173 HD
HETATM   12  O   UNK N   1      22.174  12.405   9.390  0.00  0.00    -0.268 OA
HETATM   13  C   UNK N   1      21.196  12.996   7.444  0.00  0.00     0.092 A 
HETATM   14  C   UNK N   1      20.573  14.003   6.717  0.00  0.00     0.104 A 
ENDBRANCH   1   6
BRANCH   3  15
HETATM   15  O   UNK N   1      17.648  15.707   5.313  0.00  0.00    -0.388 OA
HETATM   16  H   UNK N   1      17.020  15.878   4.593  0.00  0.00     0.210 HD
ENDBRANCH   3  15
BRANCH   4  17
HETATM   17  C   UNK N   1      21.807  17.741   3.861  0.00  0.00     0.215 C 
BRANCH  17  18
HETATM   18  O   UNK N   1      21.707  19.072   4.268  0.00  0.00    -0.294 OA
BRANCH  18  19
HETATM   19  P   UNK N   1      21.558  19.942   2.770  0.00  0.00     0.390 P 
HETATM   20  O   UNK N   1      22.978  20.367   3.235  0.00  0.00    -0.632 OA
BRANCH  19  21
HETATM   21  O   UNK N   1      20.382  20.502   3.916  0.00  0.00    -0.307 OA
HETATM   22  H   UNK N   1      20.374  20.496   4.886  0.00  0.00     0.222 HD
ENDBRANCH  19  21
BRANCH  19  23
HETATM   23  O   UNK N   1      21.447  21.673   2.749  0.00  0.00    -0.307 OA
HETATM   24  H   UNK N   1      20.618  22.176   2.778  0.00  0.00     0.222 HD
ENDBRANCH  19  23
ENDBRANCH  18  19
ENDBRANCH  17  18
ENDBRANCH   4  17
BRANCH   5  25
HETATM   25  O   UNK N   1      19.540  15.893   2.878  0.00  0.00    -0.390 OA
HETATM   26  H   UNK N   1      19.444  15.884   1.912  0.00  0.00     0.210 HD
ENDBRANCH   5  25
TORSDOF 8
ENDMDL
MODEL 6
REMARK VINA RESULT:      -6.1      5.846      7.372
REMARK  8 active torsions:
REMARK  status: ('A' for Active; 'I' for Inactive)
REMARK    1  A    between atoms: C_1  and  N_2 
REMARK    2  A    between atoms: C_4  and  O_9 
REMARK    3  A    between atoms: C_7  and  C_13 
REMARK    4  A    between atoms: C_8  and  O_14 
REMARK    5  A    between atoms: C_13  and  O_16 
REMARK    6  A    between atoms: O_16  and  P_18 
REMARK    7  A    between atoms: P_18  and  O_19 
REMARK    8  A    between atoms: P_18  and  O_20 
ROOT
HETATM    1  C   UNK N   1      33.804  16.367   8.850  0.00  0.00     0.263 C 
HETATM    2  O   UNK N   1      33.474  15.338   9.770  0.00  0.00    -0.353 OA
HETATM    3  C   UNK N   1      35.194  16.890   9.240  0.00  0.00     0.198 C 
HETATM    4  C   UNK N   1      34.723  14.960  10.270  0.00  0.00     0.180 C 
HETATM    5  C   UNK N   1      35.418  16.251  10.576  0.00  0.00     0.182 C 
ENDROOT
BRANCH   1   6
HETATM    6  N   UNK N   1      33.791  15.850   7.466  0.00  0.00    -0.280 N 
HETATM    7  C   UNK N   1      34.069  16.664   6.383  0.00  0.00     0.331 A 
HETATM    8  N   UNK N   1      34.042  16.152   5.112  0.00  0.00    -0.275 N 
HETATM    9  O   UNK N   1      34.342  17.843   6.546  0.00  0.00    -0.246 OA
HETATM   10  C   UNK N   1      33.735  14.836   4.892  0.00  0.00     0.250 A 
HETATM   11  H   UNK N   1      34.246  16.738   4.347  0.00  0.00     0.173 HD
HETATM   12  O   UNK N   1      33.712  14.395   3.758  0.00  0.00    -0.268 OA
HETATM   13  C   UNK N   1      33.447  14.006   5.965  0.00  0.00     0.092 A 
HETATM   14  C   UNK N   1      33.481  14.536   7.250  0.00  0.00     0.104 A 
ENDBRANCH   1   6
BRANCH   3  15
HETATM   15  O   UNK N   1      35.212  18.281   9.338  0.00  0.00    -0.388 OA
HETATM   16  H   UNK N   1      34.688  18.816   9.955  0.00  0.00     0.210 HD
ENDBRANCH   3  15
BRANCH   4  17
HETATM   17  C   UNK N   1      34.641  13.915  11.376  0.00  0.00     0.215 C 
BRANCH  17  18
HETATM   18  O   UNK N   1      35.088  14.397  12.607  0.00  0.00    -0.294 OA
BRANCH  18  19
HETATM   19  P   UNK N   1      35.851  13.012  13.330  0.00  0.00     0.390 P 
HETATM   20  O   UNK N   1      35.018  13.563  14.520  0.00  0.00    -0.632 OA
BRANCH  19  21
HETATM   21  O   UNK N   1      37.040  14.186  12.863  0.00  0.00    -0.307 OA
HETATM   22  H   UNK N   1      37.150  14.704  12.050  0.00  0.00     0.222 HD
ENDBRANCH  19  21
BRANCH  19  23
HETATM   23  O   UNK N   1      37.056  13.198  14.564  0.00  0.00    -0.307 OA
HETATM   24  H   UNK N   1      37.938  12.793  14.544  0.00  0.00     0.222 HD
ENDBRANCH  19  23
ENDBRANCH  18  19
ENDBRANCH  17  18
ENDBRANCH   4  17
BRANCH   5  25
HETATM   25  O   UNK N   1      36.778  16.072  10.826  0.00  0.00    -0.390 OA
HETATM   26  H   UNK N   1      37.567  15.506  10.843  0.00  0.00     0.210 HD
ENDBRANCH   5  25
TORSDOF 8
ENDMDL
MODEL 7
REMARK VINA RESULT:      -6.0      5.283      7.952
REMARK  8 active torsions:
REMARK  status: ('A' for Active; 'I' for Inactive)
REMARK    1  A    between atoms: C_1  and  N_2 
REMARK    2  A    between atoms: C_4  and  O_9 
REMARK    3  A    between atoms: C_7  and  C_13 
REMARK    4  A    between atoms: C_8  and  O_14 
REMARK    5  A    between atoms: C_13  and  O_16 
REMARK    6  A    between atoms: O_16  and  P_18 
REMARK    7  A    between atoms: P_18  and  O_19 
REMARK    8  A    between atoms: P_18  and  O_20 
ROOT
HETATM    1  C   UNK N   1      22.019  19.293   3.858  0.00  0.00     0.263 C 
HETATM    2  O   UNK N   1      23.177  18.910   4.583  0.00  0.00    -0.353 OA
HETATM    3  C   UNK N   1      22.479  20.254   2.753  0.00  0.00     0.198 C 
HETATM    4  C   UNK N   1      24.209  19.181   3.681  0.00  0.00     0.180 C 
HETATM    5  C   UNK N   1      23.895  20.543   3.143  0.00  0.00     0.182 C 
ENDROOT
BRANCH   1   6
HETATM    6  N   UNK N   1      21.342  18.107   3.295  0.00  0.00    -0.280 N 
HETATM    7  C   UNK N   1      20.074  18.183   2.749  0.00  0.00     0.331 A 
HETATM    8  N   UNK N   1      19.474  17.061   2.240  0.00  0.00    -0.275 N 
HETATM    9  O   UNK N   1      19.477  19.247   2.714  0.00  0.00    -0.246 OA
HETATM   10  C   UNK N   1      20.111  15.850   2.269  0.00  0.00     0.250 A 
HETATM   11  H   UNK N   1      18.572  17.126   1.850  0.00  0.00     0.173 HD
HETATM   12  O   UNK N   1      19.567  14.861   1.816  0.00  0.00    -0.268 OA
HETATM   13  C   UNK N   1      21.382  15.752   2.817  0.00  0.00     0.092 A 
HETATM   14  C   UNK N   1      21.982  16.898   3.327  0.00  0.00     0.104 A 
ENDBRANCH   1   6
BRANCH   3  15
HETATM   15  O   UNK N   1      21.714  21.420   2.733  0.00  0.00    -0.388 OA
HETATM   16  H   UNK N   1      21.173  21.760   3.464  0.00  0.00     0.210 HD
ENDBRANCH   3  15
BRANCH   4  17
HETATM   17  C   UNK N   1      25.598  18.947   4.262  0.00  0.00     0.215 C 
BRANCH  17  18
HETATM   18  O   UNK N   1      26.318  20.130   4.432  0.00  0.00    -0.294 OA
BRANCH  18  19
HETATM   19  P   UNK N   1      27.566  19.686   5.559  0.00  0.00     0.390 P 
HETATM   20  O   UNK N   1      27.355  18.354   4.788  0.00  0.00    -0.632 OA
BRANCH  19  21
HETATM   21  O   UNK N   1      26.107  20.104   6.402  0.00  0.00    -0.307 OA
HETATM   22  H   UNK N   1      25.247  20.419   6.083  0.00  0.00     0.222 HD
ENDBRANCH  19  21
BRANCH  19  23
HETATM   23  O   UNK N   1      27.251  18.566   6.846  0.00  0.00    -0.307 OA
HETATM   24  H   UNK N   1      26.807  17.710   6.740  0.00  0.00     0.222 HD
ENDBRANCH  19  23
ENDBRANCH  18  19
ENDBRANCH  17  18
ENDBRANCH   4  17
BRANCH   5  25
HETATM   25  O   UNK N   1      24.669  20.860   2.026  0.00  0.00    -0.390 OA
HETATM   26  H   UNK N   1      25.297  20.603   1.333  0.00  0.00     0.210 HD
ENDBRANCH   5  25
TORSDOF 8
ENDMDL
MODEL 8
REMARK VINA RESULT:      -6.0      1.686      2.160
REMARK  8 active torsions:
REMARK  status: ('A' for Active; 'I' for Inactive)
REMARK    1  A    between atoms: C_1  and  N_2 
REMARK    2  A    between atoms: C_4  and  O_9 
REMARK    3  A    between atoms: C_7  and  C_13 
REMARK    4  A    between atoms: C_8  and  O_14 
REMARK    5  A    between atoms: C_13  and  O_16 
REMARK    6  A    between atoms: O_16  and  P_18 
REMARK    7  A    between atoms: P_18  and  O_19 
REMARK    8  A    between atoms: P_18  and  O_20 
ROOT
HETATM    1  C   UNK N   1      27.978  17.323   7.284  0.00  0.00     0.263 C 
HETATM    2  O   UNK N   1      29.102  16.513   6.979  0.00  0.00    -0.353 OA
HETATM    3  C   UNK N   1      28.345  18.154   8.522  0.00  0.00     0.198 C 
HETATM    4  C   UNK N   1      30.148  17.184   7.617  0.00  0.00     0.180 C 
HETATM    5  C   UNK N   1      29.616  17.509   8.980  0.00  0.00     0.182 C 
ENDROOT
BRANCH   1   6
HETATM    6  N   UNK N   1      27.633  18.188   6.137  0.00  0.00    -0.280 N 
HETATM    7  C   UNK N   1      27.116  17.670   4.963  0.00  0.00     0.331 A 
HETATM    8  N   UNK N   1      26.813  18.502   3.917  0.00  0.00    -0.275 N 
HETATM    9  O   UNK N   1      26.923  16.470   4.847  0.00  0.00    -0.246 OA
HETATM   10  C   UNK N   1      27.023  19.851   4.010  0.00  0.00     0.250 A 
HETATM   11  H   UNK N   1      26.441  18.124   3.087  0.00  0.00     0.173 HD
HETATM   12  O   UNK N   1      26.752  20.578   3.074  0.00  0.00    -0.268 OA
HETATM   13  C   UNK N   1      27.546  20.389   5.177  0.00  0.00     0.092 A 
HETATM   14  C   UNK N   1      27.846  19.536   6.233  0.00  0.00     0.104 A 
ENDBRANCH   1   6
BRANCH   3  15
HETATM   15  O   UNK N   1      27.359  18.078   9.505  0.00  0.00    -0.388 OA
HETATM   16  H   UNK N   1      27.325  18.602  10.321  0.00  0.00     0.210 HD
ENDBRANCH   3  15
BRANCH   4  17
HETATM   17  C   UNK N   1      31.481  16.453   7.527  0.00  0.00     0.215 C 
BRANCH  17  18
HETATM   18  O   UNK N   1      32.196  16.486   8.726  0.00  0.00    -0.294 OA
BRANCH  18  19
HETATM   19  P   UNK N   1      33.046  14.969   8.732  0.00  0.00     0.390 P 
HETATM   20  O   UNK N   1      32.083  14.780   7.528  0.00  0.00    -0.632 OA
BRANCH  19  21
HETATM   21  O   UNK N   1      32.122  15.153  10.189  0.00  0.00    -0.307 OA
HETATM   22  H   UNK N   1      31.761  14.501  10.809  0.00  0.00     0.222 HD
ENDBRANCH  19  21
BRANCH  19  23
HETATM   23  O   UNK N   1      32.236  13.492   9.142  0.00  0.00    -0.307 OA
HETATM   24  H   UNK N   1      32.422  12.628   8.742  0.00  0.00     0.222 HD
ENDBRANCH  19  23
ENDBRANCH  18  19
ENDBRANCH  17  18
ENDBRANCH   4  17
BRANCH   5  25
HETATM   25  O   UNK N   1      30.426  18.419   9.659  0.00  0.00    -0.390 OA
HETATM   26  H   UNK N   1      31.304  18.731   9.930  0.00  0.00     0.210 HD
ENDBRANCH   5  25
TORSDOF 8
ENDMDL
MODEL 9
REMARK VINA RESULT:      -6.0      5.014      9.048
REMARK  8 active torsions:
REMARK  status: ('A' for Active; 'I' for Inactive)
REMARK    1  A    between atoms: C_1  and  N_2 
REMARK    2  A    between atoms: C_4  and  O_9 
REMARK    3  A    between atoms: C_7  and  C_13 
REMARK    4  A    between atoms: C_8  and  O_14 
REMARK    5  A    between atoms: C_13  and  O_16 
REMARK    6  A    between atoms: O_16  and  P_18 
REMARK    7  A    between atoms: P_18  and  O_19 
REMARK    8  A    between atoms: P_18  and  O_20 
ROOT
HETATM    1  C   UNK N   1      25.611  19.096   3.560  0.00  0.00     0.263 C 
HETATM    2  O   UNK N   1      24.462  18.270   3.657  0.00  0.00    -0.353 OA
HETATM    3  C   UNK N   1      25.123  20.502   3.182  0.00  0.00     0.198 C 
HETATM    4  C   UNK N   1      23.432  19.194   3.845  0.00  0.00     0.180 C 
HETATM    5  C   UNK N   1      23.688  20.262   2.826  0.00  0.00     0.182 C 
ENDROOT
BRANCH   1   6
HETATM    6  N   UNK N   1      26.352  19.109   4.838  0.00  0.00    -0.280 N 
HETATM    7  C   UNK N   1      26.849  17.948   5.403  0.00  0.00     0.331 A 
HETATM    8  N   UNK N   1      27.527  17.997   6.593  0.00  0.00    -0.275 N 
HETATM    9  O   UNK N   1      26.691  16.872   4.850  0.00  0.00    -0.246 OA
HETATM   10  C   UNK N   1      27.718  19.186   7.244  0.00  0.00     0.250 A 
HETATM   11  H   UNK N   1      27.881  17.166   6.985  0.00  0.00     0.173 HD
HETATM   12  O   UNK N   1      28.320  19.215   8.301  0.00  0.00    -0.268 OA
HETATM   13  C   UNK N   1      27.222  20.360   6.696  0.00  0.00     0.092 A 
HETATM   14  C   UNK N   1      26.539  20.299   5.487  0.00  0.00     0.104 A 
ENDBRANCH   1   6
BRANCH   3  15
HETATM   15  O   UNK N   1      25.831  21.020   2.098  0.00  0.00    -0.388 OA
HETATM   16  H   UNK N   1      26.277  20.502   1.409  0.00  0.00     0.210 HD
ENDBRANCH   3  15
BRANCH   4  17
HETATM   17  C   UNK N   1      22.047  18.559   3.880  0.00  0.00     0.215 C 
BRANCH  17  18
HETATM   18  O   UNK N   1      21.401  18.608   2.645  0.00  0.00    -0.294 OA
BRANCH  18  19
HETATM   19  P   UNK N   1      19.831  19.247   3.035  0.00  0.00     0.390 P 
HETATM   20  O   UNK N   1      19.732  17.807   3.610  0.00  0.00    -0.632 OA
BRANCH  19  21
HETATM   21  O   UNK N   1      20.044  19.170   1.315  0.00  0.00    -0.307 OA
HETATM   22  H   UNK N   1      19.830  18.479   0.669  0.00  0.00     0.222 HD
ENDBRANCH  19  21
BRANCH  19  23
HETATM   23  O   UNK N   1      18.402  18.642   2.260  0.00  0.00    -0.307 OA
HETATM   24  H   UNK N   1      18.163  17.705   2.190  0.00  0.00     0.222 HD
ENDBRANCH  19  23
ENDBRANCH  18  19
ENDBRANCH  17  18
ENDBRANCH   4  17
BRANCH   5  25
HETATM   25  O   UNK N   1      22.917  21.402   3.051  0.00  0.00    -0.390 OA
HETATM   26  H   UNK N   1      22.788  22.362   2.987  0.00  0.00     0.210 HD
ENDBRANCH   5  25
TORSDOF 8
ENDMDL
