MODEL 1
REMARK VINA RESULT:      -5.8      0.000      0.000
REMARK  6 active torsions:
REMARK  status: ('A' for Active; 'I' for Inactive)
REMARK    1  A    between atoms: C_4  and  C_2 
REMARK    2  A    between atoms: C_6  and  C_2 
REMARK    3  A    between atoms: C_9  and  C_6 
REMARK    4  A    between atoms: C_6  and  N_12 
REMARK    5  A    between atoms: O_14  and  C_8 
REMARK    6  A    between atoms: O_16  and  C_9 
ROOT
HETATM    1  C   UNK N   1      30.505  17.149   7.224  0.00  0.00     0.043 A 
HETATM    2  C   UNK N   1      28.143  17.729   8.776  0.00  0.00     0.094 A 
HETATM    3  C   UNK N   1      30.683  17.818   8.378  0.00  0.00    -0.003 A 
HETATM    4  C   UNK N   1      29.152  16.727   6.782  0.00  0.00     0.060 A 
HETATM    5  C   UNK N   1      29.491  18.151   9.214  0.00  0.00     0.181 A 
HETATM    6  C   UNK N   1      27.973  17.061   7.630  0.00  0.00     0.095 A 
HETATM    7  N   UNK N   1      29.014  16.110   5.665  0.00  0.00    -0.397 N 
ATOM      8  HN  UNK N   1      29.843  15.903   5.107  1.00  0.00     0.156 HD
HETATM    9  O   UNK N   1      29.604  18.803  10.236  0.00  0.00    -0.288 OA
HETATM   10  H   UNK N   1      28.087  15.815   5.318  0.00  0.00     0.156 HD
ENDROOT
BRANCH   3  11
HETATM   11  C   UNK N   1      32.072  18.314   8.713  0.00  0.00     0.078 C 
BRANCH  11  12
HETATM   12  C   UNK N   1      33.249  17.367   8.445  0.00  0.00     0.177 C 
BRANCH  12  13
HETATM   13  C   UNK N   1      34.320  18.132   7.708  0.00  0.00     0.163 C 
HETATM   14  O   UNK N   1      34.546  17.910   6.527  0.00  0.00    -0.648 OA
BRANCH  13  15
HETATM   15  O   UNK N   1      35.037  19.070   8.354  0.00  0.00    -0.775 OA
HETATM   16  H   UNK N   1      35.159  19.018   9.281  0.00  0.00     0.167 HD
ENDBRANCH  13  15
ENDBRANCH  12  13
BRANCH  12  17
HETATM   17  N   UNK N   1      33.788  16.849   9.694  0.00  0.00    -0.417 N 
HETATM   18  H   UNK N   1      34.796  16.774   9.826  0.00  0.00     0.150 HD
HETATM   19  H   UNK N   1      33.154  16.559  10.438  0.00  0.00     0.150 HD
ENDBRANCH  12  17
ENDBRANCH  11  12
ENDBRANCH   3  11
BRANCH   6  20
HETATM   20  O   UNK N   1      26.730  16.706   7.249  0.00  0.00    -0.358 OA
HETATM   21  H   UNK N   1      26.336  17.089   6.490  0.00  0.00     0.217 HD
ENDBRANCH   6  20
TORSDOF 6
ENDMDL
MODEL 2
REMARK VINA RESULT:      -5.8      2.123      2.628
REMARK  6 active torsions:
REMARK  status: ('A' for Active; 'I' for Inactive)
REMARK    1  A    between atoms: C_4  and  C_2 
REMARK    2  A    between atoms: C_6  and  C_2 
REMARK    3  A    between atoms: C_9  and  C_6 
REMARK    4  A    between atoms: C_6  and  N_12 
REMARK    5  A    between atoms: O_14  and  C_8 
REMARK    6  A    between atoms: O_16  and  C_9 
ROOT
HETATM    1  C   UNK N   1      30.053  17.882   8.572  0.00  0.00     0.043 A 
HETATM    2  C   UNK N   1      29.051  17.069   5.992  0.00  0.00     0.094 A 
HETATM    3  C   UNK N   1      30.947  17.378   7.703  0.00  0.00    -0.003 A 
HETATM    4  C   UNK N   1      28.619  18.016   8.208  0.00  0.00     0.060 A 
HETATM    5  C   UNK N   1      30.478  16.933   6.357  0.00  0.00     0.181 A 
HETATM    6  C   UNK N   1      28.168  17.574   6.858  0.00  0.00     0.095 A 
HETATM    7  N   UNK N   1      27.788  18.481   9.068  0.00  0.00    -0.397 N 
ATOM      8  HN  UNK N   1      28.131  18.769   9.984  1.00  0.00     0.156 HD
HETATM    9  O   UNK N   1      31.246  16.421   5.562  0.00  0.00    -0.288 OA
HETATM   10  H   UNK N   1      26.781  18.574   8.856  0.00  0.00     0.156 HD
ENDROOT
BRANCH   3  11
HETATM   11  C   UNK N   1      32.368  17.166   8.177  0.00  0.00     0.078 C 
BRANCH  11  12
HETATM   12  C   UNK N   1      33.470  18.003   7.514  0.00  0.00     0.177 C 
BRANCH  12  13
HETATM   13  C   UNK N   1      34.552  18.261   8.533  0.00  0.00     0.163 C 
HETATM   14  O   UNK N   1      35.275  19.243   8.443  0.00  0.00    -0.648 OA
BRANCH  13  15
HETATM   15  O   UNK N   1      34.727  17.403   9.555  0.00  0.00    -0.775 OA
HETATM   16  H   UNK N   1      34.273  16.583   9.569  0.00  0.00     0.167 HD
ENDBRANCH  13  15
ENDBRANCH  12  13
BRANCH  12  17
HETATM   17  N   UNK N   1      34.031  17.302   6.369  0.00  0.00    -0.417 N 
HETATM   18  H   UNK N   1      34.767  17.734   5.812  0.00  0.00     0.150 HD
HETATM   19  H   UNK N   1      33.687  16.374   6.124  0.00  0.00     0.150 HD
ENDBRANCH  12  17
ENDBRANCH  11  12
ENDBRANCH   3  11
BRANCH   6  20
HETATM   20  O   UNK N   1      26.871  17.668   6.503  0.00  0.00    -0.358 OA
HETATM   21  H   UNK N   1      26.207  17.241   7.007  0.00  0.00     0.217 HD
ENDBRANCH   6  20
TORSDOF 6
ENDMDL
MODEL 3
REMARK VINA RESULT:      -5.6     10.396     11.830
REMARK  6 active torsions:
REMARK  status: ('A' for Active; 'I' for Inactive)
REMARK    1  A    between atoms: C_4  and  C_2 
REMARK    2  A    between atoms: C_6  and  C_2 
REMARK    3  A    between atoms: C_9  and  C_6 
REMARK    4  A    between atoms: C_6  and  N_12 
REMARK    5  A    between atoms: O_14  and  C_8 
REMARK    6  A    between atoms: O_16  and  C_9 
ROOT
HETATM    1  C   UNK N   1      35.178  11.220  17.228  0.00  0.00     0.043 A 
HETATM    2  C   UNK N   1      35.298  12.721  19.689  0.00  0.00     0.094 A 
HETATM    3  C   UNK N   1      35.257  12.558  17.122  0.00  0.00    -0.003 A 
HETATM    4  C   UNK N   1      35.162  10.555  18.556  0.00  0.00     0.060 A 
HETATM    5  C   UNK N   1      35.311  13.383  18.366  0.00  0.00     0.181 A 
HETATM    6  C   UNK N   1      35.224  11.391  19.788  0.00  0.00     0.095 A 
HETATM    7  N   UNK N   1      35.064   9.277  18.623  0.00  0.00    -0.397 N 
ATOM      8  HN  UNK N   1      35.018   8.737  17.759  1.00  0.00     0.156 HD
HETATM    9  O   UNK N   1      35.328  14.599  18.313  0.00  0.00    -0.288 OA
HETATM   10  H   UNK N   1      35.033   8.781  19.529  0.00  0.00     0.156 HD
ENDROOT
BRANCH   3  11
HETATM   11  C   UNK N   1      35.157  13.176  15.745  0.00  0.00     0.078 C 
BRANCH  11  12
HETATM   12  C   UNK N   1      36.464  13.414  14.976  0.00  0.00     0.177 C 
BRANCH  12  13
HETATM   13  C   UNK N   1      36.126  13.672  13.529  0.00  0.00     0.163 C 
HETATM   14  O   UNK N   1      34.964  13.782  13.167  0.00  0.00    -0.648 OA
BRANCH  13  15
HETATM   15  O   UNK N   1      37.114  13.784  12.621  0.00  0.00    -0.775 OA
HETATM   16  H   UNK N   1      36.957  14.206  11.799  0.00  0.00     0.167 HD
ENDBRANCH  13  15
ENDBRANCH  12  13
BRANCH  12  17
HETATM   17  N   UNK N   1      37.182  14.555  15.524  0.00  0.00    -0.417 N 
HETATM   18  H   UNK N   1      37.276  14.667  16.533  0.00  0.00     0.150 HD
HETATM   19  H   UNK N   1      37.592  15.246  14.895  0.00  0.00     0.150 HD
ENDBRANCH  12  17
ENDBRANCH  11  12
ENDBRANCH   3  11
BRANCH   6  20
HETATM   20  O   UNK N   1      35.195  10.818  21.008  0.00  0.00    -0.358 OA
HETATM   21  H   UNK N   1      34.584  11.107  21.657  0.00  0.00     0.217 HD
ENDBRANCH   6  20
TORSDOF 6
ENDMDL
MODEL 4
REMARK VINA RESULT:      -5.6      2.948      3.866
REMARK  6 active torsions:
REMARK  status: ('A' for Active; 'I' for Inactive)
REMARK    1  A    between atoms: C_4  and  C_2 
REMARK    2  A    between atoms: C_6  and  C_2 
REMARK    3  A    between atoms: C_9  and  C_6 
REMARK    4  A    between atoms: C_6  and  N_12 
REMARK    5  A    between atoms: O_14  and  C_8 
REMARK    6  A    between atoms: O_16  and  C_9 
ROOT
HETATM    1  C   UNK N   1      31.096  17.042   6.770  0.00  0.00     0.043 A 
HETATM    2  C   UNK N   1      33.091  17.598   4.761  0.00  0.00     0.094 A 
HETATM    3  C   UNK N   1      32.335  17.332   7.206  0.00  0.00    -0.003 A 
HETATM    4  C   UNK N   1      30.778  17.020   5.320  0.00  0.00     0.060 A 
HETATM    5  C   UNK N   1      33.407  17.618   6.205  0.00  0.00     0.181 A 
HETATM    6  C   UNK N   1      31.856  17.314   4.334  0.00  0.00     0.095 A 
HETATM    7  N   UNK N   1      29.591  16.719   4.936  0.00  0.00    -0.397 N 
ATOM      8  HN  UNK N   1      28.879  16.517   5.638  1.00  0.00     0.156 HD
HETATM    9  O   UNK N   1      34.554  17.830   6.558  0.00  0.00    -0.288 OA
HETATM   10  H   UNK N   1      29.337  16.677   3.936  0.00  0.00     0.156 HD
ENDROOT
BRANCH   3  11
HETATM   11  C   UNK N   1      32.617  17.228   8.688  0.00  0.00     0.078 C 
BRANCH  11  12
HETATM   12  C   UNK N   1      33.473  16.047   9.168  0.00  0.00     0.177 C 
BRANCH  12  13
HETATM   13  C   UNK N   1      34.678  16.594   9.892  0.00  0.00     0.163 C 
HETATM   14  O   UNK N   1      35.161  15.995  10.842  0.00  0.00    -0.648 OA
BRANCH  13  15
HETATM   15  O   UNK N   1      35.231  17.754   9.491  0.00  0.00    -0.775 OA
HETATM   16  H   UNK N   1      35.342  17.935   8.578  0.00  0.00     0.167 HD
ENDBRANCH  13  15
ENDBRANCH  12  13
BRANCH  12  17
HETATM   17  N   UNK N   1      32.711  15.188  10.061  0.00  0.00    -0.417 N 
HETATM   18  H   UNK N   1      31.710  15.338  10.188  0.00  0.00     0.150 HD
HETATM   19  H   UNK N   1      33.180  14.434  10.563  0.00  0.00     0.150 HD
ENDBRANCH  12  17
ENDBRANCH  11  12
ENDBRANCH   3  11
BRANCH   6  20
HETATM   20  O   UNK N   1      31.603  17.286   3.011  0.00  0.00    -0.358 OA
HETATM   21  H   UNK N   1      30.845  16.848   2.679  0.00  0.00     0.217 HD
ENDBRANCH   6  20
TORSDOF 6
ENDMDL
MODEL 5
REMARK VINA RESULT:      -5.6     11.918     12.785
REMARK  6 active torsions:
REMARK  status: ('A' for Active; 'I' for Inactive)
REMARK    1  A    between atoms: C_4  and  C_2 
REMARK    2  A    between atoms: C_6  and  C_2 
REMARK    3  A    between atoms: C_9  and  C_6 
REMARK    4  A    between atoms: C_6  and  N_12 
REMARK    5  A    between atoms: O_14  and  C_8 
REMARK    6  A    between atoms: O_16  and  C_9 
ROOT
HETATM    1  C   UNK N   1      29.578  23.382  -4.892  0.00  0.00     0.043 A 
HETATM    2  C   UNK N   1      28.547  23.498  -2.200  0.00  0.00     0.094 A 
HETATM    3  C   UNK N   1      30.413  23.015  -3.904  0.00  0.00    -0.003 A 
HETATM    4  C   UNK N   1      28.189  23.818  -4.601  0.00  0.00     0.060 A 
HETATM    5  C   UNK N   1      29.931  23.066  -2.491  0.00  0.00     0.181 A 
HETATM    6  C   UNK N   1      27.720  23.857  -3.187  0.00  0.00     0.095 A 
HETATM    7  N   UNK N   1      27.424  24.182  -5.565  0.00  0.00    -0.397 N 
ATOM      8  HN  UNK N   1      27.779  24.148  -6.520  1.00  0.00     0.156 HD
HETATM    9  O   UNK N   1      30.674  22.795  -1.564  0.00  0.00    -0.288 OA
HETATM   10  H   UNK N   1      26.457  24.507  -5.399  0.00  0.00     0.156 HD
ENDROOT
BRANCH   3  11
HETATM   11  C   UNK N   1      31.847  22.689  -4.260  0.00  0.00     0.078 C 
BRANCH  11  12
HETATM   12  C   UNK N   1      32.270  21.214  -4.225  0.00  0.00     0.177 C 
BRANCH  12  13
HETATM   13  C   UNK N   1      33.343  21.050  -3.178  0.00  0.00     0.163 C 
HETATM   14  O   UNK N   1      34.510  20.879  -3.501  0.00  0.00    -0.648 OA
BRANCH  13  15
HETATM   15  O   UNK N   1      33.017  21.091  -1.873  0.00  0.00    -0.775 OA
HETATM   16  H   UNK N   1      33.666  20.932  -1.217  0.00  0.00     0.167 HD
ENDBRANCH  13  15
ENDBRANCH  12  13
BRANCH  12  17
HETATM   17  N   UNK N   1      31.136  20.361  -3.904  0.00  0.00    -0.417 N 
HETATM   18  H   UNK N   1      31.277  19.369  -3.716  0.00  0.00     0.150 HD
HETATM   19  H   UNK N   1      30.197  20.757  -3.869  0.00  0.00     0.150 HD
ENDBRANCH  12  17
ENDBRANCH  11  12
ENDBRANCH   3  11
BRANCH   6  20
HETATM   20  O   UNK N   1      26.470  24.263  -2.888  0.00  0.00    -0.358 OA
HETATM   21  H   UNK N   1      26.315  25.123  -2.552  0.00  0.00     0.217 HD
ENDBRANCH   6  20
TORSDOF 6
ENDMDL
MODEL 6
REMARK VINA RESULT:      -5.4      2.278      2.725
REMARK  6 active torsions:
REMARK  status: ('A' for Active; 'I' for Inactive)
REMARK    1  A    between atoms: C_4  and  C_2 
REMARK    2  A    between atoms: C_6  and  C_2 
REMARK    3  A    between atoms: C_9  and  C_6 
REMARK    4  A    between atoms: C_6  and  N_12 
REMARK    5  A    between atoms: O_14  and  C_8 
REMARK    6  A    between atoms: O_16  and  C_9 
ROOT
HETATM    1  C   UNK N   1      29.392  17.268   6.196  0.00  0.00     0.043 A 
HETATM    2  C   UNK N   1      29.616  17.415   9.069  0.00  0.00     0.094 A 
HETATM    3  C   UNK N   1      30.539  16.824   6.741  0.00  0.00    -0.003 A 
HETATM    4  C   UNK N   1      28.295  17.800   7.044  0.00  0.00     0.060 A 
HETATM    5  C   UNK N   1      30.709  16.888   8.223  0.00  0.00     0.181 A 
HETATM    6  C   UNK N   1      28.477  17.850   8.522  0.00  0.00     0.095 A 
HETATM    7  N   UNK N   1      27.221  18.235   6.491  0.00  0.00    -0.397 N 
ATOM      8  HN  UNK N   1      27.133  18.191   5.475  1.00  0.00     0.156 HD
HETATM    9  O   UNK N   1      31.753  16.547   8.750  0.00  0.00    -0.288 OA
HETATM   10  H   UNK N   1      26.444  18.627   7.047  0.00  0.00     0.156 HD
ENDROOT
BRANCH   3  11
HETATM   11  C   UNK N   1      31.656  16.400   5.814  0.00  0.00     0.078 C 
BRANCH  11  12
HETATM   12  C   UNK N   1      32.639  17.482   5.344  0.00  0.00     0.177 C 
BRANCH  12  13
HETATM   13  C   UNK N   1      33.967  17.247   6.020  0.00  0.00     0.163 C 
HETATM   14  O   UNK N   1      34.657  16.283   5.724  0.00  0.00    -0.648 OA
BRANCH  13  15
HETATM   15  O   UNK N   1      34.400  18.108   6.960  0.00  0.00    -0.775 OA
HETATM   16  H   UNK N   1      33.928  18.899   7.132  0.00  0.00     0.167 HD
ENDBRANCH  13  15
ENDBRANCH  12  13
BRANCH  12  17
HETATM   17  N   UNK N   1      32.808  17.431   3.899  0.00  0.00    -0.417 N 
HETATM   18  H   UNK N   1      33.738  17.504   3.488  0.00  0.00     0.150 HD
HETATM   19  H   UNK N   1      31.992  17.323   3.297  0.00  0.00     0.150 HD
ENDBRANCH  12  17
ENDBRANCH  11  12
ENDBRANCH   3  11
BRANCH   6  20
HETATM   20  O   UNK N   1      27.506  18.342   9.317  0.00  0.00    -0.358 OA
HETATM   21  H   UNK N   1      26.604  18.187   9.120  0.00  0.00     0.217 HD
ENDBRANCH   6  20
TORSDOF 6
ENDMDL
MODEL 7
REMARK VINA RESULT:      -5.4      9.747     11.368
REMARK  6 active torsions:
REMARK  status: ('A' for Active; 'I' for Inactive)
REMARK    1  A    between atoms: C_4  and  C_2 
REMARK    2  A    between atoms: C_6  and  C_2 
REMARK    3  A    between atoms: C_9  and  C_6 
REMARK    4  A    between atoms: C_6  and  N_12 
REMARK    5  A    between atoms: O_14  and  C_8 
REMARK    6  A    between atoms: O_16  and  C_9 
ROOT
HETATM    1  C   UNK N   1      35.527  13.599  16.827  0.00  0.00     0.043 A 
HETATM    2  C   UNK N   1      35.299  11.525  18.820  0.00  0.00     0.094 A 
HETATM    3  C   UNK N   1      35.618  12.328  16.396  0.00  0.00    -0.003 A 
HETATM    4  C   UNK N   1      35.311  13.909  18.263  0.00  0.00     0.060 A 
HETATM    5  C   UNK N   1      35.517  11.217  17.389  0.00  0.00     0.181 A 
HETATM    6  C   UNK N   1      35.205  12.789  19.241  0.00  0.00     0.095 A 
HETATM    7  N   UNK N   1      35.250  15.133  18.644  0.00  0.00    -0.397 N 
ATOM      8  HN  UNK N   1      35.332  15.874  17.949  1.00  0.00     0.156 HD
HETATM    9  O   UNK N   1      35.650  10.056  17.047  0.00  0.00    -0.288 OA
HETATM   10  H   UNK N   1      35.117  15.387  19.637  0.00  0.00     0.156 HD
ENDROOT
BRANCH   3  11
HETATM   11  C   UNK N   1      35.949  12.086  14.940  0.00  0.00     0.078 C 
BRANCH  11  12
HETATM   12  C   UNK N   1      35.279  12.993  13.899  0.00  0.00     0.177 C 
BRANCH  12  13
HETATM   13  C   UNK N   1      36.349  13.810  13.218  0.00  0.00     0.163 C 
HETATM   14  O   UNK N   1      36.810  13.462  12.140  0.00  0.00    -0.648 OA
BRANCH  13  15
HETATM   15  O   UNK N   1      36.804  14.935  13.800  0.00  0.00    -0.775 OA
HETATM   16  H   UNK N   1      36.907  15.720  13.298  0.00  0.00     0.167 HD
ENDBRANCH  13  15
ENDBRANCH  12  13
BRANCH  12  17
HETATM   17  N   UNK N   1      34.563  12.201  12.911  0.00  0.00    -0.417 N 
HETATM   18  H   UNK N   1      34.629  11.184  12.922  0.00  0.00     0.150 HD
HETATM   19  H   UNK N   1      33.993  12.666  12.205  0.00  0.00     0.150 HD
ENDBRANCH  12  17
ENDBRANCH  11  12
ENDBRANCH   3  11
BRANCH   6  20
HETATM   20  O   UNK N   1      35.025  13.039  20.553  0.00  0.00    -0.358 OA
HETATM   21  H   UNK N   1      35.759  13.112  21.130  0.00  0.00     0.217 HD
ENDBRANCH   6  20
TORSDOF 6
ENDMDL
MODEL 8
REMARK VINA RESULT:      -5.3      7.206     10.900
REMARK  6 active torsions:
REMARK  status: ('A' for Active; 'I' for Inactive)
REMARK    1  A    between atoms: C_4  and  C_2 
REMARK    2  A    between atoms: C_6  and  C_2 
REMARK    3  A    between atoms: C_9  and  C_6 
REMARK    4  A    between atoms: C_6  and  N_12 
REMARK    5  A    between atoms: O_14  and  C_8 
REMARK    6  A    between atoms: O_16  and  C_9 
ROOT
HETATM    1  C   UNK N   1      23.909  18.187   4.258  0.00  0.00     0.043 A 
HETATM    2  C   UNK N   1      25.389  20.398   3.143  0.00  0.00     0.094 A 
HETATM    3  C   UNK N   1      23.191  19.208   3.756  0.00  0.00    -0.003 A 
HETATM    4  C   UNK N   1      25.393  18.203   4.229  0.00  0.00     0.060 A 
HETATM    5  C   UNK N   1      23.910  20.382   3.176  0.00  0.00     0.181 A 
HETATM    6  C   UNK N   1      26.096  19.378   3.640  0.00  0.00     0.095 A 
HETATM    7  N   UNK N   1      26.048  17.222   4.736  0.00  0.00    -0.397 N 
ATOM      8  HN  UNK N   1      25.534  16.437   5.135  1.00  0.00     0.156 HD
HETATM    9  O   UNK N   1      23.298  21.350   2.762  0.00  0.00    -0.288 OA
HETATM   10  H   UNK N   1      27.080  17.206   4.748  0.00  0.00     0.156 HD
ENDROOT
BRANCH   3  11
HETATM   11  C   UNK N   1      21.688  19.178   3.919  0.00  0.00     0.078 C 
BRANCH  11  12
HETATM   12  C   UNK N   1      20.838  19.041   2.648  0.00  0.00     0.177 C 
BRANCH  12  13
HETATM   13  C   UNK N   1      19.612  18.227   2.978  0.00  0.00     0.163 C 
HETATM   14  O   UNK N   1      19.678  17.283   3.752  0.00  0.00    -0.648 OA
BRANCH  13  15
HETATM   15  O   UNK N   1      18.429  18.542   2.417  0.00  0.00    -0.775 OA
HETATM   16  H   UNK N   1      17.711  17.941   2.457  0.00  0.00     0.167 HD
ENDBRANCH  13  15
ENDBRANCH  12  13
BRANCH  12  17
HETATM   17  N   UNK N   1      20.440  20.350   2.152  0.00  0.00    -0.417 N 
HETATM   18  H   UNK N   1      21.077  21.143   2.226  0.00  0.00     0.150 HD
HETATM   19  H   UNK N   1      19.520  20.474   1.730  0.00  0.00     0.150 HD
ENDBRANCH  12  17
ENDBRANCH  11  12
ENDBRANCH   3  11
BRANCH   6  20
HETATM   20  O   UNK N   1      27.442  19.430   3.613  0.00  0.00    -0.358 OA
HETATM   21  H   UNK N   1      27.954  18.709   3.921  0.00  0.00     0.217 HD
ENDBRANCH   6  20
TORSDOF 6
ENDMDL
MODEL 9
REMARK VINA RESULT:      -5.3      4.142      6.306
REMARK  6 active torsions:
REMARK  status: ('A' for Active; 'I' for Inactive)
REMARK    1  A    between atoms: C_4  and  C_2 
REMARK    2  A    between atoms: C_6  and  C_2 
REMARK    3  A    between atoms: C_9  and  C_6 
REMARK    4  A    between atoms: C_6  and  N_12 
REMARK    5  A    between atoms: O_14  and  C_8 
REMARK    6  A    between atoms: O_16  and  C_9 
ROOT
HETATM    1  C   UNK N   1      34.800  13.824   9.835  0.00  0.00     0.043 A 
HETATM    2  C   UNK N   1      35.569  15.548  12.017  0.00  0.00     0.094 A 
HETATM    3  C   UNK N   1      35.109  15.096   9.526  0.00  0.00    -0.003 A 
HETATM    4  C   UNK N   1      34.862  13.337  11.236  0.00  0.00     0.060 A 
HETATM    5  C   UNK N   1      35.504  16.032  10.621  0.00  0.00     0.181 A 
HETATM    6  C   UNK N   1      35.265  14.281  12.317  0.00  0.00     0.095 A 
HETATM    7  N   UNK N   1      34.540  12.123  11.499  0.00  0.00    -0.397 N 
ATOM      8  HN  UNK N   1      34.264  11.506  10.736  1.00  0.00     0.156 HD
HETATM    9  O   UNK N   1      35.738  17.205  10.391  0.00  0.00    -0.288 OA
HETATM   10  H   UNK N   1      34.555  11.754  12.464  0.00  0.00     0.156 HD
ENDROOT
BRANCH   3  11
HETATM   11  C   UNK N   1      34.918  15.555   8.098  0.00  0.00     0.078 C 
BRANCH  11  12
HETATM   12  C   UNK N   1      33.691  16.424   7.789  0.00  0.00     0.177 C 
BRANCH  12  13
HETATM   13  C   UNK N   1      34.166  17.732   7.206  0.00  0.00     0.163 C 
HETATM   14  O   UNK N   1      34.094  17.944   6.004  0.00  0.00    -0.648 OA
BRANCH  13  15
HETATM   15  O   UNK N   1      34.676  18.679   8.015  0.00  0.00    -0.775 OA
HETATM   16  H   UNK N   1      34.202  19.472   8.174  0.00  0.00     0.167 HD
ENDBRANCH  13  15
ENDBRANCH  12  13
BRANCH  12  17
HETATM   17  N   UNK N   1      32.811  15.756   6.842  0.00  0.00    -0.417 N 
HETATM   18  H   UNK N   1      32.762  14.738   6.818  0.00  0.00     0.150 HD
HETATM   19  H   UNK N   1      32.243  16.308   6.201  0.00  0.00     0.150 HD
ENDBRANCH  12  17
ENDBRANCH  11  12
ENDBRANCH   3  11
BRANCH   6  20
HETATM   20  O   UNK N   1      35.315  13.874  13.600  0.00  0.00    -0.358 OA
HETATM   21  H   UNK N   1      36.137  13.787  14.042  0.00  0.00     0.217 HD
ENDBRANCH   6  20
TORSDOF 6
ENDMDL
