MODEL 1
REMARK VINA RESULT:      -5.6      0.000      0.000
REMARK  5 active torsions:
REMARK  status: ('A' for Active; 'I' for Inactive)
REMARK    1  A    between atoms: C_6  and  C_4 
REMARK    2  A    between atoms: O_13  and  C_4 
REMARK    3  A    between atoms: C_5  and  O_14 
REMARK    4  A    between atoms: O_15  and  C_7 
REMARK    5  A    between atoms: N_12  and  C_8 
ROOT
HETATM    1  C   UNK N   1      36.685  12.908  15.460  0.00  0.00     0.088 C 
HETATM    2  C   UNK N   1      36.367  13.491  14.123  0.00  0.00     0.153 C 
HETATM    3  C   UNK N   1      34.892  13.104  13.980  0.00  0.00     0.176 C 
HETATM    4  C   UNK N   1      35.411  13.324  16.176  0.00  0.00     0.230 C 
HETATM    5  O   UNK N   1      34.340  13.066  15.288  0.00  0.00    -0.356 OA
ENDROOT
BRANCH   4   6
HETATM    6  N   UNK N   1      35.282  12.699  17.493  0.00  0.00    -0.307 N 
HETATM    7  C   UNK N   1      35.191  11.249  17.533  0.00  0.00     0.138 C 
HETATM    8  C   UNK N   1      35.962  10.683  18.712  0.00  0.00     0.104 C 
HETATM    9  C   UNK N   1      35.632  11.474  19.944  0.00  0.00     0.120 C 
HETATM   10  N   UNK N   1      35.350  12.734  19.867  0.00  0.00    -0.293 N 
HETATM   11  C   UNK N   1      35.264  13.396  18.679  0.00  0.00     0.326 C 
ATOM     12  HN  UNK N   1      35.186  13.252  20.730  1.00  0.00     0.172 HD
HETATM   13  O   UNK N   1      35.196  14.615  18.689  0.00  0.00    -0.247 OA
BRANCH   9  14
HETATM   14  O   UNK N   1      35.714  10.880  21.149  0.00  0.00    -0.349 OA
HETATM   15  H   UNK N   1      36.542  10.792  21.579  0.00  0.00     0.219 HD
ENDBRANCH   9  14
ENDBRANCH   4   6
BRANCH   2  16
HETATM   16  O   UNK N   1      37.192  13.011  13.105  0.00  0.00    -0.393 OA
HETATM   17  H   UNK N   1      38.127  13.108  12.865  0.00  0.00     0.210 HD
ENDBRANCH   2  16
BRANCH   3  18
HETATM   18  C   UNK N   1      34.693  11.734  13.330  0.00  0.00     0.198 C 
BRANCH  18  19
HETATM   19  O   UNK N   1      34.510  11.878  11.950  0.00  0.00    -0.398 OA
HETATM   20  H   UNK N   1      34.156  12.703  11.585  0.00  0.00     0.209 HD
ENDBRANCH  18  19
ENDBRANCH   3  18
TORSDOF 5
ENDMDL
MODEL 2
REMARK VINA RESULT:      -5.5      9.700     12.937
REMARK  5 active torsions:
REMARK  status: ('A' for Active; 'I' for Inactive)
REMARK    1  A    between atoms: C_6  and  C_4 
REMARK    2  A    between atoms: O_13  and  C_4 
REMARK    3  A    between atoms: C_5  and  O_14 
REMARK    4  A    between atoms: O_15  and  C_7 
REMARK    5  A    between atoms: N_12  and  C_8 
ROOT
HETATM    1  C   UNK N   1      32.296  16.915   6.924  0.00  0.00     0.088 C 
HETATM    2  C   UNK N   1      32.524  17.845   8.069  0.00  0.00     0.153 C 
HETATM    3  C   UNK N   1      34.054  17.889   8.107  0.00  0.00     0.176 C 
HETATM    4  C   UNK N   1      33.358  17.471   5.991  0.00  0.00     0.230 C 
HETATM    5  O   UNK N   1      34.512  17.701   6.776  0.00  0.00    -0.356 OA
ENDROOT
BRANCH   4   6
HETATM    6  N   UNK N   1      33.572  16.620   4.819  0.00  0.00    -0.307 N 
HETATM    7  C   UNK N   1      34.467  15.486   4.977  0.00  0.00     0.138 C 
HETATM    8  C   UNK N   1      33.954  14.273   4.222  0.00  0.00     0.104 C 
HETATM    9  C   UNK N   1      33.533  14.691   2.843  0.00  0.00     0.120 C 
HETATM   10  N   UNK N   1      33.051  15.870   2.625  0.00  0.00    -0.293 N 
HETATM   11  C   UNK N   1      32.963  16.819   3.601  0.00  0.00     0.326 C 
ATOM     12  HN  UNK N   1      32.722  16.100   1.688  1.00  0.00     0.172 HD
HETATM   13  O   UNK N   1      32.318  17.831   3.379  0.00  0.00    -0.247 OA
BRANCH   9  14
HETATM   14  O   UNK N   1      33.581  13.793   1.841  0.00  0.00    -0.349 OA
HETATM   15  H   UNK N   1      34.398  13.417   1.579  0.00  0.00     0.219 HD
ENDBRANCH   9  14
ENDBRANCH   4   6
BRANCH   2  16
HETATM   16  O   UNK N   1      31.928  17.411   9.254  0.00  0.00    -0.393 OA
HETATM   17  H   UNK N   1      31.921  16.586   9.766  0.00  0.00     0.210 HD
ENDBRANCH   2  16
BRANCH   3  18
HETATM   18  C   UNK N   1      34.663  16.797   8.988  0.00  0.00     0.198 C 
BRANCH  18  19
HETATM   19  O   UNK N   1      34.675  17.209  10.325  0.00  0.00    -0.398 OA
HETATM   20  H   UNK N   1      34.164  17.984  10.606  0.00  0.00     0.209 HD
ENDBRANCH  18  19
ENDBRANCH   3  18
TORSDOF 5
ENDMDL
MODEL 3
REMARK VINA RESULT:      -5.4     18.207     19.835
REMARK  5 active torsions:
REMARK  status: ('A' for Active; 'I' for Inactive)
REMARK    1  A    between atoms: C_6  and  C_4 
REMARK    2  A    between atoms: O_13  and  C_4 
REMARK    3  A    between atoms: C_5  and  O_14 
REMARK    4  A    between atoms: O_15  and  C_7 
REMARK    5  A    between atoms: N_12  and  C_8 
ROOT
HETATM    1  C   UNK N   1      22.622  19.219   3.580  0.00  0.00     0.088 C 
HETATM    2  C   UNK N   1      22.496  20.529   2.875  0.00  0.00     0.153 C 
HETATM    3  C   UNK N   1      21.019  20.502   2.474  0.00  0.00     0.176 C 
HETATM    4  C   UNK N   1      21.318  19.276   4.357  0.00  0.00     0.230 C 
HETATM    5  O   UNK N   1      20.330  19.751   3.462  0.00  0.00    -0.356 OA
ENDROOT
BRANCH   4   6
HETATM    6  N   UNK N   1      20.999  18.003   5.006  0.00  0.00    -0.307 N 
HETATM    7  C   UNK N   1      20.746  16.863   4.141  0.00  0.00     0.138 C 
HETATM    8  C   UNK N   1      21.337  15.591   4.722  0.00  0.00     0.104 C 
HETATM    9  C   UNK N   1      20.983  15.503   6.178  0.00  0.00     0.120 C 
HETATM   10  N   UNK N   1      20.850  16.571   6.895  0.00  0.00    -0.293 N 
HETATM   11  C   UNK N   1      20.949  17.825   6.369  0.00  0.00     0.326 C 
ATOM     12  HN  UNK N   1      20.665  16.471   7.893  1.00  0.00     0.172 HD
HETATM   13  O   UNK N   1      21.014  18.777   7.130  0.00  0.00    -0.247 OA
BRANCH   9  14
HETATM   14  O   UNK N   1      20.888  14.292   6.759  0.00  0.00    -0.349 OA
HETATM   15  H   UNK N   1      20.825  13.518   6.236  0.00  0.00     0.219 HD
ENDBRANCH   9  14
ENDBRANCH   4   6
BRANCH   2  16
HETATM   16  O   UNK N   1      23.383  20.662   1.806  0.00  0.00    -0.393 OA
HETATM   17  H   UNK N   1      24.243  20.282   1.564  0.00  0.00     0.210 HD
ENDBRANCH   2  16
BRANCH   3  18
HETATM   18  C   UNK N   1      20.779  19.848   1.113  0.00  0.00     0.198 C 
BRANCH  18  19
HETATM   19  O   UNK N   1      20.869  20.805   0.096  0.00  0.00    -0.398 OA
HETATM   20  H   UNK N   1      20.581  21.717   0.253  0.00  0.00     0.209 HD
ENDBRANCH  18  19
ENDBRANCH   3  18
TORSDOF 5
ENDMDL
MODEL 4
REMARK VINA RESULT:      -5.4     13.745     16.125
REMARK  5 active torsions:
REMARK  status: ('A' for Active; 'I' for Inactive)
REMARK    1  A    between atoms: C_6  and  C_4 
REMARK    2  A    between atoms: O_13  and  C_4 
REMARK    3  A    between atoms: C_5  and  O_14 
REMARK    4  A    between atoms: O_15  and  C_7 
REMARK    5  A    between atoms: N_12  and  C_8 
ROOT
HETATM    1  C   UNK N   1      23.812  13.209   9.746  0.00  0.00     0.088 C 
HETATM    2  C   UNK N   1      24.509  12.205  10.604  0.00  0.00     0.153 C 
HETATM    3  C   UNK N   1      23.321  11.562  11.324  0.00  0.00     0.176 C 
HETATM    4  C   UNK N   1      22.657  12.331   9.297  0.00  0.00     0.230 C 
HETATM    5  O   UNK N   1      22.212  11.625  10.440  0.00  0.00    -0.356 OA
ENDROOT
BRANCH   4   6
HETATM    6  N   UNK N   1      21.617  13.089   8.600  0.00  0.00    -0.307 N 
HETATM    7  C   UNK N   1      20.935  14.128   9.353  0.00  0.00     0.138 C 
HETATM    8  C   UNK N   1      20.667  15.347   8.490  0.00  0.00     0.104 C 
HETATM    9  C   UNK N   1      20.101  14.903   7.172  0.00  0.00     0.120 C 
HETATM   10  N   UNK N   1      20.445  13.772   6.649  0.00  0.00    -0.293 N 
HETATM   11  C   UNK N   1      21.271  12.891   7.283  0.00  0.00     0.326 C 
ATOM     12  HN  UNK N   1      20.085  13.529   5.727  1.00  0.00     0.172 HD
HETATM   13  O   UNK N   1      21.713  11.943   6.653  0.00  0.00    -0.247 OA
BRANCH   9  14
HETATM   14  O   UNK N   1      19.292  15.735   6.490  0.00  0.00    -0.349 OA
HETATM   15  H   UNK N   1      19.385  15.834   5.563  0.00  0.00     0.219 HD
ENDBRANCH   9  14
ENDBRANCH   4   6
BRANCH   2  16
HETATM   16  O   UNK N   1      25.460  12.775  11.452  0.00  0.00    -0.393 OA
HETATM   17  H   UNK N   1      26.146  12.441  12.051  0.00  0.00     0.210 HD
ENDBRANCH   2  16
BRANCH   3  18
HETATM   18  C   UNK N   1      22.948  12.279  12.622  0.00  0.00     0.198 C 
BRANCH  18  19
HETATM   19  O   UNK N   1      23.950  12.092  13.581  0.00  0.00    -0.398 OA
HETATM   20  H   UNK N   1      24.240  12.829  14.139  0.00  0.00     0.209 HD
ENDBRANCH  18  19
ENDBRANCH   3  18
TORSDOF 5
ENDMDL
MODEL 5
REMARK VINA RESULT:      -5.2      6.800      9.974
REMARK  5 active torsions:
REMARK  status: ('A' for Active; 'I' for Inactive)
REMARK    1  A    between atoms: C_6  and  C_4 
REMARK    2  A    between atoms: O_13  and  C_4 
REMARK    3  A    between atoms: C_5  and  O_14 
REMARK    4  A    between atoms: O_15  and  C_7 
REMARK    5  A    between atoms: N_12  and  C_8 
ROOT
HETATM    1  C   UNK N   1      34.018  15.011  10.355  0.00  0.00     0.088 C 
HETATM    2  C   UNK N   1      34.705  14.894  11.675  0.00  0.00     0.153 C 
HETATM    3  C   UNK N   1      36.151  15.207  11.280  0.00  0.00     0.176 C 
HETATM    4  C   UNK N   1      34.730  16.259   9.862  0.00  0.00     0.230 C 
HETATM    5  O   UNK N   1      36.100  16.101  10.179  0.00  0.00    -0.356 OA
ENDROOT
BRANCH   4   6
HETATM    6  N   UNK N   1      34.453  16.540   8.452  0.00  0.00    -0.307 N 
HETATM    7  C   UNK N   1      34.153  15.404   7.597  0.00  0.00     0.138 C 
HETATM    8  C   UNK N   1      33.062  15.743   6.597  0.00  0.00     0.104 C 
HETATM    9  C   UNK N   1      33.361  17.075   5.972  0.00  0.00     0.120 C 
HETATM   10  N   UNK N   1      33.971  17.999   6.641  0.00  0.00    -0.293 N 
HETATM   11  C   UNK N   1      34.438  17.803   7.906  0.00  0.00     0.326 C 
ATOM     12  HN  UNK N   1      34.106  18.911   6.204  1.00  0.00     0.172 HD
HETATM   13  O   UNK N   1      34.819  18.769   8.548  0.00  0.00    -0.247 OA
BRANCH   9  14
HETATM   14  O   UNK N   1      32.911  17.335   4.731  0.00  0.00    -0.349 OA
HETATM   15  H   UNK N   1      31.995  17.456   4.573  0.00  0.00     0.219 HD
ENDBRANCH   9  14
ENDBRANCH   4   6
BRANCH   2  16
HETATM   16  O   UNK N   1      34.527  13.646  12.276  0.00  0.00    -0.393 OA
HETATM   17  H   UNK N   1      34.747  13.251  13.134  0.00  0.00     0.210 HD
ENDBRANCH   2  16
BRANCH   3  18
HETATM   18  C   UNK N   1      36.939  13.965  10.859  0.00  0.00     0.198 C 
BRANCH  18  19
HETATM   19  O   UNK N   1      37.549  13.381  11.975  0.00  0.00    -0.398 OA
HETATM   20  H   UNK N   1      37.291  13.647  12.872  0.00  0.00     0.209 HD
ENDBRANCH  18  19
ENDBRANCH   3  18
TORSDOF 5
ENDMDL
MODEL 6
REMARK VINA RESULT:      -5.1     15.349     17.086
REMARK  5 active torsions:
REMARK  status: ('A' for Active; 'I' for Inactive)
REMARK    1  A    between atoms: C_6  and  C_4 
REMARK    2  A    between atoms: O_13  and  C_4 
REMARK    3  A    between atoms: C_5  and  O_14 
REMARK    4  A    between atoms: O_15  and  C_7 
REMARK    5  A    between atoms: N_12  and  C_8 
ROOT
HETATM    1  C   UNK N   1      21.765  15.990   7.178  0.00  0.00     0.088 C 
HETATM    2  C   UNK N   1      20.924  17.073   6.587  0.00  0.00     0.153 C 
HETATM    3  C   UNK N   1      19.555  16.389   6.548  0.00  0.00     0.176 C 
HETATM    4  C   UNK N   1      20.787  15.527   8.244  0.00  0.00     0.230 C 
HETATM    5  O   UNK N   1      19.512  15.476   7.634  0.00  0.00    -0.356 OA
ENDROOT
BRANCH   4   6
HETATM    6  N   UNK N   1      21.211  14.283   8.888  0.00  0.00    -0.307 N 
HETATM    7  C   UNK N   1      22.499  13.737   8.495  0.00  0.00     0.138 C 
HETATM    8  C   UNK N   1      23.236  13.153   9.687  0.00  0.00     0.104 C 
HETATM    9  C   UNK N   1      22.289  12.302  10.484  0.00  0.00     0.120 C 
HETATM   10  N   UNK N   1      21.031  12.591  10.547  0.00  0.00    -0.293 N 
HETATM   11  C   UNK N   1      20.478  13.624   9.849  0.00  0.00     0.326 C 
ATOM     12  HN  UNK N   1      20.428  12.025  11.143  1.00  0.00     0.172 HD
HETATM   13  O   UNK N   1      19.335  13.963  10.109  0.00  0.00    -0.247 OA
BRANCH   9  14
HETATM   14  O   UNK N   1      22.777  11.278  11.207  0.00  0.00    -0.349 OA
HETATM   15  H   UNK N   1      23.612  11.348  11.627  0.00  0.00     0.219 HD
ENDBRANCH   9  14
ENDBRANCH   4   6
BRANCH   2  16
HETATM   16  O   UNK N   1      21.388  17.510   5.345  0.00  0.00    -0.393 OA
HETATM   17  H   UNK N   1      22.257  17.684   4.951  0.00  0.00     0.210 HD
ENDBRANCH   2  16
BRANCH   3  18
HETATM   18  C   UNK N   1      19.310  15.614   5.253  0.00  0.00     0.198 C 
BRANCH  18  19
HETATM   19  O   UNK N   1      18.832  16.475   4.259  0.00  0.00    -0.398 OA
HETATM   20  H   UNK N   1      19.295  17.304   4.063  0.00  0.00     0.209 HD
ENDBRANCH  18  19
ENDBRANCH   3  18
TORSDOF 5
ENDMDL
MODEL 7
REMARK VINA RESULT:      -5.1      9.113     11.028
REMARK  5 active torsions:
REMARK  status: ('A' for Active; 'I' for Inactive)
REMARK    1  A    between atoms: C_6  and  C_4 
REMARK    2  A    between atoms: O_13  and  C_4 
REMARK    3  A    between atoms: C_5  and  O_14 
REMARK    4  A    between atoms: O_15  and  C_7 
REMARK    5  A    between atoms: N_12  and  C_8 
ROOT
HETATM    1  C   UNK N   1      30.460  16.677   7.007  0.00  0.00     0.088 C 
HETATM    2  C   UNK N   1      29.371  17.699   7.004  0.00  0.00     0.153 C 
HETATM    3  C   UNK N   1      29.570  18.339   8.380  0.00  0.00     0.176 C 
HETATM    4  C   UNK N   1      31.550  17.538   7.622  0.00  0.00     0.230 C 
HETATM    5  O   UNK N   1      30.953  18.253   8.687  0.00  0.00    -0.356 OA
ENDROOT
BRANCH   4   6
HETATM    6  N   UNK N   1      32.733  16.759   7.992  0.00  0.00    -0.307 N 
HETATM    7  C   UNK N   1      32.549  15.690   8.958  0.00  0.00     0.138 C 
HETATM    8  C   UNK N   1      33.389  14.476   8.601  0.00  0.00     0.104 C 
HETATM    9  C   UNK N   1      34.780  14.924   8.256  0.00  0.00     0.120 C 
HETATM   10  N   UNK N   1      34.989  16.073   7.701  0.00  0.00    -0.293 N 
HETATM   11  C   UNK N   1      33.988  16.967   7.465  0.00  0.00     0.326 C 
ATOM     12  HN  UNK N   1      35.941  16.320   7.429  1.00  0.00     0.172 HD
HETATM   13  O   UNK N   1      34.220  17.938   6.762  0.00  0.00    -0.247 OA
BRANCH   9  14
HETATM   14  O   UNK N   1      35.810  14.079   8.451  0.00  0.00    -0.349 OA
HETATM   15  H   UNK N   1      35.710  13.163   8.283  0.00  0.00     0.219 HD
ENDBRANCH   9  14
ENDBRANCH   4   6
BRANCH   2  16
HETATM   16  O   UNK N   1      28.105  17.149   6.799  0.00  0.00    -0.393 OA
HETATM   17  H   UNK N   1      27.741  16.253   6.719  0.00  0.00     0.210 HD
ENDBRANCH   2  16
BRANCH   3  18
HETATM   18  C   UNK N   1      28.784  17.635   9.487  0.00  0.00     0.198 C 
BRANCH  18  19
HETATM   19  O   UNK N   1      27.437  18.014   9.437  0.00  0.00    -0.398 OA
HETATM   20  H   UNK N   1      26.862  17.885  10.207  0.00  0.00     0.209 HD
ENDBRANCH  18  19
ENDBRANCH   3  18
TORSDOF 5
ENDMDL
MODEL 8
REMARK VINA RESULT:      -5.1     18.234     20.923
REMARK  5 active torsions:
REMARK  status: ('A' for Active; 'I' for Inactive)
REMARK    1  A    between atoms: C_6  and  C_4 
REMARK    2  A    between atoms: O_13  and  C_4 
REMARK    3  A    between atoms: C_5  and  O_14 
REMARK    4  A    between atoms: O_15  and  C_7 
REMARK    5  A    between atoms: N_12  and  C_8 
ROOT
HETATM    1  C   UNK N   1      22.059  16.639   4.450  0.00  0.00     0.088 C 
HETATM    2  C   UNK N   1      21.845  15.682   5.576  0.00  0.00     0.153 C 
HETATM    3  C   UNK N   1      20.504  16.177   6.126  0.00  0.00     0.176 C 
HETATM    4  C   UNK N   1      20.639  16.649   3.913  0.00  0.00     0.230 C 
HETATM    5  O   UNK N   1      19.778  16.721   5.034  0.00  0.00    -0.356 OA
ENDROOT
BRANCH   4   6
HETATM    6  N   UNK N   1      20.429  17.693   2.909  0.00  0.00    -0.307 N 
HETATM    7  C   UNK N   1      20.497  19.073   3.362  0.00  0.00     0.138 C 
HETATM    8  C   UNK N   1      21.186  19.954   2.336  0.00  0.00     0.104 C 
HETATM    9  C   UNK N   1      20.629  19.654   0.974  0.00  0.00     0.120 C 
HETATM   10  N   UNK N   1      20.219  18.466   0.672  0.00  0.00    -0.293 N 
HETATM   11  C   UNK N   1      20.197  17.445   1.576  0.00  0.00     0.326 C 
ATOM     12  HN  UNK N   1      19.900  18.285  -0.279  1.00  0.00     0.172 HD
HETATM   13  O   UNK N   1      19.992  16.310   1.175  0.00  0.00    -0.247 OA
BRANCH   9  14
HETATM   14  O   UNK N   1      20.638  20.617   0.033  0.00  0.00    -0.349 OA
HETATM   15  H   UNK N   1      21.326  21.252   0.011  0.00  0.00     0.219 HD
ENDBRANCH   9  14
ENDBRANCH   4   6
BRANCH   2  16
HETATM   16  O   UNK N   1      22.887  15.686   6.504  0.00  0.00    -0.393 OA
HETATM   17  H   UNK N   1      23.042  15.289   7.376  0.00  0.00     0.210 HD
ENDBRANCH   2  16
BRANCH   3  18
HETATM   18  C   UNK N   1      20.658  17.260   7.194  0.00  0.00     0.198 C 
BRANCH  18  19
HETATM   19  O   UNK N   1      20.843  16.674   8.452  0.00  0.00    -0.398 OA
HETATM   20  H   UNK N   1      21.245  17.180   9.175  0.00  0.00     0.209 HD
ENDBRANCH  18  19
ENDBRANCH   3  18
TORSDOF 5
ENDMDL
MODEL 9
REMARK VINA RESULT:      -5.1      2.182      2.783
REMARK  5 active torsions:
REMARK  status: ('A' for Active; 'I' for Inactive)
REMARK    1  A    between atoms: C_6  and  C_4 
REMARK    2  A    between atoms: O_13  and  C_4 
REMARK    3  A    between atoms: C_5  and  O_14 
REMARK    4  A    between atoms: O_15  and  C_7 
REMARK    5  A    between atoms: N_12  and  C_8 
ROOT
HETATM    1  C   UNK N   1      36.706  12.065  13.799  0.00  0.00     0.088 C 
HETATM    2  C   UNK N   1      37.188  12.189  12.391  0.00  0.00     0.153 C 
HETATM    3  C   UNK N   1      36.491  13.481  11.957  0.00  0.00     0.176 C 
HETATM    4  C   UNK N   1      36.849  13.525  14.195  0.00  0.00     0.230 C 
HETATM    5  O   UNK N   1      36.354  14.292  13.114  0.00  0.00    -0.356 OA
ENDROOT
BRANCH   4   6
HETATM    6  N   UNK N   1      36.230  13.815  15.489  0.00  0.00    -0.307 N 
HETATM    7  C   UNK N   1      35.027  13.075  15.830  0.00  0.00     0.138 C 
HETATM    8  C   UNK N   1      35.010  12.702  17.301  0.00  0.00     0.104 C 
HETATM    9  C   UNK N   1      35.391  13.902  18.119  0.00  0.00     0.120 C 
HETATM   10  N   UNK N   1      36.217  14.783  17.659  0.00  0.00    -0.293 N 
HETATM   11  C   UNK N   1      36.730  14.721  16.397  0.00  0.00     0.326 C 
ATOM     12  HN  UNK N   1      36.497  15.555  18.264  1.00  0.00     0.172 HD
HETATM   13  O   UNK N   1      37.651  15.464  16.099  0.00  0.00    -0.247 OA
BRANCH   9  14
HETATM   14  O   UNK N   1      34.930  14.012  19.379  0.00  0.00    -0.349 OA
HETATM   15  H   UNK N   1      34.028  13.848  19.570  0.00  0.00     0.219 HD
ENDBRANCH   9  14
ENDBRANCH   4   6
BRANCH   2  16
HETATM   16  O   UNK N   1      36.881  11.075  11.608  0.00  0.00    -0.393 OA
HETATM   17  H   UNK N   1      36.312  10.900  10.842  0.00  0.00     0.210 HD
ENDBRANCH   2  16
BRANCH   3  18
HETATM   18  C   UNK N   1      35.101  13.241  11.366  0.00  0.00     0.198 C 
BRANCH  18  19
HETATM   19  O   UNK N   1      34.164  14.078  11.983  0.00  0.00    -0.398 OA
HETATM   20  H   UNK N   1      34.085  15.008  11.718  0.00  0.00     0.209 HD
ENDBRANCH  18  19
ENDBRANCH   3  18
TORSDOF 5
ENDMDL
