MODEL 1
REMARK VINA RESULT:      -8.6      0.000      0.000
REMARK  10 active torsions:
REMARK  status: ('A' for Active; 'I' for Inactive)
REMARK    1  A    between atoms: C_4  and  S_33 
REMARK    2  A    between atoms: C_7  and  N_8 
REMARK    3  A    between atoms: C_13  and  N_14 
REMARK    4  A    between atoms: N_16  and  C_18 
REMARK    5  A    between atoms: C_20  and  S_27 
REMARK    6  A    between atoms: C_23  and  C_24 
REMARK    7  A    between atoms: C_24  and  O_25 
REMARK    8  A    between atoms: S_27  and  O_28 
REMARK    9  A    between atoms: C_31  and  O_32 
REMARK   10  A    between atoms: S_33  and  O_34 
ROOT
HETATM    1  N   UNK N   1      28.615  17.011   6.140  0.00  0.00    -0.232 N 
HETATM    2  N   UNK N   1      27.983  15.898   6.499  0.00  0.00    -0.294 N 
ATOM      3  HN  UNK N   1      28.355  15.161   7.098  1.00  0.00     0.187 HD
HETATM    4  C   UNK N   1      26.757  15.918   5.926  0.00  0.00     0.055 A 
HETATM    5  C   UNK N   1      25.742  14.837   6.060  0.00  0.00     0.072 C 
HETATM    6  C   UNK N   1      26.618  17.091   5.225  0.00  0.00     0.124 A 
HETATM    7  C   UNK N   1      27.789  17.759   5.386  0.00  0.00     0.193 A 
ENDROOT
BRANCH   6   8
HETATM    8  N   UNK N   1      25.516  17.522   4.470  0.00  0.00    -0.294 N 
HETATM    9  N   UNK N   1      24.573  18.114   5.032  0.00  0.00    -0.299 N 
ATOM     10  HN  UNK N   1      24.514  18.124   6.049  1.00  0.00     0.187 HD
ATOM     11  HN  UNK N   1      25.487  17.351   3.465  1.00  0.00     0.187 HD
BRANCH   9  12
HETATM   12  C   UNK N   1      23.592  18.768   4.268  0.00  0.00     0.066 A 
HETATM   13  C   UNK N   1      22.341  18.171   4.151  0.00  0.00     0.057 A 
HETATM   14  C   UNK N   1      21.381  18.680   3.306  0.00  0.00     0.074 A 
HETATM   15  C   UNK N   1      21.654  19.819   2.544  0.00  0.00     0.026 A 
HETATM   16  C   UNK N   1      22.907  20.442   2.652  0.00  0.00     0.022 A 
HETATM   17  C   UNK N   1      23.899  19.918   3.503  0.00  0.00     0.065 A 
BRANCH  14  18
HETATM   18  S   UNK N   1      19.898  17.720   3.089  0.00  0.00     0.129 S 
HETATM   19  O   UNK N   1      19.540  16.966   4.379  0.00  0.00    -0.598 OA
HETATM   20  O   UNK N   1      20.175  16.544   2.140  0.00  0.00    -0.598 OA
BRANCH  18  21
HETATM   21  O   UNK N   1      18.433  18.422   2.543  0.00  0.00    -0.292 OA
HETATM   22  H   UNK N   1      18.385  18.935   1.720  0.00  0.00     0.232 HD
ENDBRANCH  18  21
ENDBRANCH  14  18
BRANCH  17  23
HETATM   23  C   UNK N   1      25.253  20.545   3.515  0.00  0.00     0.178 C 
HETATM   24  O   UNK N   1      25.843  20.702   4.571  0.00  0.00    -0.646 OA
BRANCH  23  25
HETATM   25  O   UNK N   1      25.832  20.971   2.375  0.00  0.00    -0.773 OA
HETATM   26  H   UNK N   1      25.934  21.887   2.212  0.00  0.00     0.167 HD
ENDBRANCH  23  25
ENDBRANCH  17  23
ENDBRANCH   9  12
ENDBRANCH   6   8
BRANCH   7  27
HETATM   27  O   UNK N   1      28.042  19.000   4.942  0.00  0.00    -0.343 OA
HETATM   28  H   UNK N   1      28.128  19.279   4.051  0.00  0.00     0.219 HD
ENDBRANCH   7  27
BRANCH   1  29
HETATM   29  C   UNK N   1      29.901  17.416   6.633  0.00  0.00     0.065 A 
HETATM   30  C   UNK N   1      31.011  17.209   5.807  0.00  0.00     0.034 A 
HETATM   31  C   UNK N   1      32.299  17.370   6.308  0.00  0.00     0.027 A 
HETATM   32  C   UNK N   1      32.488  17.761   7.633  0.00  0.00     0.073 A 
HETATM   33  C   UNK N   1      31.393  18.058   8.441  0.00  0.00     0.034 A 
HETATM   34  C   UNK N   1      30.099  17.904   7.954  0.00  0.00    -0.032 A 
HETATM   35  C   UNK N   1      28.980  18.285   8.864  0.00  0.00     0.050 C 
BRANCH  32  36
HETATM   36  S   UNK N   1      34.120  17.728   8.346  0.00  0.00     0.129 S 
HETATM   37  O   UNK N   1      34.991  16.464   8.364  0.00  0.00    -0.598 OA
HETATM   38  O   UNK N   1      35.031  18.959   8.443  0.00  0.00    -0.598 OA
BRANCH  36  39
HETATM   39  O   UNK N   1      34.513  17.781   6.677  0.00  0.00    -0.292 OA
HETATM   40  H   UNK N   1      34.678  18.098   5.775  0.00  0.00     0.232 HD
ENDBRANCH  36  39
ENDBRANCH  32  36
ENDBRANCH   1  29
TORSDOF 10
ENDMDL
MODEL 2
REMARK VINA RESULT:      -8.5      2.311     10.308
REMARK  10 active torsions:
REMARK  status: ('A' for Active; 'I' for Inactive)
REMARK    1  A    between atoms: C_4  and  S_33 
REMARK    2  A    between atoms: C_7  and  N_8 
REMARK    3  A    between atoms: C_13  and  N_14 
REMARK    4  A    between atoms: N_16  and  C_18 
REMARK    5  A    between atoms: C_20  and  S_27 
REMARK    6  A    between atoms: C_23  and  C_24 
REMARK    7  A    between atoms: C_24  and  O_25 
REMARK    8  A    between atoms: S_27  and  O_28 
REMARK    9  A    between atoms: C_31  and  O_32 
REMARK   10  A    between atoms: S_33  and  O_34 
ROOT
HETATM    1  N   UNK N   1      26.547  18.632   5.019  0.00  0.00    -0.232 N 
HETATM    2  N   UNK N   1      26.796  19.084   6.244  0.00  0.00    -0.294 N 
ATOM      3  HN  UNK N   1      26.211  19.724   6.780  1.00  0.00     0.187 HD
HETATM    4  C   UNK N   1      27.966  18.540   6.653  0.00  0.00     0.055 A 
HETATM    5  C   UNK N   1      28.614  18.813   7.965  0.00  0.00     0.072 C 
HETATM    6  C   UNK N   1      28.432  17.705   5.666  0.00  0.00     0.124 A 
HETATM    7  C   UNK N   1      27.519  17.773   4.663  0.00  0.00     0.193 A 
ENDROOT
BRANCH   6   8
HETATM    8  N   UNK N   1      29.614  16.949   5.661  0.00  0.00    -0.294 N 
HETATM    9  N   UNK N   1      30.709  17.512   5.465  0.00  0.00    -0.299 N 
ATOM     10  HN  UNK N   1      30.732  18.475   5.133  1.00  0.00     0.187 HD
ATOM     11  HN  UNK N   1      29.578  15.941   5.815  1.00  0.00     0.187 HD
BRANCH   9  12
HETATM   12  C   UNK N   1      31.912  16.825   5.703  0.00  0.00     0.066 A 
HETATM   13  C   UNK N   1      32.337  16.677   7.019  0.00  0.00     0.057 A 
HETATM   14  C   UNK N   1      33.571  16.143   7.316  0.00  0.00     0.074 A 
HETATM   15  C   UNK N   1      34.423  15.738   6.286  0.00  0.00     0.026 A 
HETATM   16  C   UNK N   1      34.011  15.871   4.951  0.00  0.00     0.022 A 
HETATM   17  C   UNK N   1      32.757  16.431   4.639  0.00  0.00     0.065 A 
BRANCH  14  18
HETATM   18  S   UNK N   1      34.086  16.189   9.019  0.00  0.00     0.129 S 
HETATM   19  O   UNK N   1      34.473  17.617   9.435  0.00  0.00    -0.598 OA
HETATM   20  O   UNK N   1      35.436  15.472   9.174  0.00  0.00    -0.598 OA
BRANCH  18  21
HETATM   21  O   UNK N   1      33.096  15.592  10.284  0.00  0.00    -0.292 OA
HETATM   22  H   UNK N   1      32.847  16.141  11.044  0.00  0.00     0.232 HD
ENDBRANCH  18  21
ENDBRANCH  14  18
BRANCH  17  23
HETATM   23  C   UNK N   1      32.395  16.653   3.209  0.00  0.00     0.178 C 
HETATM   24  O   UNK N   1      33.203  16.402   2.329  0.00  0.00    -0.646 OA
BRANCH  23  25
HETATM   25  O   UNK N   1      31.194  17.156   2.866  0.00  0.00    -0.773 OA
HETATM   26  H   UNK N   1      30.471  17.099   3.460  0.00  0.00     0.167 HD
ENDBRANCH  23  25
ENDBRANCH  17  23
ENDBRANCH   9  12
ENDBRANCH   6   8
BRANCH   7  27
HETATM   27  O   UNK N   1      27.541  17.033   3.543  0.00  0.00    -0.343 OA
HETATM   28  H   UNK N   1      28.156  17.087   2.837  0.00  0.00     0.219 HD
ENDBRANCH   7  27
BRANCH   1  29
HETATM   29  C   UNK N   1      25.342  18.889   4.282  0.00  0.00     0.065 A 
HETATM   30  C   UNK N   1      25.293  20.043   3.493  0.00  0.00     0.034 A 
HETATM   31  C   UNK N   1      24.089  20.464   2.938  0.00  0.00     0.027 A 
HETATM   32  C   UNK N   1      22.926  19.722   3.148  0.00  0.00     0.073 A 
HETATM   33  C   UNK N   1      22.977  18.522   3.855  0.00  0.00     0.034 A 
HETATM   34  C   UNK N   1      24.174  18.087   4.415  0.00  0.00    -0.032 A 
HETATM   35  C   UNK N   1      24.158  16.772   5.119  0.00  0.00     0.050 C 
BRANCH  32  36
HETATM   36  S   UNK N   1      21.348  20.381   2.653  0.00  0.00     0.129 S 
HETATM   37  O   UNK N   1      20.358  20.997   3.650  0.00  0.00    -0.598 OA
HETATM   38  O   UNK N   1      21.064  20.951   1.257  0.00  0.00    -0.598 OA
BRANCH  36  39
HETATM   39  O   UNK N   1      22.233  21.834   2.880  0.00  0.00    -0.292 OA
HETATM   40  H   UNK N   1      22.749  22.638   2.713  0.00  0.00     0.232 HD
ENDBRANCH  36  39
ENDBRANCH  32  36
ENDBRANCH   1  29
TORSDOF 10
ENDMDL
MODEL 3
REMARK VINA RESULT:      -8.3      2.026      3.422
REMARK  10 active torsions:
REMARK  status: ('A' for Active; 'I' for Inactive)
REMARK    1  A    between atoms: C_4  and  S_33 
REMARK    2  A    between atoms: C_7  and  N_8 
REMARK    3  A    between atoms: C_13  and  N_14 
REMARK    4  A    between atoms: N_16  and  C_18 
REMARK    5  A    between atoms: C_20  and  S_27 
REMARK    6  A    between atoms: C_23  and  C_24 
REMARK    7  A    between atoms: C_24  and  O_25 
REMARK    8  A    between atoms: S_27  and  O_28 
REMARK    9  A    between atoms: C_31  and  O_32 
REMARK   10  A    between atoms: S_33  and  O_34 
ROOT
HETATM    1  N   UNK N   1      28.544  17.928   5.941  0.00  0.00    -0.232 N 
HETATM    2  N   UNK N   1      28.274  18.995   5.196  0.00  0.00    -0.294 N 
ATOM      3  HN  UNK N   1      28.905  19.775   5.011  1.00  0.00     0.187 HD
HETATM    4  C   UNK N   1      27.012  18.862   4.726  0.00  0.00     0.055 A 
HETATM    5  C   UNK N   1      26.317  19.860   3.869  0.00  0.00     0.072 C 
HETATM    6  C   UNK N   1      26.504  17.662   5.165  0.00  0.00     0.124 A 
HETATM    7  C   UNK N   1      27.487  17.096   5.911  0.00  0.00     0.193 A 
ENDROOT
BRANCH   6   8
HETATM    8  N   UNK N   1      25.230  17.125   4.928  0.00  0.00    -0.294 N 
HETATM    9  N   UNK N   1      24.244  17.572   5.547  0.00  0.00    -0.299 N 
ATOM     10  HN  UNK N   1      24.383  18.190   6.346  1.00  0.00     0.187 HD
ATOM     11  HN  UNK N   1      25.110  16.371   4.252  1.00  0.00     0.187 HD
BRANCH   9  12
HETATM   12  C   UNK N   1      22.941  17.227   5.149  0.00  0.00     0.066 A 
HETATM   13  C   UNK N   1      22.268  18.084   4.284  0.00  0.00     0.057 A 
HETATM   14  C   UNK N   1      20.943  17.885   3.966  0.00  0.00     0.074 A 
HETATM   15  C   UNK N   1      20.249  16.804   4.515  0.00  0.00     0.026 A 
HETATM   16  C   UNK N   1      20.910  15.922   5.383  0.00  0.00     0.022 A 
HETATM   17  C   UNK N   1      22.260  16.129   5.725  0.00  0.00     0.065 A 
BRANCH  14  18
HETATM   18  S   UNK N   1      20.137  19.155   3.015  0.00  0.00     0.129 S 
HETATM   19  O   UNK N   1      20.934  19.474   1.741  0.00  0.00    -0.598 OA
HETATM   20  O   UNK N   1      20.233  20.498   3.754  0.00  0.00    -0.598 OA
BRANCH  18  21
HETATM   21  O   UNK N   1      18.504  19.016   2.515  0.00  0.00    -0.292 OA
HETATM   22  H   UNK N   1      17.766  19.126   3.136  0.00  0.00     0.232 HD
ENDBRANCH  18  21
ENDBRANCH  14  18
BRANCH  17  23
HETATM   23  C   UNK N   1      22.901  15.233   6.731  0.00  0.00     0.178 C 
HETATM   24  O   UNK N   1      22.221  14.693   7.588  0.00  0.00    -0.646 OA
BRANCH  23  25
HETATM   25  O   UNK N   1      24.233  15.028   6.731  0.00  0.00    -0.773 OA
HETATM   26  H   UNK N   1      24.586  14.222   6.410  0.00  0.00     0.167 HD
ENDBRANCH  23  25
ENDBRANCH  17  23
ENDBRANCH   9  12
ENDBRANCH   6   8
BRANCH   7  27
HETATM   27  O   UNK N   1      27.440  15.867   6.451  0.00  0.00    -0.343 OA
HETATM   28  H   UNK N   1      27.409  15.047   5.998  0.00  0.00     0.219 HD
ENDBRANCH   7  27
BRANCH   1  29
HETATM   29  C   UNK N   1      29.823  17.641   6.525  0.00  0.00     0.065 A 
HETATM   30  C   UNK N   1      30.010  17.957   7.875  0.00  0.00     0.034 A 
HETATM   31  C   UNK N   1      31.281  17.914   8.437  0.00  0.00     0.027 A 
HETATM   32  C   UNK N   1      32.375  17.531   7.661  0.00  0.00     0.073 A 
HETATM   33  C   UNK N   1      32.192  17.126   6.341  0.00  0.00     0.034 A 
HETATM   34  C   UNK N   1      30.926  17.162   5.765  0.00  0.00    -0.032 A 
HETATM   35  C   UNK N   1      30.803  16.671   4.361  0.00  0.00     0.050 C 
BRANCH  32  36
HETATM   36  S   UNK N   1      34.027  17.711   8.301  0.00  0.00     0.129 S 
HETATM   37  O   UNK N   1      35.041  16.560   8.314  0.00  0.00    -0.598 OA
HETATM   38  O   UNK N   1      34.789  19.043   8.326  0.00  0.00    -0.598 OA
BRANCH  36  39
HETATM   39  O   UNK N   1      34.342  17.758   6.615  0.00  0.00    -0.292 OA
HETATM   40  H   UNK N   1      34.544  18.073   5.720  0.00  0.00     0.232 HD
ENDBRANCH  36  39
ENDBRANCH  32  36
ENDBRANCH   1  29
TORSDOF 10
ENDMDL
MODEL 4
REMARK VINA RESULT:      -8.0      7.686     11.550
REMARK  10 active torsions:
REMARK  status: ('A' for Active; 'I' for Inactive)
REMARK    1  A    between atoms: C_4  and  S_33 
REMARK    2  A    between atoms: C_7  and  N_8 
REMARK    3  A    between atoms: C_13  and  N_14 
REMARK    4  A    between atoms: N_16  and  C_18 
REMARK    5  A    between atoms: C_20  and  S_27 
REMARK    6  A    between atoms: C_23  and  C_24 
REMARK    7  A    between atoms: C_24  and  O_25 
REMARK    8  A    between atoms: S_27  and  O_28 
REMARK    9  A    between atoms: C_31  and  O_32 
REMARK   10  A    between atoms: S_33  and  O_34 
ROOT
HETATM    1  N   UNK N   1      36.529  13.296  12.424  0.00  0.00    -0.232 N 
HETATM    2  N   UNK N   1      37.648  13.369  11.710  0.00  0.00    -0.294 N 
ATOM      3  HN  UNK N   1      38.585  13.128  12.034  1.00  0.00     0.187 HD
HETATM    4  C   UNK N   1      37.321  13.818  10.476  0.00  0.00     0.055 A 
HETATM    5  C   UNK N   1      38.295  14.064   9.378  0.00  0.00     0.072 C 
HETATM    6  C   UNK N   1      35.959  13.993  10.419  0.00  0.00     0.124 A 
HETATM    7  C   UNK N   1      35.490  13.648  11.646  0.00  0.00     0.193 A 
ENDROOT
BRANCH   6   8
HETATM    8  N   UNK N   1      35.192  14.456   9.339  0.00  0.00    -0.294 N 
HETATM    9  N   UNK N   1      34.227  15.219   9.547  0.00  0.00    -0.299 N 
ATOM     10  HN  UNK N   1      33.886  15.359  10.497  1.00  0.00     0.187 HD
ATOM     11  HN  UNK N   1      35.422  14.171   8.388  1.00  0.00     0.187 HD
BRANCH   9  12
HETATM   12  C   UNK N   1      33.609  15.888   8.476  0.00  0.00     0.066 A 
HETATM   13  C   UNK N   1      32.760  15.161   7.648  0.00  0.00     0.057 A 
HETATM   14  C   UNK N   1      32.234  15.713   6.501  0.00  0.00     0.074 A 
HETATM   15  C   UNK N   1      32.552  17.027   6.150  0.00  0.00     0.026 A 
HETATM   16  C   UNK N   1      33.400  17.781   6.975  0.00  0.00     0.022 A 
HETATM   17  C   UNK N   1      33.954  17.218   8.141  0.00  0.00     0.065 A 
BRANCH  14  18
HETATM   18  S   UNK N   1      31.328  14.628   5.420  0.00  0.00     0.129 S 
HETATM   19  O   UNK N   1      29.814  14.782   5.634  0.00  0.00    -0.598 OA
HETATM   20  O   UNK N   1      31.530  13.170   5.858  0.00  0.00    -0.598 OA
BRANCH  18  21
HETATM   21  O   UNK N   1      31.558  14.638   3.722  0.00  0.00    -0.292 OA
HETATM   22  H   UNK N   1      30.974  14.148   3.122  0.00  0.00     0.232 HD
ENDBRANCH  18  21
ENDBRANCH  14  18
BRANCH  17  23
HETATM   23  C   UNK N   1      34.933  18.012   8.938  0.00  0.00     0.178 C 
HETATM   24  O   UNK N   1      35.290  19.112   8.546  0.00  0.00    -0.646 OA
BRANCH  23  25
HETATM   25  O   UNK N   1      35.459  17.526  10.079  0.00  0.00    -0.773 OA
HETATM   26  H   UNK N   1      35.370  16.617  10.289  0.00  0.00     0.167 HD
ENDBRANCH  23  25
ENDBRANCH  17  23
ENDBRANCH   9  12
ENDBRANCH   6   8
BRANCH   7  27
HETATM   27  O   UNK N   1      34.194  13.583  11.990  0.00  0.00    -0.343 OA
HETATM   28  H   UNK N   1      33.687  14.241  12.424  0.00  0.00     0.219 HD
ENDBRANCH   7  27
BRANCH   1  29
HETATM   29  C   UNK N   1      36.440  12.756  13.751  0.00  0.00     0.065 A 
HETATM   30  C   UNK N   1      36.193  11.385  13.882  0.00  0.00     0.034 A 
HETATM   31  C   UNK N   1      35.873  10.844  15.123  0.00  0.00     0.027 A 
HETATM   32  C   UNK N   1      35.820  11.665  16.250  0.00  0.00     0.073 A 
HETATM   33  C   UNK N   1      36.152  13.014  16.151  0.00  0.00     0.034 A 
HETATM   34  C   UNK N   1      36.475  13.570  14.917  0.00  0.00    -0.032 A 
HETATM   35  C   UNK N   1      36.862  15.011  14.900  0.00  0.00     0.050 C 
BRANCH  32  36
HETATM   36  S   UNK N   1      35.174  11.031  17.783  0.00  0.00     0.129 S 
HETATM   37  O   UNK N   1      34.539   9.640  17.902  0.00  0.00    -0.598 OA
HETATM   38  O   UNK N   1      35.685  11.463  19.165  0.00  0.00    -0.598 OA
BRANCH  36  39
HETATM   39  O   UNK N   1      36.656  10.171  17.692  0.00  0.00    -0.292 OA
HETATM   40  H   UNK N   1      37.454   9.736  17.352  0.00  0.00     0.232 HD
ENDBRANCH  36  39
ENDBRANCH  32  36
ENDBRANCH   1  29
TORSDOF 10
ENDMDL
MODEL 5
REMARK VINA RESULT:      -8.0      2.364      3.515
REMARK  10 active torsions:
REMARK  status: ('A' for Active; 'I' for Inactive)
REMARK    1  A    between atoms: C_4  and  S_33 
REMARK    2  A    between atoms: C_7  and  N_8 
REMARK    3  A    between atoms: C_13  and  N_14 
REMARK    4  A    between atoms: N_16  and  C_18 
REMARK    5  A    between atoms: C_20  and  S_27 
REMARK    6  A    between atoms: C_23  and  C_24 
REMARK    7  A    between atoms: C_24  and  O_25 
REMARK    8  A    between atoms: S_27  and  O_28 
REMARK    9  A    between atoms: C_31  and  O_32 
REMARK   10  A    between atoms: S_33  and  O_34 
ROOT
HETATM    1  N   UNK N   1      28.942  17.706   6.025  0.00  0.00    -0.232 N 
HETATM    2  N   UNK N   1      28.906  18.778   5.240  0.00  0.00    -0.294 N 
ATOM      3  HN  UNK N   1      29.667  19.440   5.092  1.00  0.00     0.187 HD
HETATM    4  C   UNK N   1      27.679  18.832   4.673  0.00  0.00     0.055 A 
HETATM    5  C   UNK N   1      27.222  19.900   3.742  0.00  0.00     0.072 C 
HETATM    6  C   UNK N   1      26.951  17.745   5.093  0.00  0.00     0.124 A 
HETATM    7  C   UNK N   1      27.769  17.053   5.927  0.00  0.00     0.193 A 
ENDROOT
BRANCH   6   8
HETATM    8  N   UNK N   1      25.629  17.410   4.765  0.00  0.00    -0.294 N 
HETATM    9  N   UNK N   1      24.687  17.863   5.447  0.00  0.00    -0.299 N 
ATOM     10  HN  UNK N   1      24.880  18.319   6.338  1.00  0.00     0.187 HD
ATOM     11  HN  UNK N   1      25.437  16.799   3.971  1.00  0.00     0.187 HD
BRANCH   9  12
HETATM   12  C   UNK N   1      23.363  17.748   4.991  0.00  0.00     0.066 A 
HETATM   13  C   UNK N   1      22.863  18.746   4.161  0.00  0.00     0.057 A 
HETATM   14  C   UNK N   1      21.536  18.773   3.794  0.00  0.00     0.074 A 
HETATM   15  C   UNK N   1      20.664  17.785   4.258  0.00  0.00     0.026 A 
HETATM   16  C   UNK N   1      21.148  16.765   5.090  0.00  0.00     0.022 A 
HETATM   17  C   UNK N   1      22.500  16.739   5.482  0.00  0.00     0.065 A 
BRANCH  14  18
HETATM   18  S   UNK N   1      20.971  20.203   2.899  0.00  0.00     0.129 S 
HETATM   19  O   UNK N   1      22.113  21.212   2.701  0.00  0.00    -0.598 OA
HETATM   20  O   UNK N   1      20.016  21.023   3.778  0.00  0.00    -0.598 OA
BRANCH  18  21
HETATM   21  O   UNK N   1      20.200  20.073   1.373  0.00  0.00    -0.292 OA
HETATM   22  H   UNK N   1      19.994  20.853   0.834  0.00  0.00     0.232 HD
ENDBRANCH  18  21
ENDBRANCH  14  18
BRANCH  17  23
HETATM   23  C   UNK N   1      22.958  15.701   6.450  0.00  0.00     0.178 C 
HETATM   24  O   UNK N   1      22.169  15.220   7.247  0.00  0.00    -0.646 OA
BRANCH  23  25
HETATM   25  O   UNK N   1      24.243  15.298   6.482  0.00  0.00    -0.773 OA
HETATM   26  H   UNK N   1      24.627  15.009   7.286  0.00  0.00     0.167 HD
ENDBRANCH  23  25
ENDBRANCH  17  23
ENDBRANCH   9  12
ENDBRANCH   6   8
BRANCH   7  27
HETATM   27  O   UNK N   1      27.483  15.866   6.486  0.00  0.00    -0.343 OA
HETATM   28  H   UNK N   1      27.979  15.408   7.136  0.00  0.00     0.219 HD
ENDBRANCH   7  27
BRANCH   1  29
HETATM   29  C   UNK N   1      30.109  17.237   6.717  0.00  0.00     0.065 A 
HETATM   30  C   UNK N   1      30.969  16.373   6.032  0.00  0.00     0.034 A 
HETATM   31  C   UNK N   1      31.987  15.710   6.712  0.00  0.00     0.027 A 
HETATM   32  C   UNK N   1      32.167  15.923   8.079  0.00  0.00     0.073 A 
HETATM   33  C   UNK N   1      31.376  16.849   8.755  0.00  0.00     0.034 A 
HETATM   34  C   UNK N   1      30.356  17.521   8.089  0.00  0.00    -0.032 A 
HETATM   35  C   UNK N   1      29.582  18.529   8.870  0.00  0.00     0.050 C 
BRANCH  32  36
HETATM   36  S   UNK N   1      33.298  14.900   8.997  0.00  0.00     0.129 S 
HETATM   37  O   UNK N   1      34.183  15.447  10.125  0.00  0.00    -0.598 OA
HETATM   38  O   UNK N   1      33.101  13.392   9.209  0.00  0.00    -0.598 OA
BRANCH  36  39
HETATM   39  O   UNK N   1      32.025  15.054  10.137  0.00  0.00    -0.292 OA
HETATM   40  H   UNK N   1      31.535  15.167  10.967  0.00  0.00     0.232 HD
ENDBRANCH  36  39
ENDBRANCH  32  36
ENDBRANCH   1  29
TORSDOF 10
ENDMDL
MODEL 6
REMARK VINA RESULT:      -7.7      2.710     10.107
REMARK  10 active torsions:
REMARK  status: ('A' for Active; 'I' for Inactive)
REMARK    1  A    between atoms: C_4  and  S_33 
REMARK    2  A    between atoms: C_7  and  N_8 
REMARK    3  A    between atoms: C_13  and  N_14 
REMARK    4  A    between atoms: N_16  and  C_18 
REMARK    5  A    between atoms: C_20  and  S_27 
REMARK    6  A    between atoms: C_23  and  C_24 
REMARK    7  A    between atoms: C_24  and  O_25 
REMARK    8  A    between atoms: S_27  and  O_28 
REMARK    9  A    between atoms: C_31  and  O_32 
REMARK   10  A    between atoms: S_33  and  O_34 
ROOT
HETATM    1  N   UNK N   1      24.406  17.333   4.393  0.00  0.00    -0.232 N 
HETATM    2  N   UNK N   1      24.700  18.389   3.642  0.00  0.00    -0.294 N 
ATOM      3  HN  UNK N   1      24.146  18.749   2.865  1.00  0.00     0.187 HD
HETATM    4  C   UNK N   1      25.869  18.903   4.093  0.00  0.00     0.055 A 
HETATM    5  C   UNK N   1      26.560  20.081   3.504  0.00  0.00     0.072 C 
HETATM    6  C   UNK N   1      26.285  18.163   5.174  0.00  0.00     0.124 A 
HETATM    7  C   UNK N   1      25.346  17.197   5.345  0.00  0.00     0.193 A 
ENDROOT
BRANCH   6   8
HETATM    8  N   UNK N   1      27.448  18.332   5.941  0.00  0.00    -0.294 N 
HETATM    9  N   UNK N   1      28.015  17.338   6.435  0.00  0.00    -0.299 N 
ATOM     10  HN  UNK N   1      27.543  16.434   6.439  1.00  0.00     0.187 HD
ATOM     11  HN  UNK N   1      27.829  19.266   6.093  1.00  0.00     0.187 HD
BRANCH   9  12
HETATM   12  C   UNK N   1      29.302  17.456   6.987  0.00  0.00     0.066 A 
HETATM   13  C   UNK N   1      30.397  17.342   6.136  0.00  0.00     0.057 A 
HETATM   14  C   UNK N   1      31.683  17.305   6.625  0.00  0.00     0.074 A 
HETATM   15  C   UNK N   1      31.908  17.383   8.002  0.00  0.00     0.026 A 
HETATM   16  C   UNK N   1      30.819  17.507   8.878  0.00  0.00     0.022 A 
HETATM   17  C   UNK N   1      29.500  17.529   8.386  0.00  0.00     0.065 A 
BRANCH  14  18
HETATM   18  S   UNK N   1      32.984  16.955   5.463  0.00  0.00     0.129 S 
HETATM   19  O   UNK N   1      33.360  15.466   5.494  0.00  0.00    -0.598 OA
HETATM   20  O   UNK N   1      34.296  17.591   5.944  0.00  0.00    -0.598 OA
BRANCH  18  21
HETATM   21  O   UNK N   1      32.853  17.363   3.803  0.00  0.00    -0.292 OA
HETATM   22  H   UNK N   1      32.729  18.279   3.508  0.00  0.00     0.232 HD
ENDBRANCH  18  21
ENDBRANCH  14  18
BRANCH  17  23
HETATM   23  C   UNK N   1      28.364  17.556   9.351  0.00  0.00     0.178 C 
HETATM   24  O   UNK N   1      28.324  16.753  10.270  0.00  0.00    -0.646 OA
BRANCH  23  25
HETATM   25  O   UNK N   1      27.355  18.439   9.214  0.00  0.00    -0.773 OA
HETATM   26  H   UNK N   1      26.820  18.427   8.445  0.00  0.00     0.167 HD
ENDBRANCH  23  25
ENDBRANCH  17  23
ENDBRANCH   9  12
ENDBRANCH   6   8
BRANCH   7  27
HETATM   27  O   UNK N   1      25.318  16.313   6.356  0.00  0.00    -0.343 OA
HETATM   28  H   UNK N   1      25.185  16.493   7.265  0.00  0.00     0.219 HD
ENDBRANCH   7  27
BRANCH   1  29
HETATM   29  C   UNK N   1      23.186  16.581   4.304  0.00  0.00     0.065 A 
HETATM   30  C   UNK N   1      22.082  17.040   5.029  0.00  0.00     0.034 A 
HETATM   31  C   UNK N   1      20.949  16.243   5.164  0.00  0.00     0.027 A 
HETATM   32  C   UNK N   1      20.902  14.988   4.557  0.00  0.00     0.073 A 
HETATM   33  C   UNK N   1      21.958  14.556   3.757  0.00  0.00     0.034 A 
HETATM   34  C   UNK N   1      23.096  15.342   3.611  0.00  0.00    -0.032 A 
HETATM   35  C   UNK N   1      24.164  14.830   2.703  0.00  0.00     0.050 C 
BRANCH  32  36
HETATM   36  S   UNK N   1      19.568  13.869   4.929  0.00  0.00     0.129 S 
HETATM   37  O   UNK N   1      19.732  12.668   5.869  0.00  0.00    -0.598 OA
HETATM   38  O   UNK N   1      18.087  14.268   4.887  0.00  0.00    -0.598 OA
BRANCH  36  39
HETATM   39  O   UNK N   1      19.603  14.799   6.370  0.00  0.00    -0.292 OA
HETATM   40  H   UNK N   1      19.912  15.328   7.123  0.00  0.00     0.232 HD
ENDBRANCH  36  39
ENDBRANCH  32  36
ENDBRANCH   1  29
TORSDOF 10
ENDMDL
MODEL 7
REMARK VINA RESULT:      -7.4      5.170      7.938
REMARK  10 active torsions:
REMARK  status: ('A' for Active; 'I' for Inactive)
REMARK    1  A    between atoms: C_4  and  S_33 
REMARK    2  A    between atoms: C_7  and  N_8 
REMARK    3  A    between atoms: C_13  and  N_14 
REMARK    4  A    between atoms: N_16  and  C_18 
REMARK    5  A    between atoms: C_20  and  S_27 
REMARK    6  A    between atoms: C_23  and  C_24 
REMARK    7  A    between atoms: C_24  and  O_25 
REMARK    8  A    between atoms: S_27  and  O_28 
REMARK    9  A    between atoms: C_31  and  O_32 
REMARK   10  A    between atoms: S_33  and  O_34 
ROOT
HETATM    1  N   UNK N   1      34.373  14.704   9.300  0.00  0.00    -0.232 N 
HETATM    2  N   UNK N   1      35.022  14.833   8.147  0.00  0.00    -0.294 N 
ATOM      3  HN  UNK N   1      35.972  14.517   7.952  1.00  0.00     0.187 HD
HETATM    4  C   UNK N   1      34.195  15.458   7.277  0.00  0.00     0.055 A 
HETATM    5  C   UNK N   1      34.552  15.815   5.877  0.00  0.00     0.072 C 
HETATM    6  C   UNK N   1      32.993  15.688   7.901  0.00  0.00     0.124 A 
HETATM    7  C   UNK N   1      33.129  15.197   9.159  0.00  0.00     0.193 A 
ENDROOT
BRANCH   6   8
HETATM    8  N   UNK N   1      31.855  16.322   7.378  0.00  0.00    -0.294 N 
HETATM    9  N   UNK N   1      30.741  16.130   7.906  0.00  0.00    -0.299 N 
ATOM     10  HN  UNK N   1      30.626  15.384   8.591  1.00  0.00     0.187 HD
ATOM     11  HN  UNK N   1      31.938  16.937   6.569  1.00  0.00     0.187 HD
BRANCH   9  12
HETATM   12  C   UNK N   1      29.645  16.939   7.562  0.00  0.00     0.066 A 
HETATM   13  C   UNK N   1      29.225  16.951   6.236  0.00  0.00     0.057 A 
HETATM   14  C   UNK N   1      28.253  17.824   5.801  0.00  0.00     0.074 A 
HETATM   15  C   UNK N   1      27.669  18.721   6.698  0.00  0.00     0.026 A 
HETATM   16  C   UNK N   1      28.072  18.722   8.042  0.00  0.00     0.022 A 
HETATM   17  C   UNK N   1      29.076  17.842   8.491  0.00  0.00     0.065 A 
BRANCH  14  18
HETATM   18  S   UNK N   1      27.944  17.886   4.050  0.00  0.00     0.129 S 
HETATM   19  O   UNK N   1      27.550  19.306   3.613  0.00  0.00    -0.598 OA
HETATM   20  O   UNK N   1      26.654  17.120   3.722  0.00  0.00    -0.598 OA
BRANCH  18  21
HETATM   21  O   UNK N   1      29.102  17.355   2.903  0.00  0.00    -0.292 OA
HETATM   22  H   UNK N   1      30.033  17.218   3.140  0.00  0.00     0.232 HD
ENDBRANCH  18  21
ENDBRANCH  14  18
BRANCH  17  23
HETATM   23  C   UNK N   1      29.553  17.941   9.901  0.00  0.00     0.178 C 
HETATM   24  O   UNK N   1      29.802  19.033  10.386  0.00  0.00    -0.646 OA
BRANCH  23  25
HETATM   25  O   UNK N   1      29.743  16.837  10.650  0.00  0.00    -0.773 OA
HETATM   26  H   UNK N   1      29.712  15.988  10.255  0.00  0.00     0.167 HD
ENDBRANCH  23  25
ENDBRANCH  17  23
ENDBRANCH   9  12
ENDBRANCH   6   8
BRANCH   7  27
HETATM   27  O   UNK N   1      32.151  15.133  10.077  0.00  0.00    -0.343 OA
HETATM   28  H   UNK N   1      31.349  15.616  10.088  0.00  0.00     0.219 HD
ENDBRANCH   7  27
BRANCH   1  29
HETATM   29  C   UNK N   1      34.870  13.992  10.443  0.00  0.00     0.065 A 
HETATM   30  C   UNK N   1      34.737  12.600  10.452  0.00  0.00     0.034 A 
HETATM   31  C   UNK N   1      34.989  11.878  11.614  0.00  0.00     0.027 A 
HETATM   32  C   UNK N   1      35.400  12.539  12.772  0.00  0.00     0.073 A 
HETATM   33  C   UNK N   1      35.625  13.914  12.752  0.00  0.00     0.034 A 
HETATM   34  C   UNK N   1      35.378  14.649  11.598  0.00  0.00    -0.032 A 
HETATM   35  C   UNK N   1      35.685  16.109  11.643  0.00  0.00     0.050 C 
BRANCH  32  36
HETATM   36  S   UNK N   1      35.484  11.659  14.317  0.00  0.00     0.129 S 
HETATM   37  O   UNK N   1      36.326  12.146  15.504  0.00  0.00    -0.598 OA
HETATM   38  O   UNK N   1      34.361  10.755  14.844  0.00  0.00    -0.598 OA
BRANCH  36  39
HETATM   39  O   UNK N   1      34.426  12.939  14.748  0.00  0.00    -0.292 OA
HETATM   40  H   UNK N   1      33.731  13.458  15.183  0.00  0.00     0.232 HD
ENDBRANCH  36  39
ENDBRANCH  32  36
ENDBRANCH   1  29
TORSDOF 10
ENDMDL
MODEL 8
REMARK VINA RESULT:      -7.3      1.884      3.007
REMARK  10 active torsions:
REMARK  status: ('A' for Active; 'I' for Inactive)
REMARK    1  A    between atoms: C_4  and  S_33 
REMARK    2  A    between atoms: C_7  and  N_8 
REMARK    3  A    between atoms: C_13  and  N_14 
REMARK    4  A    between atoms: N_16  and  C_18 
REMARK    5  A    between atoms: C_20  and  S_27 
REMARK    6  A    between atoms: C_23  and  C_24 
REMARK    7  A    between atoms: C_24  and  O_25 
REMARK    8  A    between atoms: S_27  and  O_28 
REMARK    9  A    between atoms: C_31  and  O_32 
REMARK   10  A    between atoms: S_33  and  O_34 
ROOT
HETATM    1  N   UNK N   1      28.078  16.825   6.550  0.00  0.00    -0.232 N 
HETATM    2  N   UNK N   1      27.549  15.655   6.892  0.00  0.00    -0.294 N 
ATOM      3  HN  UNK N   1      28.027  14.899   7.382  1.00  0.00     0.187 HD
HETATM    4  C   UNK N   1      26.261  15.648   6.476  0.00  0.00     0.055 A 
HETATM    5  C   UNK N   1      25.323  14.505   6.644  0.00  0.00     0.072 C 
HETATM    6  C   UNK N   1      25.981  16.860   5.893  0.00  0.00     0.124 A 
HETATM    7  C   UNK N   1      27.131  17.579   5.964  0.00  0.00     0.193 A 
ENDROOT
BRANCH   6   8
HETATM    8  N   UNK N   1      24.775  17.283   5.313  0.00  0.00    -0.294 N 
HETATM    9  N   UNK N   1      24.378  16.756   4.254  0.00  0.00    -0.299 N 
ATOM     10  HN  UNK N   1      25.007  16.159   3.718  1.00  0.00     0.187 HD
ATOM     11  HN  UNK N   1      24.223  18.017   5.756  1.00  0.00     0.187 HD
BRANCH   9  12
HETATM   12  C   UNK N   1      23.069  16.982   3.797  0.00  0.00     0.066 A 
HETATM   13  C   UNK N   1      22.729  18.264   3.377  0.00  0.00     0.057 A 
HETATM   14  C   UNK N   1      21.432  18.590   3.053  0.00  0.00     0.074 A 
HETATM   15  C   UNK N   1      20.426  17.625   3.144  0.00  0.00     0.026 A 
HETATM   16  C   UNK N   1      20.747  16.324   3.558  0.00  0.00     0.022 A 
HETATM   17  C   UNK N   1      22.069  15.987   3.906  0.00  0.00     0.065 A 
BRANCH  14  18
HETATM   18  S   UNK N   1      21.084  20.305   2.725  0.00  0.00     0.129 S 
HETATM   19  O   UNK N   1      22.360  21.153   2.834  0.00  0.00    -0.598 OA
HETATM   20  O   UNK N   1      20.250  20.895   3.872  0.00  0.00    -0.598 OA
BRANCH  18  21
HETATM   21  O   UNK N   1      20.313  20.815   1.281  0.00  0.00    -0.292 OA
HETATM   22  H   UNK N   1      20.788  20.867   0.437  0.00  0.00     0.232 HD
ENDBRANCH  18  21
ENDBRANCH  14  18
BRANCH  17  23
HETATM   23  C   UNK N   1      22.356  14.624   4.441  0.00  0.00     0.178 C 
HETATM   24  O   UNK N   1      21.791  14.233   5.449  0.00  0.00    -0.646 OA
BRANCH  23  25
HETATM   25  O   UNK N   1      23.256  13.818   3.844  0.00  0.00    -0.773 OA
HETATM   26  H   UNK N   1      23.424  12.963   4.189  0.00  0.00     0.167 HD
ENDBRANCH  23  25
ENDBRANCH  17  23
ENDBRANCH   9  12
ENDBRANCH   6   8
BRANCH   7  27
HETATM   27  O   UNK N   1      27.267  18.862   5.592  0.00  0.00    -0.343 OA
HETATM   28  H   UNK N   1      27.654  19.188   4.803  0.00  0.00     0.219 HD
ENDBRANCH   7  27
BRANCH   1  29
HETATM   29  C   UNK N   1      29.395  17.265   6.914  0.00  0.00     0.065 A 
HETATM   30  C   UNK N   1      30.440  17.009   6.019  0.00  0.00     0.034 A 
HETATM   31  C   UNK N   1      31.761  17.205   6.407  0.00  0.00     0.027 A 
HETATM   32  C   UNK N   1      32.050  17.681   7.686  0.00  0.00     0.073 A 
HETATM   33  C   UNK N   1      31.018  18.027   8.556  0.00  0.00     0.034 A 
HETATM   34  C   UNK N   1      29.691  17.838   8.182  0.00  0.00    -0.032 A 
HETATM   35  C   UNK N   1      28.643  18.273   9.150  0.00  0.00     0.050 C 
BRANCH  32  36
HETATM   36  S   UNK N   1      33.732  17.698   8.271  0.00  0.00     0.129 S 
HETATM   37  O   UNK N   1      34.382  16.492   8.961  0.00  0.00    -0.598 OA
HETATM   38  O   UNK N   1      34.835  18.574   7.661  0.00  0.00    -0.598 OA
BRANCH  36  39
HETATM   39  O   UNK N   1      33.912  16.771   6.838  0.00  0.00    -0.292 OA
HETATM   40  H   UNK N   1      34.092  16.512   5.920  0.00  0.00     0.232 HD
ENDBRANCH  36  39
ENDBRANCH  32  36
ENDBRANCH   1  29
TORSDOF 10
ENDMDL
MODEL 9
REMARK VINA RESULT:      -7.2      3.446     11.025
REMARK  10 active torsions:
REMARK  status: ('A' for Active; 'I' for Inactive)
REMARK    1  A    between atoms: C_4  and  S_33 
REMARK    2  A    between atoms: C_7  and  N_8 
REMARK    3  A    between atoms: C_13  and  N_14 
REMARK    4  A    between atoms: N_16  and  C_18 
REMARK    5  A    between atoms: C_20  and  S_27 
REMARK    6  A    between atoms: C_23  and  C_24 
REMARK    7  A    between atoms: C_24  and  O_25 
REMARK    8  A    between atoms: S_27  and  O_28 
REMARK    9  A    between atoms: C_31  and  O_32 
REMARK   10  A    between atoms: S_33  and  O_34 
ROOT
HETATM    1  N   UNK N   1      28.907  18.010   7.556  0.00  0.00    -0.232 N 
HETATM    2  N   UNK N   1      28.414  17.682   8.746  0.00  0.00    -0.294 N 
ATOM      3  HN  UNK N   1      27.451  17.813   9.055  1.00  0.00     0.187 HD
HETATM    4  C   UNK N   1      29.419  17.140   9.473  0.00  0.00     0.055 A 
HETATM    5  C   UNK N   1      29.287  16.664  10.877  0.00  0.00     0.072 C 
HETATM    6  C   UNK N   1      30.552  17.102   8.697  0.00  0.00     0.124 A 
HETATM    7  C   UNK N   1      30.200  17.641   7.501  0.00  0.00     0.193 A 
ENDROOT
BRANCH   6   8
HETATM    8  N   UNK N   1      31.827  16.635   9.051  0.00  0.00    -0.294 N 
HETATM    9  N   UNK N   1      32.108  15.428   8.904  0.00  0.00    -0.299 N 
ATOM     10  HN  UNK N   1      31.368  14.756   8.704  1.00  0.00     0.187 HD
ATOM     11  HN  UNK N   1      32.523  17.279   9.427  1.00  0.00     0.187 HD
BRANCH   9  12
HETATM   12  C   UNK N   1      33.439  14.992   9.013  0.00  0.00     0.066 A 
HETATM   13  C   UNK N   1      33.906  14.605  10.265  0.00  0.00     0.057 A 
HETATM   14  C   UNK N   1      35.233  14.303  10.472  0.00  0.00     0.074 A 
HETATM   15  C   UNK N   1      36.141  14.384   9.412  0.00  0.00     0.026 A 
HETATM   16  C   UNK N   1      35.690  14.765   8.140  0.00  0.00     0.022 A 
HETATM   17  C   UNK N   1      34.337  15.090   7.924  0.00  0.00     0.065 A 
BRANCH  14  18
HETATM   18  S   UNK N   1      35.748  14.018  12.151  0.00  0.00     0.129 S 
HETATM   19  O   UNK N   1      36.731  12.839  12.230  0.00  0.00    -0.598 OA
HETATM   20  O   UNK N   1      34.572  13.463  12.968  0.00  0.00    -0.598 OA
BRANCH  18  21
HETATM   21  O   UNK N   1      36.437  15.258  13.113  0.00  0.00    -0.292 OA
HETATM   22  H   UNK N   1      37.321  15.616  12.933  0.00  0.00     0.232 HD
ENDBRANCH  18  21
ENDBRANCH  14  18
BRANCH  17  23
HETATM   23  C   UNK N   1      33.914  15.591   6.584  0.00  0.00     0.178 C 
HETATM   24  O   UNK N   1      32.785  15.367   6.178  0.00  0.00    -0.646 OA
BRANCH  23  25
HETATM   25  O   UNK N   1      34.769  16.268   5.793  0.00  0.00    -0.773 OA
HETATM   26  H   UNK N   1      35.692  16.133   5.873  0.00  0.00     0.167 HD
ENDBRANCH  23  25
ENDBRANCH  17  23
ENDBRANCH   9  12
ENDBRANCH   6   8
BRANCH   7  27
HETATM   27  O   UNK N   1      30.990  17.707   6.418  0.00  0.00    -0.343 OA
HETATM   28  H   UNK N   1      31.460  18.453   6.101  0.00  0.00     0.219 HD
ENDBRANCH   7  27
BRANCH   1  29
HETATM   29  C   UNK N   1      28.130  18.509   6.458  0.00  0.00     0.065 A 
HETATM   30  C   UNK N   1      27.877  19.884   6.409  0.00  0.00     0.034 A 
HETATM   31  C   UNK N   1      26.952  20.397   5.506  0.00  0.00     0.027 A 
HETATM   32  C   UNK N   1      26.286  19.542   4.627  0.00  0.00     0.073 A 
HETATM   33  C   UNK N   1      26.594  18.184   4.602  0.00  0.00     0.034 A 
HETATM   34  C   UNK N   1      27.518  17.656   5.497  0.00  0.00    -0.032 A 
HETATM   35  C   UNK N   1      27.827  16.201   5.378  0.00  0.00     0.050 C 
BRANCH  32  36
HETATM   36  S   UNK N   1      24.931  20.153   3.648  0.00  0.00     0.129 S 
HETATM   37  O   UNK N   1      25.129  20.810   2.275  0.00  0.00    -0.598 OA
HETATM   38  O   UNK N   1      23.504  19.593   3.727  0.00  0.00    -0.598 OA
BRANCH  36  39
HETATM   39  O   UNK N   1      25.276  18.691   2.819  0.00  0.00    -0.292 OA
HETATM   40  H   UNK N   1      25.720  18.012   2.287  0.00  0.00     0.232 HD
ENDBRANCH  36  39
ENDBRANCH  32  36
ENDBRANCH   1  29
TORSDOF 10
ENDMDL
