REMARK  8 active torsions:
REMARK  status: ('A' for Active; 'I' for Inactive)
REMARK    1  A    between atoms: C_17  and  C_16 
REMARK    2  A    between atoms: N_28  and  C_16 
REMARK    3  A    between atoms: O_31  and  C_17 
REMARK    4  A    between atoms: C_26  and  C_19 
REMARK    5  A    between atoms: C_27  and  C_20 
REMARK    6  A    between atoms: O_29  and  C_21 
REMARK    7  A    between atoms: O_30  and  C_22 
REMARK    8  A    between atoms: O_31  and  C_23 
ROOT
HETATM    1  C   UNK N   1      -3.074  -0.343   0.165  0.00  0.00     0.039 A 
HETATM    2  C   UNK N   1      -1.786   0.188   0.080  0.00  0.00     0.041 A 
HETATM    3  C   UNK N   1      -2.182  -2.559  -0.203  0.00  0.00     0.057 A 
HETATM    4  C   UNK N   1      -3.271  -1.718   0.037  0.00  0.00     0.067 A 
HETATM    5  C   UNK N   1      -0.684  -0.650  -0.129  0.00  0.00     0.086 A 
HETATM    6  C   UNK N   1      -0.887  -2.038  -0.292  0.00  0.00     0.037 A 
HETATM    7  C   UNK N   1       1.702  -0.818   0.110  0.00  0.00     0.180 C 
HETATM    8  C   UNK N   1       1.844  -2.007  -0.869  0.00  0.00     0.119 C 
HETATM    9  O   UNK N   1       0.549  -0.102  -0.143  0.00  0.00    -0.338 OA
HETATM   10  S   UNK N   1       0.463  -3.188  -0.618  0.00  0.00    -0.114 SA
ENDROOT
BRANCH   7  11
HETATM   11  C   UNK N   1       2.867   0.146   0.185  0.00  0.00    -0.027 A 
HETATM   12  C   UNK N   1       3.988   0.060  -0.659  0.00  0.00     0.012 A 
HETATM   13  C   UNK N   1       5.096   0.887  -0.451  0.00  0.00     0.037 A 
HETATM   14  C   UNK N   1       5.094   1.807   0.611  0.00  0.00     0.068 A 
HETATM   15  C   UNK N   1       3.964   1.920   1.421  0.00  0.00     0.037 A 
HETATM   16  C   UNK N   1       2.860   1.099   1.210  0.00  0.00     0.012 A 
BRANCH  14  17
HETATM   17  O   UNK N   1       6.161   2.582   0.890  0.00  0.00    -0.349 OA
BRANCH  17  18
HETATM   18  C   UNK N   1       7.313   2.631   0.140  0.00  0.00     0.206 C 
BRANCH  18  19
HETATM   19  C   UNK N   1       7.514   4.048  -0.387  0.00  0.00     0.299 C 
BRANCH  19  20
HETATM   20  N   UNK N   1       7.441   5.042   0.690  0.00  0.00     0.090 N 
HETATM   21  C   UNK N   1       6.045   5.341   1.055  0.00  0.00     0.272 C 
HETATM   22  C   UNK N   1       5.272   5.979  -0.100  0.00  0.00     0.030 C 
HETATM   23  C   UNK N   1       5.968   7.265  -0.515  0.00  0.00     0.003 C 
HETATM   24  C   UNK N   1       7.418   6.976  -0.882  0.00  0.00     0.030 C 
HETATM   25  C   UNK N   1       8.129   6.273   0.282  0.00  0.00     0.272 C 
ENDBRANCH  19  20
ENDBRANCH  18  19
ENDBRANCH  17  18
ENDBRANCH  14  17
ENDBRANCH   7  11
BRANCH   8  26
HETATM   26  C   UNK N   1       3.131  -2.759  -0.603  0.00  0.00    -0.041 A 
HETATM   27  C   UNK N   1       3.406  -3.276   0.676  0.00  0.00     0.011 A 
HETATM   28  C   UNK N   1       4.622  -3.912   0.934  0.00  0.00     0.037 A 
HETATM   29  C   UNK N   1       5.573  -4.040  -0.081  0.00  0.00     0.065 A 
HETATM   30  C   UNK N   1       5.304  -3.542  -1.359  0.00  0.00     0.037 A 
HETATM   31  C   UNK N   1       4.088  -2.903  -1.620  0.00  0.00     0.011 A 
BRANCH  29  32
HETATM   32  O   UNK N   1       6.746  -4.641   0.173  0.00  0.00    -0.361 OA
HETATM   33  H   UNK N   1       6.792  -5.560   0.350  0.00  0.00     0.217 HD
ENDBRANCH  29  32
ENDBRANCH   8  26
BRANCH   4  34
HETATM   34  O   UNK N   1      -4.506  -2.233   0.144  0.00  0.00    -0.361 OA
HETATM   35  H   UNK N   1      -5.248  -1.666   0.218  0.00  0.00     0.217 HD
ENDBRANCH   4  34
TORSDOF 8
