MODEL 1
REMARK VINA RESULT:      -5.6      0.000      0.000
REMARK  8 active torsions:
REMARK  status: ('A' for Active; 'I' for Inactive)
REMARK    1  A    between atoms: C_3  and  O_4 
REMARK    2  A    between atoms: C_5  and  C_6 
REMARK    3  A    between atoms: C_8  and  C_9 
REMARK    4  A    between atoms: C_9  and  O_10 
REMARK    5  A    between atoms: O_10  and  P_11 
REMARK    6  A    between atoms: P_11  and  O_12 
REMARK    7  A    between atoms: P_11  and  O_13 
REMARK    8  A    between atoms: N_16  and  O_17 
ROOT
HETATM    1  C   UNK N   1      23.193  11.726  13.049  0.00  0.00     0.074 C 
HETATM    2  C   UNK N   1      22.868  12.122  11.642  0.00  0.00     0.070 A 
HETATM    3  C   UNK N   1      23.903  12.456  10.757  0.00  0.00     0.104 A 
HETATM    4  C   UNK N   1      23.600  12.818   9.435  0.00  0.00     0.046 A 
HETATM    5  C   UNK N   1      22.250  12.813   9.020  0.00  0.00     0.000 A 
HETATM    6  C   UNK N   1      21.254  12.484   9.941  0.00  0.00     0.133 A 
HETATM    7  N   UNK N   1      21.568  12.156  11.224  0.00  0.00    -0.237 N 
ENDROOT
BRANCH   5   8
HETATM    8  C   UNK N   1      21.865  13.074   7.598  0.00  0.00     0.221 C 
BRANCH   8   9
HETATM    9  O   UNK N   1      20.503  13.345   7.460  0.00  0.00    -0.292 OA
BRANCH   9  10
HETATM   10  P   UNK N   1      20.472  14.955   6.800  0.00  0.00     0.391 P 
HETATM   11  O   UNK N   1      19.709  15.150   8.140  0.00  0.00    -0.632 OA
BRANCH  10  12
HETATM   12  O   UNK N   1      18.978  15.679   6.295  0.00  0.00    -0.307 OA
HETATM   13  H   UNK N   1      18.845  16.524   5.840  0.00  0.00     0.222 HD
ENDBRANCH  10  12
BRANCH  10  14
HETATM   14  O   UNK N   1      19.587  13.874   5.770  0.00  0.00    -0.307 OA
HETATM   15  H   UNK N   1      19.851  13.392   4.972  0.00  0.00     0.222 HD
ENDBRANCH  10  14
ENDBRANCH   9  10
ENDBRANCH   8   9
ENDBRANCH   5   8
BRANCH   4  16
HETATM   16  C   UNK N   1      24.720  13.184   8.530  0.00  0.00     0.273 C 
HETATM   17  O   UNK N   1      25.496  14.091   8.787  0.00  0.00    -0.301 OA
ENDBRANCH   4  16
BRANCH   3  18
HETATM   18  O   UNK N   1      25.185  12.425  11.174  0.00  0.00    -0.358 OA
HETATM   19  H   UNK N   1      25.883  12.656  10.594  0.00  0.00     0.217 HD
ENDBRANCH   3  18
BRANCH   7  20
HETATM   20  O   UNK N   1      20.587  11.849  12.067  0.00  0.00    -0.283 OA
ATOM     21  HO  UNK N   1      19.704  12.137  11.865  1.00  0.00     0.245 HD
ENDBRANCH   7  20
TORSDOF 8
ENDMDL
MODEL 2
REMARK VINA RESULT:      -5.6      9.176     11.339
REMARK  8 active torsions:
REMARK  status: ('A' for Active; 'I' for Inactive)
REMARK    1  A    between atoms: C_3  and  O_4 
REMARK    2  A    between atoms: C_5  and  C_6 
REMARK    3  A    between atoms: C_8  and  C_9 
REMARK    4  A    between atoms: C_9  and  O_10 
REMARK    5  A    between atoms: O_10  and  P_11 
REMARK    6  A    between atoms: P_11  and  O_12 
REMARK    7  A    between atoms: P_11  and  O_13 
REMARK    8  A    between atoms: N_16  and  O_17 
ROOT
HETATM    1  C   UNK N   1      27.151  19.171   5.517  0.00  0.00     0.074 C 
HETATM    2  C   UNK N   1      28.328  18.521   6.178  0.00  0.00     0.070 A 
HETATM    3  C   UNK N   1      28.431  18.530   7.576  0.00  0.00     0.104 A 
HETATM    4  C   UNK N   1      29.529  17.913   8.197  0.00  0.00     0.046 A 
HETATM    5  C   UNK N   1      30.499  17.276   7.391  0.00  0.00     0.000 A 
HETATM    6  C   UNK N   1      30.357  17.304   6.002  0.00  0.00     0.133 A 
HETATM    7  N   UNK N   1      29.295  17.925   5.419  0.00  0.00    -0.237 N 
ENDROOT
BRANCH   5   8
HETATM    8  C   UNK N   1      31.630  16.500   7.988  0.00  0.00     0.221 C 
BRANCH   8   9
HETATM    9  O   UNK N   1      32.836  16.728   7.324  0.00  0.00    -0.292 OA
BRANCH   9  10
HETATM   10  P   UNK N   1      33.491  18.123   8.134  0.00  0.00     0.391 P 
HETATM   11  O   UNK N   1      34.544  17.886   7.016  0.00  0.00    -0.632 OA
BRANCH  10  12
HETATM   12  O   UNK N   1      34.980  18.018   9.018  0.00  0.00    -0.307 OA
HETATM   13  H   UNK N   1      35.258  17.334   9.646  0.00  0.00     0.222 HD
ENDBRANCH  10  12
BRANCH  10  14
HETATM   14  O   UNK N   1      33.465  16.766   9.215  0.00  0.00    -0.307 OA
HETATM   15  H   UNK N   1      33.777  16.669  10.128  0.00  0.00     0.222 HD
ENDBRANCH  10  14
ENDBRANCH   9  10
ENDBRANCH   8   9
ENDBRANCH   5   8
BRANCH   4  16
HETATM   16  C   UNK N   1      29.617  17.957   9.678  0.00  0.00     0.273 C 
HETATM   17  O   UNK N   1      29.725  19.006  10.295  0.00  0.00    -0.301 OA
ENDBRANCH   4  16
BRANCH   3  18
HETATM   18  O   UNK N   1      27.478  19.123   8.321  0.00  0.00    -0.358 OA
HETATM   19  H   UNK N   1      27.645  19.365   9.210  0.00  0.00     0.217 HD
ENDBRANCH   3  18
BRANCH   7  20
HETATM   20  O   UNK N   1      29.201  17.928   4.094  0.00  0.00    -0.283 OA
ATOM     21  HO  UNK N   1      29.792  17.379   3.592  1.00  0.00     0.245 HD
ENDBRANCH   7  20
TORSDOF 8
ENDMDL
MODEL 3
REMARK VINA RESULT:      -5.3     18.030     19.266
REMARK  8 active torsions:
REMARK  status: ('A' for Active; 'I' for Inactive)
REMARK    1  A    between atoms: C_3  and  O_4 
REMARK    2  A    between atoms: C_5  and  C_6 
REMARK    3  A    between atoms: C_8  and  C_9 
REMARK    4  A    between atoms: C_9  and  O_10 
REMARK    5  A    between atoms: O_10  and  P_11 
REMARK    6  A    between atoms: P_11  and  O_12 
REMARK    7  A    between atoms: P_11  and  O_13 
REMARK    8  A    between atoms: N_16  and  O_17 
ROOT
HETATM    1  C   UNK N   1      25.429  22.812  -7.880  0.00  0.00     0.074 C 
HETATM    2  C   UNK N   1      26.561  23.008  -6.918  0.00  0.00     0.070 A 
HETATM    3  C   UNK N   1      26.369  23.789  -5.770  0.00  0.00     0.104 A 
HETATM    4  C   UNK N   1      27.426  23.966  -4.863  0.00  0.00     0.046 A 
HETATM    5  C   UNK N   1      28.660  23.328  -5.122  0.00  0.00     0.000 A 
HETATM    6  C   UNK N   1      28.806  22.570  -6.286  0.00  0.00     0.133 A 
HETATM    7  N   UNK N   1      27.773  22.428  -7.162  0.00  0.00    -0.237 N 
ENDROOT
BRANCH   5   8
HETATM    8  C   UNK N   1      29.790  23.377  -4.144  0.00  0.00     0.221 C 
BRANCH   8   9
HETATM    9  O   UNK N   1      30.076  22.123  -3.602  0.00  0.00    -0.292 OA
BRANCH   9  10
HETATM   10  P   UNK N   1      31.805  22.147  -3.406  0.00  0.00     0.391 P 
HETATM   11  O   UNK N   1      31.551  20.656  -3.762  0.00  0.00    -0.632 OA
BRANCH  10  12
HETATM   12  O   UNK N   1      32.561  21.300  -2.095  0.00  0.00    -0.307 OA
HETATM   13  H   UNK N   1      33.227  20.596  -2.140  0.00  0.00     0.222 HD
ENDBRANCH  10  12
BRANCH  10  14
HETATM   14  O   UNK N   1      31.031  22.534  -1.902  0.00  0.00    -0.307 OA
HETATM   15  H   UNK N   1      31.199  22.225  -0.998  0.00  0.00     0.222 HD
ENDBRANCH  10  14
ENDBRANCH   9  10
ENDBRANCH   8   9
ENDBRANCH   5   8
BRANCH   4  16
HETATM   16  C   UNK N   1      27.194  24.814  -3.667  0.00  0.00     0.273 C 
HETATM   17  O   UNK N   1      26.610  24.402  -2.677  0.00  0.00    -0.301 OA
ENDBRANCH   4  16
BRANCH   3  18
HETATM   18  O   UNK N   1      25.173  24.363  -5.534  0.00  0.00    -0.358 OA
HETATM   19  H   UNK N   1      25.014  24.834  -4.740  0.00  0.00     0.217 HD
ENDBRANCH   3  18
BRANCH   7  20
HETATM   20  O   UNK N   1      27.956  21.698  -8.257  0.00  0.00    -0.283 OA
ATOM     21  HO  UNK N   1      27.349  20.991  -8.443  1.00  0.00     0.245 HD
ENDBRANCH   7  20
TORSDOF 8
ENDMDL
MODEL 4
REMARK VINA RESULT:      -5.2     18.073     19.461
REMARK  8 active torsions:
REMARK  status: ('A' for Active; 'I' for Inactive)
REMARK    1  A    between atoms: C_3  and  O_4 
REMARK    2  A    between atoms: C_5  and  C_6 
REMARK    3  A    between atoms: C_8  and  C_9 
REMARK    4  A    between atoms: C_9  and  O_10 
REMARK    5  A    between atoms: O_10  and  P_11 
REMARK    6  A    between atoms: P_11  and  O_12 
REMARK    7  A    between atoms: P_11  and  O_13 
REMARK    8  A    between atoms: N_16  and  O_17 
ROOT
HETATM    1  C   UNK N   1      24.746  26.928  -5.609  0.00  0.00     0.074 C 
HETATM    2  C   UNK N   1      25.793  25.908  -5.283  0.00  0.00     0.070 A 
HETATM    3  C   UNK N   1      26.060  24.873  -6.190  0.00  0.00     0.104 A 
HETATM    4  C   UNK N   1      27.048  23.921  -5.890  0.00  0.00     0.046 A 
HETATM    5  C   UNK N   1      27.768  24.044  -4.680  0.00  0.00     0.000 A 
HETATM    6  C   UNK N   1      27.457  25.086  -3.804  0.00  0.00     0.133 A 
HETATM    7  N   UNK N   1      26.481  25.987  -4.106  0.00  0.00    -0.237 N 
ENDROOT
BRANCH   5   8
HETATM    8  C   UNK N   1      28.910  23.137  -4.351  0.00  0.00     0.221 C 
BRANCH   8   9
HETATM    9  O   UNK N   1      29.348  23.295  -3.035  0.00  0.00    -0.292 OA
BRANCH   9  10
HETATM   10  P   UNK N   1      31.047  22.924  -3.123  0.00  0.00     0.391 P 
HETATM   11  O   UNK N   1      30.416  21.653  -3.755  0.00  0.00    -0.632 OA
BRANCH  10  12
HETATM   12  O   UNK N   1      31.726  21.641  -2.174  0.00  0.00    -0.307 OA
HETATM   13  H   UNK N   1      32.238  21.707  -1.354  0.00  0.00     0.222 HD
ENDBRANCH  10  12
BRANCH  10  14
HETATM   14  O   UNK N   1      30.555  23.064  -1.465  0.00  0.00    -0.307 OA
HETATM   15  H   UNK N   1      29.755  23.438  -1.064  0.00  0.00     0.222 HD
ENDBRANCH  10  14
ENDBRANCH   9  10
ENDBRANCH   8   9
ENDBRANCH   5   8
BRANCH   4  16
HETATM   16  C   UNK N   1      27.292  22.827  -6.864  0.00  0.00     0.273 C 
HETATM   17  O   UNK N   1      27.460  23.039  -8.055  0.00  0.00    -0.301 OA
ENDBRANCH   4  16
BRANCH   3  18
HETATM   18  O   UNK N   1      25.376  24.795  -7.349  0.00  0.00    -0.358 OA
HETATM   19  H   UNK N   1      25.360  24.001  -7.844  0.00  0.00     0.217 HD
ENDBRANCH   3  18
BRANCH   7  20
HETATM   20  O   UNK N   1      26.219  26.962  -3.242  0.00  0.00    -0.283 OA
ATOM     21  HO  UNK N   1      26.416  26.825  -2.323  1.00  0.00     0.245 HD
ENDBRANCH   7  20
TORSDOF 8
ENDMDL
MODEL 5
REMARK VINA RESULT:      -5.1     18.466     20.219
REMARK  8 active torsions:
REMARK  status: ('A' for Active; 'I' for Inactive)
REMARK    1  A    between atoms: C_3  and  O_4 
REMARK    2  A    between atoms: C_5  and  C_6 
REMARK    3  A    between atoms: C_8  and  C_9 
REMARK    4  A    between atoms: C_9  and  O_10 
REMARK    5  A    between atoms: O_10  and  P_11 
REMARK    6  A    between atoms: P_11  and  O_12 
REMARK    7  A    between atoms: P_11  and  O_13 
REMARK    8  A    between atoms: N_16  and  O_17 
ROOT
HETATM    1  C   UNK N   1      26.718  29.348  -3.541  0.00  0.00     0.074 C 
HETATM    2  C   UNK N   1      26.758  28.075  -4.329  0.00  0.00     0.070 A 
HETATM    3  C   UNK N   1      26.429  26.863  -3.707  0.00  0.00     0.104 A 
HETATM    4  C   UNK N   1      26.457  25.670  -4.447  0.00  0.00     0.046 A 
HETATM    5  C   UNK N   1      26.796  25.726  -5.817  0.00  0.00     0.000 A 
HETATM    6  C   UNK N   1      27.127  26.956  -6.389  0.00  0.00     0.133 A 
HETATM    7  N   UNK N   1      27.113  28.099  -5.648  0.00  0.00    -0.237 N 
ENDROOT
BRANCH   5   8
HETATM    8  C   UNK N   1      26.732  24.514  -6.692  0.00  0.00     0.221 C 
BRANCH   8   9
HETATM    9  O   UNK N   1      25.473  24.344  -7.269  0.00  0.00    -0.292 OA
BRANCH   9  10
HETATM   10  P   UNK N   1      25.641  22.878  -8.192  0.00  0.00     0.391 P 
HETATM   11  O   UNK N   1      24.556  23.637  -9.005  0.00  0.00    -0.632 OA
BRANCH  10  12
HETATM   12  O   UNK N   1      24.344  21.729  -8.277  0.00  0.00    -0.307 OA
HETATM   13  H   UNK N   1      23.563  21.663  -7.707  0.00  0.00     0.222 HD
ENDBRANCH  10  12
BRANCH  10  14
HETATM   14  O   UNK N   1      25.042  22.515  -6.605  0.00  0.00    -0.307 OA
HETATM   15  H   UNK N   1      24.328  22.914  -6.083  0.00  0.00     0.222 HD
ENDBRANCH  10  14
ENDBRANCH   9  10
ENDBRANCH   8   9
ENDBRANCH   5   8
BRANCH   4  16
HETATM   16  C   UNK N   1      26.122  24.401  -3.752  0.00  0.00     0.273 C 
HETATM   17  O   UNK N   1      26.746  24.004  -2.781  0.00  0.00    -0.301 OA
ENDBRANCH   4  16
BRANCH   3  18
HETATM   18  O   UNK N   1      26.083  26.843  -2.405  0.00  0.00    -0.358 OA
HETATM   19  H   UNK N   1      25.362  26.324  -2.108  0.00  0.00     0.217 HD
ENDBRANCH   3  18
BRANCH   7  20
HETATM   20  O   UNK N   1      27.435  29.247  -6.233  0.00  0.00    -0.283 OA
ATOM     21  HO  UNK N   1      27.563  30.017  -5.691  1.00  0.00     0.245 HD
ENDBRANCH   7  20
TORSDOF 8
ENDMDL
MODEL 6
REMARK VINA RESULT:      -5.0     17.602     18.313
REMARK  8 active torsions:
REMARK  status: ('A' for Active; 'I' for Inactive)
REMARK    1  A    between atoms: C_3  and  O_4 
REMARK    2  A    between atoms: C_5  and  C_6 
REMARK    3  A    between atoms: C_8  and  C_9 
REMARK    4  A    between atoms: C_9  and  O_10 
REMARK    5  A    between atoms: O_10  and  P_11 
REMARK    6  A    between atoms: P_11  and  O_12 
REMARK    7  A    between atoms: P_11  and  O_13 
REMARK    8  A    between atoms: N_16  and  O_17 
ROOT
HETATM    1  C   UNK N   1      32.812  19.468  -4.373  0.00  0.00     0.074 C 
HETATM    2  C   UNK N   1      31.780  20.546  -4.501  0.00  0.00     0.070 A 
HETATM    3  C   UNK N   1      31.591  21.455  -3.451  0.00  0.00     0.104 A 
HETATM    4  C   UNK N   1      30.630  22.472  -3.573  0.00  0.00     0.046 A 
HETATM    5  C   UNK N   1      29.888  22.567  -4.771  0.00  0.00     0.000 A 
HETATM    6  C   UNK N   1      30.104  21.631  -5.785  0.00  0.00     0.133 A 
HETATM    7  N   UNK N   1      31.027  20.640  -5.637  0.00  0.00    -0.237 N 
ENDROOT
BRANCH   5   8
HETATM    8  C   UNK N   1      28.934  23.692  -5.017  0.00  0.00     0.221 C 
BRANCH   8   9
HETATM    9  O   UNK N   1      27.750  23.550  -4.291  0.00  0.00    -0.292 OA
BRANCH   9  10
HETATM   10  P   UNK N   1      26.729  24.810  -4.924  0.00  0.00     0.391 P 
HETATM   11  O   UNK N   1      26.071  24.537  -3.543  0.00  0.00    -0.632 OA
BRANCH  10  12
HETATM   12  O   UNK N   1      25.075  24.488  -5.337  0.00  0.00    -0.307 OA
HETATM   13  H   UNK N   1      24.663  24.498  -6.215  0.00  0.00     0.222 HD
ENDBRANCH  10  12
BRANCH  10  14
HETATM   14  O   UNK N   1      26.613  23.395  -5.921  0.00  0.00    -0.307 OA
HETATM   15  H   UNK N   1      26.967  23.203  -6.803  0.00  0.00     0.222 HD
ENDBRANCH  10  14
ENDBRANCH   9  10
ENDBRANCH   8   9
ENDBRANCH   5   8
BRANCH   4  16
HETATM   16  C   UNK N   1      30.443  23.406  -2.434  0.00  0.00     0.273 C 
HETATM   17  O   UNK N   1      30.328  23.016  -1.282  0.00  0.00    -0.301 OA
ENDBRANCH   4  16
BRANCH   3  18
HETATM   18  O   UNK N   1      32.333  21.357  -2.330  0.00  0.00    -0.358 OA
HETATM   19  H   UNK N   1      33.138  21.827  -2.245  0.00  0.00     0.217 HD
ENDBRANCH   3  18
BRANCH   7  20
HETATM   20  O   UNK N   1      31.199  19.771  -6.627  0.00  0.00    -0.283 OA
ATOM     21  HO  UNK N   1      30.910  20.009  -7.501  1.00  0.00     0.245 HD
ENDBRANCH   7  20
TORSDOF 8
ENDMDL
MODEL 7
REMARK VINA RESULT:      -5.0     18.115     20.112
REMARK  8 active torsions:
REMARK  status: ('A' for Active; 'I' for Inactive)
REMARK    1  A    between atoms: C_3  and  O_4 
REMARK    2  A    between atoms: C_5  and  C_6 
REMARK    3  A    between atoms: C_8  and  C_9 
REMARK    4  A    between atoms: C_9  and  O_10 
REMARK    5  A    between atoms: O_10  and  P_11 
REMARK    6  A    between atoms: P_11  and  O_12 
REMARK    7  A    between atoms: P_11  and  O_13 
REMARK    8  A    between atoms: N_16  and  O_17 
ROOT
HETATM    1  C   UNK N   1      27.019  29.533  -4.637  0.00  0.00     0.074 C 
HETATM    2  C   UNK N   1      27.759  28.241  -4.471  0.00  0.00     0.070 A 
HETATM    3  C   UNK N   1      27.049  27.062  -4.209  0.00  0.00     0.104 A 
HETATM    4  C   UNK N   1      27.741  25.849  -4.063  0.00  0.00     0.046 A 
HETATM    5  C   UNK N   1      29.146  25.845  -4.207  0.00  0.00     0.000 A 
HETATM    6  C   UNK N   1      29.810  27.048  -4.456  0.00  0.00     0.133 A 
HETATM    7  N   UNK N   1      29.121  28.216  -4.575  0.00  0.00    -0.237 N 
ENDROOT
BRANCH   5   8
HETATM    8  C   UNK N   1      29.934  24.574  -4.180  0.00  0.00     0.221 C 
BRANCH   8   9
HETATM    9  O   UNK N   1      30.472  24.311  -2.919  0.00  0.00    -0.292 OA
BRANCH   9  10
HETATM   10  P   UNK N   1      30.436  22.574  -2.813  0.00  0.00     0.391 P 
HETATM   11  O   UNK N   1      30.483  22.979  -1.314  0.00  0.00    -0.632 OA
BRANCH  10  12
HETATM   12  O   UNK N   1      31.805  21.693  -2.216  0.00  0.00    -0.307 OA
HETATM   13  H   UNK N   1      31.825  21.006  -1.531  0.00  0.00     0.222 HD
ENDBRANCH  10  12
BRANCH  10  14
HETATM   14  O   UNK N   1      31.889  23.090  -3.609  0.00  0.00    -0.307 OA
HETATM   15  H   UNK N   1      32.037  23.464  -4.492  0.00  0.00     0.222 HD
ENDBRANCH  10  14
ENDBRANCH   9  10
ENDBRANCH   8   9
ENDBRANCH   5   8
BRANCH   4  16
HETATM   16  C   UNK N   1      26.958  24.622  -3.767  0.00  0.00     0.273 C 
HETATM   17  O   UNK N   1      26.823  24.191  -2.632  0.00  0.00    -0.301 OA
ENDBRANCH   4  16
BRANCH   3  18
HETATM   18  O   UNK N   1      25.706  27.091  -4.103  0.00  0.00    -0.358 OA
HETATM   19  H   UNK N   1      25.291  27.132  -3.265  0.00  0.00     0.217 HD
ENDBRANCH   3  18
BRANCH   7  20
HETATM   20  O   UNK N   1      29.794  29.337  -4.812  0.00  0.00    -0.283 OA
ATOM     21  HO  UNK N   1      29.334  30.167  -4.763  1.00  0.00     0.245 HD
ENDBRANCH   7  20
TORSDOF 8
ENDMDL
MODEL 8
REMARK VINA RESULT:      -5.0     11.873     12.529
REMARK  8 active torsions:
REMARK  status: ('A' for Active; 'I' for Inactive)
REMARK    1  A    between atoms: C_3  and  O_4 
REMARK    2  A    between atoms: C_5  and  C_6 
REMARK    3  A    between atoms: C_8  and  C_9 
REMARK    4  A    between atoms: C_9  and  O_10 
REMARK    5  A    between atoms: O_10  and  P_11 
REMARK    6  A    between atoms: P_11  and  O_12 
REMARK    7  A    between atoms: P_11  and  O_13 
REMARK    8  A    between atoms: N_16  and  O_17 
ROOT
HETATM    1  C   UNK N   1      35.071  14.548  11.187  0.00  0.00     0.074 C 
HETATM    2  C   UNK N   1      34.761  15.090   9.826  0.00  0.00     0.070 A 
HETATM    3  C   UNK N   1      34.728  16.476   9.621  0.00  0.00     0.104 A 
HETATM    4  C   UNK N   1      34.446  16.985   8.343  0.00  0.00     0.046 A 
HETATM    5  C   UNK N   1      34.223  16.079   7.282  0.00  0.00     0.000 A 
HETATM    6  C   UNK N   1      34.255  14.706   7.539  0.00  0.00     0.133 A 
HETATM    7  N   UNK N   1      34.511  14.234   8.790  0.00  0.00    -0.237 N 
ENDROOT
BRANCH   5   8
HETATM    8  C   UNK N   1      34.034  16.549   5.875  0.00  0.00     0.221 C 
BRANCH   8   9
HETATM    9  O   UNK N   1      32.719  16.390   5.436  0.00  0.00    -0.292 OA
BRANCH   9  10
HETATM   10  P   UNK N   1      32.565  17.574   4.170  0.00  0.00     0.391 P 
HETATM   11  O   UNK N   1      31.082  17.365   4.585  0.00  0.00    -0.632 OA
BRANCH  10  12
HETATM   12  O   UNK N   1      31.794  17.173   2.669  0.00  0.00    -0.307 OA
HETATM   13  H   UNK N   1      32.198  17.087   1.791  0.00  0.00     0.222 HD
ENDBRANCH  10  12
BRANCH  10  14
HETATM   14  O   UNK N   1      33.211  16.098   3.527  0.00  0.00    -0.307 OA
HETATM   15  H   UNK N   1      32.812  15.416   2.966  0.00  0.00     0.222 HD
ENDBRANCH  10  14
ENDBRANCH   9  10
ENDBRANCH   8   9
ENDBRANCH   5   8
BRANCH   4  16
HETATM   16  C   UNK N   1      34.401  18.459   8.166  0.00  0.00     0.273 C 
HETATM   17  O   UNK N   1      35.328  19.184   8.490  0.00  0.00    -0.301 OA
ENDBRANCH   4  16
BRANCH   3  18
HETATM   18  O   UNK N   1      34.971  17.317  10.645  0.00  0.00    -0.358 OA
HETATM   19  H   UNK N   1      35.523  17.060  11.356  0.00  0.00     0.217 HD
ENDBRANCH   3  18
BRANCH   7  20
HETATM   20  O   UNK N   1      34.531  12.921   8.988  0.00  0.00    -0.283 OA
ATOM     21  HO  UNK N   1      33.861  12.385   8.579  1.00  0.00     0.245 HD
ENDBRANCH   7  20
TORSDOF 8
ENDMDL
MODEL 9
REMARK VINA RESULT:      -5.0     13.796     15.957
REMARK  8 active torsions:
REMARK  status: ('A' for Active; 'I' for Inactive)
REMARK    1  A    between atoms: C_3  and  O_4 
REMARK    2  A    between atoms: C_5  and  C_6 
REMARK    3  A    between atoms: C_8  and  C_9 
REMARK    4  A    between atoms: C_9  and  O_10 
REMARK    5  A    between atoms: O_10  and  P_11 
REMARK    6  A    between atoms: P_11  and  O_12 
REMARK    7  A    between atoms: P_11  and  O_13 
REMARK    8  A    between atoms: N_16  and  O_17 
ROOT
HETATM    1  C   UNK N   1      35.939  14.710  12.348  0.00  0.00     0.074 C 
HETATM    2  C   UNK N   1      35.854  13.905  13.608  0.00  0.00     0.070 A 
HETATM    3  C   UNK N   1      35.082  12.736  13.634  0.00  0.00     0.104 A 
HETATM    4  C   UNK N   1      35.008  11.975  14.813  0.00  0.00     0.046 A 
HETATM    5  C   UNK N   1      35.739  12.401  15.944  0.00  0.00     0.000 A 
HETATM    6  C   UNK N   1      36.485  13.579  15.872  0.00  0.00     0.133 A 
HETATM    7  N   UNK N   1      36.526  14.312  14.725  0.00  0.00    -0.237 N 
ENDROOT
BRANCH   5   8
HETATM    8  C   UNK N   1      35.801  11.579  17.193  0.00  0.00     0.221 C 
BRANCH   8   9
HETATM    9  O   UNK N   1      35.215  12.227  18.282  0.00  0.00    -0.292 OA
BRANCH   9  10
HETATM   10  P   UNK N   1      35.718  11.269  19.646  0.00  0.00     0.391 P 
HETATM   11  O   UNK N   1      34.585  10.391  19.047  0.00  0.00    -0.632 OA
BRANCH  10  12
HETATM   12  O   UNK N   1      34.660  11.026  20.998  0.00  0.00    -0.307 OA
HETATM   13  H   UNK N   1      34.323  10.189  21.354  0.00  0.00     0.222 HD
ENDBRANCH  10  12
BRANCH  10  14
HETATM   14  O   UNK N   1      35.066  12.782  20.190  0.00  0.00    -0.307 OA
HETATM   15  H   UNK N   1      35.500  13.612  20.442  0.00  0.00     0.222 HD
ENDBRANCH  10  14
ENDBRANCH   9  10
ENDBRANCH   8   9
ENDBRANCH   5   8
BRANCH   4  16
HETATM   16  C   UNK N   1      34.166  10.752  14.811  0.00  0.00     0.273 C 
HETATM   17  O   UNK N   1      32.973  10.781  14.553  0.00  0.00    -0.301 OA
ENDBRANCH   4  16
BRANCH   3  18
HETATM   18  O   UNK N   1      34.416  12.340  12.531  0.00  0.00    -0.358 OA
HETATM   19  H   UNK N   1      33.615  12.754  12.280  0.00  0.00     0.217 HD
ENDBRANCH   3  18
BRANCH   7  20
HETATM   20  O   UNK N   1      37.248  15.427  14.702  0.00  0.00    -0.283 OA
ATOM     21  HO  UNK N   1      37.778  15.645  15.460  1.00  0.00     0.245 HD
ENDBRANCH   7  20
TORSDOF 8
ENDMDL
