REMARK  21 active torsions:
REMARK  status: ('A' for Active; 'I' for Inactive)
REMARK    1  A    between atoms: O_2  and  C_3 
REMARK    2  A    between atoms: C_6  and  C_7 
REMARK    3  A    between atoms: C_7  and  C_8 
REMARK    4  A    between atoms: C_8  and  N_9 
REMARK    5  A    between atoms: C_8  and  C_17 
REMARK       I    between atoms: N_9  and  C_10 
REMARK    6  A    between atoms: C_10  and  C_12 
REMARK    7  A    between atoms: C_12  and  C_13 
REMARK    8  A    between atoms: C_13  and  N_16 
REMARK       I    between atoms: C_17  and  N_19 
REMARK    9  A    between atoms: C_20  and  N_19 
REMARK   10  A    between atoms: C_20  and  C_21 
REMARK   11  A    between atoms: C_20  and  C_28 
REMARK   12  A    between atoms: C_21  and  C_22 
REMARK       I    between atoms: C_28  and  N_30 
REMARK   13  A    between atoms: C_31  and  N_30 
REMARK   14  A    between atoms: C_31  and  C_32 
REMARK   15  A    between atoms: C_31  and  C_39 
REMARK   16  A    between atoms: C_32  and  C_33 
REMARK   17  A    between atoms: C_39  and  O_40 
REMARK   18  A    between atoms: C_39  and  C_41 
REMARK   19  A    between atoms: C_41  and  O_42 
REMARK   20  A    between atoms: C_41  and  C_43 
REMARK   21  A    between atoms: C_43  and  C_44 
ROOT
HETATM    1  C   UNK N   1       9.776  -4.993   0.546  0.00  0.00     0.182 C 
ENDROOT
BRANCH   1   2
HETATM    2  N   UNK N   1       8.645  -4.083   0.502  0.00  0.00    -0.346 N 
HETATM    3  C   UNK N   1       7.842  -3.970  -0.583  0.00  0.00     0.241 C 
HETATM    4  O   UNK N   1       8.160  -4.479  -1.649  0.00  0.00    -0.271 OA
HETATM    5  H   UNK N   1       8.454  -3.527   1.292  0.00  0.00     0.163 HD
BRANCH   3   6
HETATM    6  C   UNK N   1       6.480  -3.360  -0.420  0.00  0.00     0.180 C 
BRANCH   6   7
HETATM    7  C   UNK N   1       6.270  -2.179  -1.360  0.00  0.00     0.073 C 
BRANCH   7   8
HETATM    8  C   UNK N   1       7.170  -1.073  -0.913  0.00  0.00    -0.056 A 
HETATM    9  C   UNK N   1       8.271  -0.714  -1.695  0.00  0.00     0.010 A 
HETATM   10  C   UNK N   1       9.178   0.240  -1.226  0.00  0.00     0.037 A 
HETATM   11  C   UNK N   1       8.990   0.839   0.034  0.00  0.00     0.068 A 
HETATM   12  C   UNK N   1       7.877   0.486   0.803  0.00  0.00     0.037 A 
HETATM   13  C   UNK N   1       6.973  -0.469   0.335  0.00  0.00     0.010 A 
BRANCH  11  14
HETATM   14  O   UNK N   1       9.868   1.742   0.529  0.00  0.00    -0.356 OA
HETATM   15  C   UNK N   1      11.022   2.108  -0.126  0.00  0.00     0.210 C 
ENDBRANCH  11  14
ENDBRANCH   7   8
ENDBRANCH   6   7
BRANCH   6  16
HETATM   16  N   UNK N   1       5.505  -4.410  -0.616  0.00  0.00    -0.347 N 
HETATM   17  C   UNK N   1       5.228  -5.287   0.387  0.00  0.00     0.220 C 
HETATM   18  O   UNK N   1       5.682  -5.106   1.508  0.00  0.00    -0.274 OA
HETATM   19  H   UNK N   1       5.038  -4.491  -1.479  0.00  0.00     0.163 HD
BRANCH  17  20
HETATM   20  C   UNK N   1       4.465  -6.552   0.115  0.00  0.00     0.132 C 
BRANCH  20  21
HETATM   21  C   UNK N   1       3.016  -6.384  -0.318  0.00  0.00     0.024 C 
HETATM   22  C   UNK N   1       2.405  -7.764  -0.438  0.00  0.00     0.038 C 
HETATM   23  C   UNK N   1       2.925  -5.696  -1.666  0.00  0.00     0.038 C 
BRANCH  21  24
HETATM   24  N   UNK N   1       2.278  -5.625   0.676  0.00  0.00    -0.422 N 
HETATM   25  H   UNK N   1       2.480  -4.910   1.374  0.00  0.00     0.150 HD
HETATM   26  H   UNK N   1       1.289  -5.875   0.676  0.00  0.00     0.150 HD
ENDBRANCH  21  24
ENDBRANCH  20  21
ENDBRANCH  17  20
ENDBRANCH   6  16
ENDBRANCH   3   6
ENDBRANCH   1   2
BRANCH   1  27
HETATM   27  C   UNK N   1      10.591  -4.653   1.788  0.00  0.00     0.093 C 
BRANCH  27  28
HETATM   28  C   UNK N   1      11.404  -3.418   1.527  0.00  0.00     0.028 A 
HETATM   29  C   UNK N   1      12.762  -3.303   1.691  0.00  0.00     0.114 A 
HETATM   30  N   UNK N   1      13.118  -2.064   1.302  0.00  0.00    -0.360 N 
HETATM   31  C   UNK N   1      11.979  -1.455   0.913  0.00  0.00     0.180 A 
ATOM     32  HN  UNK N   1      14.058  -1.667   1.302  1.00  0.00     0.166 HD
HETATM   33  N   UNK N   1      10.910  -2.266   1.044  0.00  0.00    -0.354 N 
HETATM   34  H   UNK N   1       9.971  -2.058   0.831  0.00  0.00     0.166 HD
ENDBRANCH  27  28
ENDBRANCH   1  27
BRANCH   1  35
HETATM   35  C   UNK N   1       9.234  -6.419   0.558  0.00  0.00     0.241 C 
HETATM   36  O   UNK N   1       8.026  -6.583   0.466  0.00  0.00    -0.271 OA
HETATM   37  N   UNK N   1       9.994  -7.532   0.648  0.00  0.00    -0.352 N 
HETATM   38  H   UNK N   1       9.481  -8.369   0.564  0.00  0.00     0.163 HD
BRANCH  37  39
HETATM   39  C   UNK N   1      11.413  -7.738   0.845  0.00  0.00     0.116 C 
BRANCH  39  40
HETATM   40  C   UNK N   1      11.595  -9.248   1.015  0.00  0.00     0.032 C 
BRANCH  40  41
HETATM   41  C   UNK N   1      10.965 -10.027  -0.151  0.00  0.00    -0.013 C 
HETATM   42  C   UNK N   1      12.021 -10.647  -1.066  0.00  0.00     0.005 C 
HETATM   43  C   UNK N   1      12.717 -11.818  -0.377  0.00  0.00     0.000 C 
HETATM   44  C   UNK N   1      11.688 -12.866   0.039  0.00  0.00     0.000 C 
HETATM   45  C   UNK N   1      10.668 -12.254   0.994  0.00  0.00     0.000 C 
HETATM   46  C   UNK N   1       9.960 -11.077   0.327  0.00  0.00     0.005 C 
ENDBRANCH  40  41
ENDBRANCH  39  40
BRANCH  39  47
HETATM   47  C   UNK N   1      12.325  -7.269  -0.295  0.00  0.00     0.169 C 
BRANCH  47  48
HETATM   48  O   UNK N   1      11.853  -7.527  -1.585  0.00  0.00    -0.391 OA
HETATM   49  H   UNK N   1      11.534  -7.332  -2.481  0.00  0.00     0.210 HD
ENDBRANCH  47  48
BRANCH  47  50
HETATM   50  C   UNK N   1      13.003  -5.921  -0.128  0.00  0.00     0.149 C 
BRANCH  50  51
HETATM   51  O   UNK N   1      12.416  -4.965  -0.960  0.00  0.00    -0.393 OA
HETATM   52  H   UNK N   1      12.788  -4.280  -1.538  0.00  0.00     0.210 HD
ENDBRANCH  50  51
BRANCH  50  53
HETATM   53  C   UNK N   1      14.488  -6.067  -0.439  0.00  0.00     0.038 C 
BRANCH  53  54
HETATM   54  C   UNK N   1      15.295  -4.880   0.066  0.00  0.00    -0.020 C 
HETATM   55  C   UNK N   1      15.187  -3.713  -0.896  0.00  0.00     0.009 C 
HETATM   56  C   UNK N   1      16.751  -5.278   0.194  0.00  0.00     0.009 C 
ENDBRANCH  53  54
ENDBRANCH  50  53
ENDBRANCH  47  50
ENDBRANCH  39  47
ENDBRANCH  37  39
ENDBRANCH   1  35
TORSDOF 21
