REMARK  27 active torsions:
REMARK  status: ('A' for Active; 'I' for Inactive)
REMARK    1  A    between atoms: C_7  and  C_3 
REMARK    2  A    between atoms: O_47  and  C_3 
REMARK    3  A    between atoms: C_8  and  C_4 
REMARK    4  A    between atoms: O_48  and  C_4 
REMARK    5  A    between atoms: O_31  and  C_9 
REMARK    6  A    between atoms: C_11  and  O_32 
REMARK    7  A    between atoms: C_12  and  O_33 
REMARK    8  A    between atoms: C_13  and  O_34 
REMARK    9  A    between atoms: C_14  and  O_35 
REMARK   10  A    between atoms: N_20  and  C_15 
REMARK   11  A    between atoms: C_17  and  N_29 
REMARK   12  A    between atoms: C_18  and  N_30 
REMARK   13  A    between atoms: P_55  and  O_37 
REMARK   14  A    between atoms: P_56  and  O_39 
REMARK   15  A    between atoms: P_57  and  O_41 
REMARK   16  A    between atoms: P_58  and  O_43 
REMARK   17  A    between atoms: P_59  and  O_45 
REMARK   18  A    between atoms: P_55  and  O_47 
REMARK   19  A    between atoms: P_56  and  O_48 
REMARK   20  A    between atoms: P_55  and  O_51 
REMARK   21  A    between atoms: P_57  and  O_51 
REMARK   22  A    between atoms: P_56  and  O_52 
REMARK   23  A    between atoms: P_58  and  O_52 
REMARK   24  A    between atoms: P_57  and  O_53 
REMARK   25  A    between atoms: P_59  and  O_53 
REMARK   26  A    between atoms: P_58  and  O_54 
REMARK   27  A    between atoms: P_59  and  O_54 
ROOT
HETATM    1  O   UNK N   1      -3.307  -4.288  -0.049  0.00  0.00    -0.195 OA
ENDROOT
BRANCH   1   2
HETATM    2  P   UNK N   1      -3.434  -3.158  -1.337  0.00  0.00     0.410 P 
HETATM    3  O   UNK N   1      -2.153  -2.548  -1.963  0.00  0.00    -0.631 OA
BRANCH   2   4
HETATM    4  O   UNK N   1      -4.727  -2.013  -1.223  0.00  0.00    -0.307 OA
HETATM    5  H   UNK N   1      -4.534  -1.064  -1.160  0.00  0.00     0.222 HD
ENDBRANCH   2   4
BRANCH   2   6
HETATM    6  O   UNK N   1      -2.700  -2.583   0.166  0.00  0.00    -0.195 OA
BRANCH   6   7
HETATM    7  P   UNK N   1      -3.034  -0.960   0.710  0.00  0.00     0.401 P 
HETATM    8  O   UNK N   1      -2.488  -0.959   2.163  0.00  0.00    -0.631 OA
BRANCH   7   9
HETATM    9  O   UNK N   1      -4.715  -0.555   0.882  0.00  0.00    -0.307 OA
HETATM   10  H   UNK N   1      -4.989   0.370   0.977  0.00  0.00     0.222 HD
ENDBRANCH   7   9
BRANCH   7  11
HETATM   11  O   UNK N   1      -2.061   0.196  -0.143  0.00  0.00    -0.294 OA
BRANCH  11  12
HETATM   12  C   UNK N   1      -0.948  -0.544  -0.567  0.00  0.00     0.215 C 
BRANCH  12  13
HETATM   13  C   UNK N   1       0.263  -0.232   0.284  0.00  0.00     0.180 C 
HETATM   14  C   UNK N   1       1.496  -1.127   0.033  0.00  0.00     0.182 C 
HETATM   15  C   UNK N   1       2.617  -0.110  -0.208  0.00  0.00     0.198 C 
HETATM   16  C   UNK N   1       1.992   1.134   0.413  0.00  0.00     0.262 C 
HETATM   17  O   UNK N   1       0.640   1.090   0.050  0.00  0.00    -0.353 OA
BRANCH  14  18
HETATM   18  O   UNK N   1       1.347  -1.998  -1.054  0.00  0.00    -0.390 OA
HETATM   19  H   UNK N   1       0.774  -2.210  -1.807  0.00  0.00     0.210 HD
ENDBRANCH  14  18
BRANCH  15  20
HETATM   20  O   UNK N   1       2.799   0.088  -1.579  0.00  0.00    -0.388 OA
HETATM   21  H   UNK N   1       2.982   0.048  -2.531  0.00  0.00     0.210 HD
ENDBRANCH  15  20
BRANCH  16  22
HETATM   22  N   UNK N   1       2.531   2.444   0.030  0.00  0.00    -0.297 N 
HETATM   23  C   UNK N   1       1.747   3.526  -0.234  0.00  0.00     0.188 A 
HETATM   24  N   UNK N   1       2.483   4.657  -0.384  0.00  0.00    -0.346 N 
HETATM   25  C   UNK N   1       3.749   4.249  -0.208  0.00  0.00     0.122 A 
ATOM     26  HN  UNK N   1       2.150   5.600  -0.584  1.00  0.00     0.167 HD
HETATM   27  C   UNK N   1       4.912   4.991  -0.201  0.00  0.00     0.131 A 
HETATM   28  C   UNK N   1       3.783   2.919   0.027  0.00  0.00     0.142 A 
HETATM   29  N   UNK N   1       6.089   4.331   0.010  0.00  0.00    -0.337 N 
HETATM   30  C   UNK N   1       6.108   2.970   0.220  0.00  0.00     0.183 A 
ATOM     31  HN  UNK N   1       6.965   4.852   0.012  1.00  0.00     0.168 HD
HETATM   32  N   UNK N   1       4.939   2.252   0.250  0.00  0.00    -0.336 N 
ATOM     33  HN  UNK N   1       4.942   1.248   0.433  1.00  0.00     0.168 HD
BRANCH  27  34
HETATM   34  N   UNK N   1       4.887   6.391  -0.372  0.00  0.00    -0.383 N 
HETATM   35  H   UNK N   1       5.725   6.895  -0.491  0.00  0.00     0.157 HD
HETATM   36  H   UNK N   1       4.026   6.868  -0.372  0.00  0.00     0.157 HD
ENDBRANCH  27  34
ENDBRANCH  16  22
ENDBRANCH  12  13
ENDBRANCH  11  12
ENDBRANCH   7  11
ENDBRANCH   6   7
ENDBRANCH   2   6
ENDBRANCH   1   2
BRANCH   1  37
HETATM   37  P   UNK N   1      -2.631  -5.756  -0.628  0.00  0.00     0.410 P 
HETATM   38  O   UNK N   1      -1.625  -5.495  -1.781  0.00  0.00    -0.631 OA
BRANCH  37  39
HETATM   39  O   UNK N   1      -3.972  -6.707  -1.189  0.00  0.00    -0.307 OA
HETATM   40  H   UNK N   1      -4.807  -6.323  -1.502  0.00  0.00     0.222 HD
ENDBRANCH  37  39
BRANCH  37  41
HETATM   41  O   UNK N   1      -1.747  -6.383   0.792  0.00  0.00    -0.195 OA
BRANCH  41  42
HETATM   42  P   UNK N   1      -1.549  -8.138   0.847  0.00  0.00     0.410 P 
HETATM   43  O   UNK N   1      -0.659  -7.696  -0.342  0.00  0.00    -0.631 OA
BRANCH  42  44
HETATM   44  O   UNK N   1      -3.224  -7.722   1.085  0.00  0.00    -0.307 OA
HETATM   45  H   UNK N   1      -3.490  -6.799   1.218  0.00  0.00     0.222 HD
ENDBRANCH  42  44
BRANCH  42  46
HETATM   46  O   UNK N   1      -2.329  -8.884  -0.527  0.00  0.00    -0.195 OA
BRANCH  46  47
HETATM   47  P   UNK N   1      -2.155 -10.612  -0.324  0.00  0.00     0.401 P 
HETATM   48  O   UNK N   1      -0.647 -10.935  -0.132  0.00  0.00    -0.631 OA
BRANCH  47  49
HETATM   49  O   UNK N   1      -2.674 -11.452  -1.752  0.00  0.00    -0.307 OA
HETATM   50  H   UNK N   1      -3.226 -11.435  -2.550  0.00  0.00     0.222 HD
ENDBRANCH  47  49
BRANCH  47  51
HETATM   51  O   UNK N   1      -3.018 -11.174   1.076  0.00  0.00    -0.294 OA
BRANCH  51  52
HETATM   52  C   UNK N   1      -3.920 -10.138   1.336  0.00  0.00     0.215 C 
BRANCH  52  53
HETATM   53  C   UNK N   1      -5.345 -10.520   1.089  0.00  0.00     0.180 C 
HETATM   54  C   UNK N   1      -6.332  -9.573   0.367  0.00  0.00     0.182 C 
HETATM   55  C   UNK N   1      -7.326 -10.588  -0.262  0.00  0.00     0.198 C 
HETATM   56  C   UNK N   1      -6.808 -11.897   0.349  0.00  0.00     0.263 C 
HETATM   57  O   UNK N   1      -5.423 -11.723   0.405  0.00  0.00    -0.353 OA
BRANCH  54  58
HETATM   58  O   UNK N   1      -5.710  -8.849  -0.655  0.00  0.00    -0.390 OA
HETATM   59  H   UNK N   1      -5.059  -8.972  -1.364  0.00  0.00     0.210 HD
ENDBRANCH  54  58
BRANCH  55  60
HETATM   60  O   UNK N   1      -8.648 -10.316   0.101  0.00  0.00    -0.388 OA
HETATM   61  H   UNK N   1      -8.943  -9.427   0.352  0.00  0.00     0.210 HD
ENDBRANCH  55  60
BRANCH  56  62
HETATM   62  N   UNK N   1      -7.129 -13.214  -0.205  0.00  0.00    -0.280 N 
HETATM   63  C   UNK N   1      -6.093 -14.036  -0.558  0.00  0.00     0.103 A 
HETATM   64  C   UNK N   1      -6.299 -15.387  -0.782  0.00  0.00     0.073 A 
HETATM   65  C   UNK N   1      -7.580 -15.896  -0.628  0.00  0.00     0.144 A 
HETATM   66  N   UNK N   1      -8.614 -15.065  -0.333  0.00  0.00    -0.289 N 
HETATM   67  C   UNK N   1      -8.403 -13.729  -0.125  0.00  0.00     0.330 A 
ATOM     68  HN  UNK N   1      -9.559 -15.441  -0.266  1.00  0.00     0.172 HD
HETATM   69  O   UNK N   1      -9.338 -13.020   0.215  0.00  0.00    -0.246 OA
BRANCH  65  70
HETATM   70  O   UNK N   1      -7.791 -17.215  -0.745  0.00  0.00    -0.346 OA
HETATM   71  H   UNK N   1      -8.663 -17.548  -0.827  0.00  0.00     0.219 HD
ENDBRANCH  65  70
ENDBRANCH  56  62
ENDBRANCH  52  53
ENDBRANCH  51  52
ENDBRANCH  47  51
ENDBRANCH  46  47
ENDBRANCH  42  46
ENDBRANCH  41  42
ENDBRANCH  37  41
ENDBRANCH   1  37
TORSDOF 27
