REMARK  12 active torsions:
REMARK  status: ('A' for Active; 'I' for Inactive)
REMARK    1  A    between atoms: C_3  and  C_1 
REMARK    2  A    between atoms: O_6  and  C_1 
REMARK    3  A    between atoms: C_4  and  C_2 
REMARK    4  A    between atoms: O_13  and  C_2 
REMARK    5  A    between atoms: C_5  and  C_3 
REMARK    6  A    between atoms: C_3  and  O_7 
REMARK    7  A    between atoms: C_5  and  C_4 
REMARK    8  A    between atoms: C_4  and  O_8 
REMARK    9  A    between atoms: C_5  and  O_9 
REMARK   10  A    between atoms: P_14  and  O_10 
REMARK   11  A    between atoms: P_14  and  O_11 
REMARK   12  A    between atoms: P_14  and  O_13 
ROOT
HETATM    1  C   UNK N   1       1.125  -0.749   0.390  0.00  0.00     0.173 C 
ENDROOT
BRANCH   1   2
HETATM    2  C   UNK N   1       2.416  -0.242  -0.243  0.00  0.00     0.214 C 
BRANCH   2   3
HETATM    3  O   UNK N   1       3.504  -0.701   0.507  0.00  0.00    -0.294 OA
BRANCH   3   4
HETATM    4  P   UNK N   1       4.950   0.003  -0.170  0.00  0.00     0.390 P 
HETATM    5  O   UNK N   1       4.601   1.336  -0.889  0.00  0.00    -0.632 OA
BRANCH   4   6
HETATM    6  O   UNK N   1       6.071   0.402   1.093  0.00  0.00    -0.307 OA
HETATM    7  H   UNK N   1       6.578  -0.029   1.798  0.00  0.00     0.222 HD
ENDBRANCH   4   6
BRANCH   4   8
HETATM    8  O   UNK N   1       5.694  -1.048  -1.334  0.00  0.00    -0.307 OA
HETATM    9  H   UNK N   1       5.393  -1.702  -1.984  0.00  0.00     0.222 HD
ENDBRANCH   4   8
ENDBRANCH   3   4
ENDBRANCH   2   3
ENDBRANCH   1   2
BRANCH   1  10
HETATM   10  C   UNK N   1      -0.123  -0.198  -0.329  0.00  0.00     0.179 C 
BRANCH  10  11
HETATM   11  C   UNK N   1      -1.429  -0.668   0.348  0.00  0.00     0.173 C 
BRANCH  11  12
HETATM   12  C   UNK N   1      -2.645  -0.079  -0.355  0.00  0.00     0.198 C 
BRANCH  12  13
HETATM   13  O   UNK N   1      -3.817  -0.484   0.287  0.00  0.00    -0.398 OA
HETATM   14  H   UNK N   1      -4.468   0.081   0.733  0.00  0.00     0.209 HD
ENDBRANCH  12  13
ENDBRANCH  11  12
BRANCH  11  15
HETATM   15  O   UNK N   1      -1.525  -2.063   0.312  0.00  0.00    -0.391 OA
HETATM   16  H   UNK N   1      -2.396  -2.489   0.287  0.00  0.00     0.210 HD
ENDBRANCH  11  15
ENDBRANCH  10  11
BRANCH  10  17
HETATM   17  O   UNK N   1      -0.080   1.201  -0.309  0.00  0.00    -0.390 OA
HETATM   18  H   UNK N   1       0.775   1.660  -0.295  0.00  0.00     0.210 HD
ENDBRANCH  10  17
ENDBRANCH   1  10
BRANCH   1  19
HETATM   19  O   UNK N   1       1.134  -2.147   0.349  0.00  0.00    -0.391 OA
HETATM   20  H   UNK N   1       0.297  -2.637   0.320  0.00  0.00     0.210 HD
ENDBRANCH   1  19
TORSDOF 12
