REMARK  5 active torsions:
REMARK  status: ('A' for Active; 'I' for Inactive)
REMARK    1  A    between atoms: C_8  and  C_4 
REMARK    2  A    between atoms: O_14  and  C_4 
REMARK    3  A    between atoms: C_7  and  C_5 
REMARK    4  A    between atoms: C_6  and  O_15 
REMARK    5  A    between atoms: O_16  and  C_9 
ROOT
HETATM    1  C   UNK N   1       5.592  -4.089   0.129  0.00  0.00     0.160 C 
HETATM    2  C   UNK N   1       3.394  -3.095  -0.070  0.00  0.00     0.109 A 
HETATM    3  C   UNK N   1       1.998  -3.164  -0.136  0.00  0.00     0.037 A 
HETATM    4  C   UNK N   1       1.399  -4.439  -0.111  0.00  0.00     0.154 A 
HETATM    5  C   UNK N   1       3.540  -5.454   0.073  0.00  0.00     0.328 A 
HETATM    6  N   UNK N   1       2.177  -5.548  -0.005  0.00  0.00    -0.288 N 
ATOM      7  HN  UNK N   1       1.737  -6.468   0.017  1.00  0.00     0.172 HD
HETATM    8  N   UNK N   1       4.145  -4.220   0.047  0.00  0.00    -0.313 N 
HETATM    9  O   UNK N   1       4.210  -6.471   0.156  0.00  0.00    -0.246 OA
ENDROOT
BRANCH   3  10
HETATM   10  C   UNK N   1       1.211  -1.889  -0.369  0.00  0.00     0.163 C 
HETATM   11  C   UNK N   1       1.769  -0.684   0.378  0.00  0.00     0.071 C 
HETATM   12  C   UNK N   1       0.621   0.257   0.208  0.00  0.00     0.152 C 
HETATM   13  C   UNK N   1      -0.528  -0.710   0.479  0.00  0.00     0.174 C 
HETATM   14  O   UNK N   1      -0.163  -1.977  -0.042  0.00  0.00    -0.371 OA
BRANCH  12  15
HETATM   15  O   UNK N   1       0.600   0.716  -1.116  0.00  0.00    -0.393 OA
HETATM   16  H   UNK N   1       0.868   0.888  -2.032  0.00  0.00     0.210 HD
ENDBRANCH  12  15
BRANCH  13  17
HETATM   17  C   UNK N   1      -1.847  -0.247  -0.136  0.00  0.00     0.198 C 
BRANCH  17  18
HETATM   18  O   UNK N   1      -2.198   1.021   0.328  0.00  0.00    -0.398 OA
HETATM   19  H   UNK N   1      -1.556   1.673   0.651  0.00  0.00     0.209 HD
ENDBRANCH  17  18
ENDBRANCH  13  17
ENDBRANCH   3  10
BRANCH   4  20
HETATM   20  O   UNK N   1       0.068  -4.582  -0.227  0.00  0.00    -0.345 OA
HETATM   21  H   UNK N   1      -0.483  -3.829  -0.309  0.00  0.00     0.219 HD
ENDBRANCH   4  20
TORSDOF 5
