MODEL 1
REMARK VINA RESULT:      -6.5      0.000      0.000
REMARK  31 active torsions:
REMARK  status: ('A' for Active; 'I' for Inactive)
REMARK    1  A    between atoms: C_5  and  C_3 
REMARK    2  A    between atoms: C_6  and  C_4 
REMARK    3  A    between atoms: C_17  and  C_5 
REMARK    4  A    between atoms: C_18  and  C_6 
REMARK    5  A    between atoms: C_15  and  C_13 
REMARK    6  A    between atoms: C_23  and  C_13 
REMARK    7  A    between atoms: C_16  and  C_14 
REMARK    8  A    between atoms: C_24  and  C_14 
REMARK    9  A    between atoms: C_25  and  C_15 
REMARK   10  A    between atoms: C_26  and  C_16 
REMARK   11  A    between atoms: C_29  and  C_17 
REMARK   12  A    between atoms: C_30  and  C_18 
REMARK   13  A    between atoms: C_33  and  C_23 
REMARK   14  A    between atoms: C_34  and  C_24 
REMARK   15  A    between atoms: N_39  and  C_25 
REMARK   16  A    between atoms: N_40  and  C_26 
REMARK   17  A    between atoms: C_29  and  C_27 
REMARK   18  A    between atoms: N_41  and  C_27 
REMARK   19  A    between atoms: C_30  and  C_28 
REMARK   20  A    between atoms: N_42  and  C_28 
REMARK   21  A    between atoms: C_29  and  C_35 
REMARK   22  A    between atoms: C_30  and  C_36 
REMARK   23  A    between atoms: N_43  and  C_31 
REMARK   24  A    between atoms: N_45  and  C_32 
REMARK   25  A    between atoms: C_37  and  C_33 
REMARK   26  A    between atoms: C_33  and  N_47 
REMARK   27  A    between atoms: C_38  and  C_34 
REMARK   28  A    between atoms: C_34  and  N_49 
REMARK   29  A    between atoms: C_35  and  O_51 
REMARK   30  A    between atoms: C_36  and  O_52 
REMARK   31  A    between atoms: N_42  and  N_41 
ROOT
HETATM    1  C   UNK N   1      20.319  15.020   8.271  0.00  0.00     0.139 C 
HETATM    2  N   UNK N   1      21.005  14.915   9.365  0.00  0.00    -0.339 N 
ATOM      3  HN  UNK N   1      20.983  15.689  10.029  1.00  0.00     0.168 HD
HETATM    4  O   UNK N   1      20.173  13.957   7.451  0.00  0.00    -0.348 OA
HETATM    5  H   UNK N   1      19.908  13.272   6.869  0.00  0.00     0.219 HD
ENDROOT
BRANCH   1   6
HETATM    6  C   UNK N   1      19.806  16.373   7.846  0.00  0.00     0.158 C 
BRANCH   6   7
HETATM    7  C   UNK N   1      18.355  16.733   8.218  0.00  0.00     0.033 C 
BRANCH   7   8
HETATM    8  C   UNK N   1      18.141  17.605   9.444  0.00  0.00     0.004 C 
BRANCH   8   9
HETATM    9  C   UNK N   1      19.314  18.567   9.579  0.00  0.00     0.019 C 
BRANCH   9  10
HETATM   10  C   UNK N   1      19.088  19.574  10.694  0.00  0.00     0.111 C 
BRANCH  10  11
HETATM   11  N   UNK N   1      17.687  19.574  11.073  0.00  0.00    -0.430 N 
HETATM   12  H   UNK N   1      16.730  19.887  10.910  0.00  0.00     0.149 HD
HETATM   13  H   UNK N   1      17.634  18.974  11.896  0.00  0.00     0.149 HD
ENDBRANCH  10  11
ENDBRANCH   9  10
ENDBRANCH   8   9
ENDBRANCH   7   8
ENDBRANCH   6   7
BRANCH   6  14
HETATM   14  N   UNK N   1      20.166  16.559   6.448  0.00  0.00    -0.362 N 
HETATM   15  C   UNK N   1      20.869  17.523   5.947  0.00  0.00     0.117 C 
ATOM     16  HN  UNK N   1      19.828  15.854   5.792  1.00  0.00     0.162 HD
BRANCH  15  17
HETATM   17  C   UNK N   1      20.913  17.726   4.446  0.00  0.00     0.079 C 
BRANCH  17  18
HETATM   18  C   UNK N   1      20.959  19.219   4.109  0.00  0.00     0.014 C 
BRANCH  18  19
HETATM   19  C   UNK N   1      22.275  19.594   3.448  0.00  0.00     0.000 C 
BRANCH  19  20
HETATM   20  C   UNK N   1      22.016  20.316   2.147  0.00  0.00    -0.005 C 
HETATM   21  C   UNK N   1      20.538  20.627   2.046  0.00  0.00     0.005 C 
ENDBRANCH  19  20
ENDBRANCH  18  19
ENDBRANCH  17  18
BRANCH  17  22
HETATM   22  C   UNK N   1      19.719  17.106   3.723  0.00  0.00     0.151 C 
BRANCH  22  23
HETATM   23  N   UNK N   1      19.947  16.911   2.292  0.00  0.00    -0.340 N 
HETATM   24  H   UNK N   1      20.349  17.607   1.664  0.00  0.00     0.179 HD
BRANCH  23  25
HETATM   25  N   UNK N   1      19.531  15.624   1.907  0.00  0.00    -0.340 N 
HETATM   26  H   UNK N   1      19.055  15.401   1.033  0.00  0.00     0.179 HD
BRANCH  25  27
HETATM   27  C   UNK N   1      19.882  14.652   2.942  0.00  0.00     0.151 C 
BRANCH  27  28
HETATM   28  C   UNK N   1      21.276  14.054   2.761  0.00  0.00     0.079 C 
BRANCH  28  29
HETATM   29  C   UNK N   1      21.837  14.536   1.420  0.00  0.00     0.014 C 
BRANCH  29  30
HETATM   30  C   UNK N   1      22.180  13.368   0.511  0.00  0.00     0.000 C 
BRANCH  30  31
HETATM   31  C   UNK N   1      23.647  13.402   0.153  0.00  0.00    -0.005 C 
HETATM   32  C   UNK N   1      24.386  12.409   1.024  0.00  0.00     0.005 C 
ENDBRANCH  30  31
ENDBRANCH  29  30
ENDBRANCH  28  29
BRANCH  28  33
HETATM   33  C   UNK N   1      22.224  14.403   3.888  0.00  0.00     0.117 C 
HETATM   34  N   UNK N   1      23.438  14.764   3.621  0.00  0.00    -0.362 N 
ATOM     35  HN  UNK N   1      23.643  14.989   2.648  1.00  0.00     0.162 HD
BRANCH  34  36
HETATM   36  C   UNK N   1      24.543  14.884   4.563  0.00  0.00     0.158 C 
BRANCH  36  37
HETATM   37  C   UNK N   1      25.724  13.923   4.334  0.00  0.00     0.033 C 
BRANCH  37  38
HETATM   38  C   UNK N   1      26.808  13.878   5.398  0.00  0.00     0.004 C 
BRANCH  38  39
HETATM   39  C   UNK N   1      28.158  13.681   4.723  0.00  0.00     0.019 C 
BRANCH  39  40
HETATM   40  C   UNK N   1      28.934  14.985   4.629  0.00  0.00     0.111 C 
BRANCH  40  41
HETATM   41  N   UNK N   1      30.308  14.707   4.252  0.00  0.00    -0.430 N 
HETATM   42  H   UNK N   1      31.096  14.061   4.207  0.00  0.00     0.149 HD
HETATM   43  H   UNK N   1      30.647  15.570   3.827  0.00  0.00     0.149 HD
ENDBRANCH  40  41
ENDBRANCH  39  40
ENDBRANCH  38  39
ENDBRANCH  37  38
ENDBRANCH  36  37
BRANCH  36  44
HETATM   44  C   UNK N   1      24.855  16.351   4.711  0.00  0.00     0.139 C 
HETATM   45  N   UNK N   1      25.805  16.873   4.001  0.00  0.00    -0.339 N 
ATOM     46  HN  UNK N   1      26.155  16.352   3.197  1.00  0.00     0.168 HD
HETATM   47  O   UNK N   1      24.239  17.077   5.668  0.00  0.00    -0.348 OA
HETATM   48  H   UNK N   1      23.668  17.509   6.273  0.00  0.00     0.219 HD
BRANCH  45  49
HETATM   49  C   UNK N   1      26.380  18.135   4.290  0.00  0.00     0.033 A 
HETATM   50  C   UNK N   1      27.265  18.285   5.364  0.00  0.00     0.029 A 
HETATM   51  C   UNK N   1      27.744  19.556   5.701  0.00  0.00     0.002 A 
HETATM   52  C   UNK N   1      27.309  20.683   4.995  0.00  0.00     0.000 A 
HETATM   53  C   UNK N   1      26.404  20.540   3.940  0.00  0.00     0.002 A 
HETATM   54  C   UNK N   1      25.944  19.271   3.588  0.00  0.00     0.029 A 
ENDBRANCH  45  49
ENDBRANCH  36  44
ENDBRANCH  34  36
BRANCH  33  55
HETATM   55  O   UNK N   1      21.813  14.229   5.161  0.00  0.00    -0.349 OA
HETATM   56  H   UNK N   1      21.701  14.749   5.933  0.00  0.00     0.219 HD
ENDBRANCH  33  55
ENDBRANCH  28  33
ENDBRANCH  27  28
ENDBRANCH  25  27
ENDBRANCH  23  25
ENDBRANCH  22  23
ENDBRANCH  17  22
ENDBRANCH  15  17
BRANCH  15  57
HETATM   57  O   UNK N   1      21.485  18.422   6.742  0.00  0.00    -0.349 OA
HETATM   58  H   UNK N   1      22.249  18.964   6.716  0.00  0.00     0.219 HD
ENDBRANCH  15  57
ENDBRANCH   6  14
ENDBRANCH   1   6
BRANCH   2  59
HETATM   59  C   UNK N   1      21.785  13.776   9.678  0.00  0.00     0.033 A 
HETATM   60  C   UNK N   1      21.351  12.857  10.640  0.00  0.00     0.029 A 
HETATM   61  C   UNK N   1      22.179  11.792  11.014  0.00  0.00     0.002 A 
HETATM   62  C   UNK N   1      23.458  11.667  10.459  0.00  0.00     0.000 A 
HETATM   63  C   UNK N   1      23.906  12.599   9.519  0.00  0.00     0.002 A 
HETATM   64  C   UNK N   1      23.072  13.647   9.130  0.00  0.00     0.029 A 
ENDBRANCH   2  59
TORSDOF 31
ENDMDL
MODEL 2
REMARK VINA RESULT:      -6.5      1.869      5.558
REMARK  31 active torsions:
REMARK  status: ('A' for Active; 'I' for Inactive)
REMARK    1  A    between atoms: C_5  and  C_3 
REMARK    2  A    between atoms: C_6  and  C_4 
REMARK    3  A    between atoms: C_17  and  C_5 
REMARK    4  A    between atoms: C_18  and  C_6 
REMARK    5  A    between atoms: C_15  and  C_13 
REMARK    6  A    between atoms: C_23  and  C_13 
REMARK    7  A    between atoms: C_16  and  C_14 
REMARK    8  A    between atoms: C_24  and  C_14 
REMARK    9  A    between atoms: C_25  and  C_15 
REMARK   10  A    between atoms: C_26  and  C_16 
REMARK   11  A    between atoms: C_29  and  C_17 
REMARK   12  A    between atoms: C_30  and  C_18 
REMARK   13  A    between atoms: C_33  and  C_23 
REMARK   14  A    between atoms: C_34  and  C_24 
REMARK   15  A    between atoms: N_39  and  C_25 
REMARK   16  A    between atoms: N_40  and  C_26 
REMARK   17  A    between atoms: C_29  and  C_27 
REMARK   18  A    between atoms: N_41  and  C_27 
REMARK   19  A    between atoms: C_30  and  C_28 
REMARK   20  A    between atoms: N_42  and  C_28 
REMARK   21  A    between atoms: C_29  and  C_35 
REMARK   22  A    between atoms: C_30  and  C_36 
REMARK   23  A    between atoms: N_43  and  C_31 
REMARK   24  A    between atoms: N_45  and  C_32 
REMARK   25  A    between atoms: C_37  and  C_33 
REMARK   26  A    between atoms: C_33  and  N_47 
REMARK   27  A    between atoms: C_38  and  C_34 
REMARK   28  A    between atoms: C_34  and  N_49 
REMARK   29  A    between atoms: C_35  and  O_51 
REMARK   30  A    between atoms: C_36  and  O_52 
REMARK   31  A    between atoms: N_42  and  N_41 
ROOT
HETATM    1  C   UNK N   1      21.278  13.838   7.394  0.00  0.00     0.139 C 
HETATM    2  N   UNK N   1      21.905  14.254   8.449  0.00  0.00    -0.339 N 
ATOM      3  HN  UNK N   1      21.989  15.258   8.601  1.00  0.00     0.168 HD
HETATM    4  O   UNK N   1      20.986  12.529   7.243  0.00  0.00    -0.348 OA
HETATM    5  H   UNK N   1      20.631  11.676   7.082  0.00  0.00     0.219 HD
ENDROOT
BRANCH   1   6
HETATM    6  C   UNK N   1      21.003  14.804   6.269  0.00  0.00     0.158 C 
BRANCH   6   7
HETATM    7  C   UNK N   1      19.533  15.159   5.977  0.00  0.00     0.033 C 
BRANCH   7   8
HETATM    8  C   UNK N   1      18.946  16.363   6.695  0.00  0.00     0.004 C 
BRANCH   8   9
HETATM    9  C   UNK N   1      20.076  17.155   7.339  0.00  0.00     0.019 C 
BRANCH   9  10
HETATM   10  C   UNK N   1      19.845  17.352   8.828  0.00  0.00     0.111 C 
BRANCH  10  11
HETATM   11  N   UNK N   1      18.493  17.832   9.051  0.00  0.00    -0.430 N 
HETATM   12  H   UNK N   1      17.655  17.868   9.631  0.00  0.00     0.149 HD
HETATM   13  H   UNK N   1      18.279  18.409   8.238  0.00  0.00     0.149 HD
ENDBRANCH  10  11
ENDBRANCH   9  10
ENDBRANCH   8   9
ENDBRANCH   7   8
ENDBRANCH   6   7
BRANCH   6  14
HETATM   14  N   UNK N   1      21.791  14.375   5.122  0.00  0.00    -0.362 N 
HETATM   15  C   UNK N   1      23.059  14.556   4.937  0.00  0.00     0.117 C 
ATOM     16  HN  UNK N   1      21.290  13.879   4.384  1.00  0.00     0.162 HD
BRANCH  15  17
HETATM   17  C   UNK N   1      23.668  14.306   3.573  0.00  0.00     0.079 C 
BRANCH  17  18
HETATM   18  C   UNK N   1      22.569  14.118   2.523  0.00  0.00     0.014 C 
BRANCH  18  19
HETATM   19  C   UNK N   1      23.146  14.101   1.118  0.00  0.00     0.000 C 
BRANCH  19  20
HETATM   20  C   UNK N   1      22.551  12.962   0.325  0.00  0.00    -0.005 C 
HETATM   21  C   UNK N   1      23.668  12.209  -0.364  0.00  0.00     0.005 C 
ENDBRANCH  19  20
ENDBRANCH  18  19
ENDBRANCH  17  18
BRANCH  17  22
HETATM   22  C   UNK N   1      24.580  13.081   3.539  0.00  0.00     0.151 C 
BRANCH  22  23
HETATM   23  N   UNK N   1      25.998  13.419   3.428  0.00  0.00    -0.340 N 
HETATM   24  H   UNK N   1      26.723  12.791   3.081  0.00  0.00     0.179 HD
BRANCH  23  25
HETATM   25  N   UNK N   1      26.217  14.736   3.870  0.00  0.00    -0.340 N 
HETATM   26  H   UNK N   1      25.488  15.378   4.179  0.00  0.00     0.179 HD
BRANCH  25  27
HETATM   27  C   UNK N   1      27.645  15.050   3.822  0.00  0.00     0.151 C 
BRANCH  27  28
HETATM   28  C   UNK N   1      28.053  16.154   4.797  0.00  0.00     0.079 C 
BRANCH  28  29
HETATM   29  C   UNK N   1      29.078  17.055   4.102  0.00  0.00     0.014 C 
BRANCH  29  30
HETATM   30  C   UNK N   1      30.459  16.900   4.716  0.00  0.00     0.000 C 
BRANCH  30  31
HETATM   31  C   UNK N   1      30.405  17.188   6.198  0.00  0.00    -0.005 C 
HETATM   32  C   UNK N   1      31.278  16.186   6.923  0.00  0.00     0.005 C 
ENDBRANCH  30  31
ENDBRANCH  29  30
ENDBRANCH  28  29
BRANCH  28  33
HETATM   33  C   UNK N   1      26.880  16.972   5.294  0.00  0.00     0.117 C 
HETATM   34  N   UNK N   1      26.488  18.008   4.627  0.00  0.00    -0.362 N 
ATOM     35  HN  UNK N   1      26.863  18.113   3.684  1.00  0.00     0.162 HD
BRANCH  34  36
HETATM   36  C   UNK N   1      25.566  19.042   5.077  0.00  0.00     0.158 C 
BRANCH  36  37
HETATM   37  C   UNK N   1      25.927  20.483   4.673  0.00  0.00     0.033 C 
BRANCH  37  38
HETATM   38  C   UNK N   1      26.927  21.227   5.543  0.00  0.00     0.004 C 
BRANCH  38  39
HETATM   39  C   UNK N   1      26.813  20.717   6.973  0.00  0.00     0.019 C 
BRANCH  39  40
HETATM   40  C   UNK N   1      27.971  19.802   7.336  0.00  0.00     0.111 C 
BRANCH  40  41
HETATM   41  N   UNK N   1      27.565  18.904   8.403  0.00  0.00    -0.430 N 
HETATM   42  H   UNK N   1      27.635  18.600   9.373  0.00  0.00     0.149 HD
HETATM   43  H   UNK N   1      26.878  18.281   7.978  0.00  0.00     0.149 HD
ENDBRANCH  40  41
ENDBRANCH  39  40
ENDBRANCH  38  39
ENDBRANCH  37  38
ENDBRANCH  36  37
BRANCH  36  44
HETATM   44  C   UNK N   1      24.167  18.564   4.779  0.00  0.00     0.139 C 
HETATM   45  N   UNK N   1      23.582  18.952   3.690  0.00  0.00    -0.339 N 
ATOM     46  HN  UNK N   1      24.150  19.368   2.953  1.00  0.00     0.168 HD
HETATM   47  O   UNK N   1      23.491  17.847   5.701  0.00  0.00    -0.348 OA
HETATM   48  H   UNK N   1      23.165  17.257   6.353  0.00  0.00     0.219 HD
BRANCH  45  49
HETATM   49  C   UNK N   1      22.187  18.825   3.478  0.00  0.00     0.033 A 
HETATM   50  C   UNK N   1      21.586  17.562   3.431  0.00  0.00     0.029 A 
HETATM   51  C   UNK N   1      20.226  17.447   3.119  0.00  0.00     0.002 A 
HETATM   52  C   UNK N   1      19.475  18.587   2.812  0.00  0.00     0.000 A 
HETATM   53  C   UNK N   1      20.079  19.847   2.832  0.00  0.00     0.002 A 
HETATM   54  C   UNK N   1      21.428  19.965   3.165  0.00  0.00     0.029 A 
ENDBRANCH  45  49
ENDBRANCH  36  44
ENDBRANCH  34  36
BRANCH  33  55
HETATM   55  O   UNK N   1      26.332  16.662   6.487  0.00  0.00    -0.349 OA
HETATM   56  H   UNK N   1      25.486  16.448   6.828  0.00  0.00     0.219 HD
ENDBRANCH  33  55
ENDBRANCH  28  33
ENDBRANCH  27  28
ENDBRANCH  25  27
ENDBRANCH  23  25
ENDBRANCH  22  23
ENDBRANCH  17  22
ENDBRANCH  15  17
BRANCH  15  57
HETATM   57  O   UNK N   1      23.839  15.067   5.912  0.00  0.00    -0.349 OA
HETATM   58  H   UNK N   1      24.195  15.899   6.152  0.00  0.00     0.219 HD
ENDBRANCH  15  57
ENDBRANCH   6  14
ENDBRANCH   1   6
BRANCH   2  59
HETATM   59  C   UNK N   1      22.481  13.375   9.397  0.00  0.00     0.033 A 
HETATM   60  C   UNK N   1      21.731  12.904  10.481  0.00  0.00     0.029 A 
HETATM   61  C   UNK N   1      22.341  12.119  11.466  0.00  0.00     0.002 A 
HETATM   62  C   UNK N   1      23.710  11.839  11.394  0.00  0.00     0.000 A 
HETATM   63  C   UNK N   1      24.469  12.331  10.329  0.00  0.00     0.002 A 
HETATM   64  C   UNK N   1      23.856  13.094   9.335  0.00  0.00     0.029 A 
ENDBRANCH   2  59
TORSDOF 31
ENDMDL
MODEL 3
REMARK VINA RESULT:      -6.3      2.508      4.443
REMARK  31 active torsions:
REMARK  status: ('A' for Active; 'I' for Inactive)
REMARK    1  A    between atoms: C_5  and  C_3 
REMARK    2  A    between atoms: C_6  and  C_4 
REMARK    3  A    between atoms: C_17  and  C_5 
REMARK    4  A    between atoms: C_18  and  C_6 
REMARK    5  A    between atoms: C_15  and  C_13 
REMARK    6  A    between atoms: C_23  and  C_13 
REMARK    7  A    between atoms: C_16  and  C_14 
REMARK    8  A    between atoms: C_24  and  C_14 
REMARK    9  A    between atoms: C_25  and  C_15 
REMARK   10  A    between atoms: C_26  and  C_16 
REMARK   11  A    between atoms: C_29  and  C_17 
REMARK   12  A    between atoms: C_30  and  C_18 
REMARK   13  A    between atoms: C_33  and  C_23 
REMARK   14  A    between atoms: C_34  and  C_24 
REMARK   15  A    between atoms: N_39  and  C_25 
REMARK   16  A    between atoms: N_40  and  C_26 
REMARK   17  A    between atoms: C_29  and  C_27 
REMARK   18  A    between atoms: N_41  and  C_27 
REMARK   19  A    between atoms: C_30  and  C_28 
REMARK   20  A    between atoms: N_42  and  C_28 
REMARK   21  A    between atoms: C_29  and  C_35 
REMARK   22  A    between atoms: C_30  and  C_36 
REMARK   23  A    between atoms: N_43  and  C_31 
REMARK   24  A    between atoms: N_45  and  C_32 
REMARK   25  A    between atoms: C_37  and  C_33 
REMARK   26  A    between atoms: C_33  and  N_47 
REMARK   27  A    between atoms: C_38  and  C_34 
REMARK   28  A    between atoms: C_34  and  N_49 
REMARK   29  A    between atoms: C_35  and  O_51 
REMARK   30  A    between atoms: C_36  and  O_52 
REMARK   31  A    between atoms: N_42  and  N_41 
ROOT
HETATM    1  C   UNK N   1      20.300  14.918   8.075  0.00  0.00     0.139 C 
HETATM    2  N   UNK N   1      20.966  14.871   9.185  0.00  0.00    -0.339 N 
ATOM      3  HN  UNK N   1      20.894  15.658   9.830  1.00  0.00     0.168 HD
HETATM    4  O   UNK N   1      20.219  13.832   7.278  0.00  0.00    -0.348 OA
HETATM    5  H   UNK N   1      19.999  13.121   6.708  0.00  0.00     0.219 HD
ENDROOT
BRANCH   1   6
HETATM    6  C   UNK N   1      19.738  16.237   7.606  0.00  0.00     0.158 C 
BRANCH   6   7
HETATM    7  C   UNK N   1      18.206  16.377   7.547  0.00  0.00     0.033 C 
BRANCH   7   8
HETATM    8  C   UNK N   1      17.526  17.134   8.677  0.00  0.00     0.004 C 
BRANCH   8   9
HETATM    9  C   UNK N   1      18.591  17.810   9.529  0.00  0.00     0.019 C 
BRANCH   9  10
HETATM   10  C   UNK N   1      17.973  18.640  10.643  0.00  0.00     0.111 C 
BRANCH  10  11
HETATM   11  N   UNK N   1      18.834  19.769  10.943  0.00  0.00    -0.430 N 
HETATM   12  H   UNK N   1      19.551  20.433  10.649  0.00  0.00     0.149 HD
HETATM   13  H   UNK N   1      18.620  20.018  11.908  0.00  0.00     0.149 HD
ENDBRANCH  10  11
ENDBRANCH   9  10
ENDBRANCH   8   9
ENDBRANCH   7   8
ENDBRANCH   6   7
BRANCH   6  14
HETATM   14  N   UNK N   1      20.455  16.613   6.395  0.00  0.00    -0.362 N 
HETATM   15  C   UNK N   1      20.984  17.765   6.130  0.00  0.00     0.117 C 
ATOM     16  HN  UNK N   1      20.551  15.893   5.680  1.00  0.00     0.162 HD
BRANCH  15  17
HETATM   17  C   UNK N   1      21.440  18.080   4.721  0.00  0.00     0.079 C 
BRANCH  17  18
HETATM   18  C   UNK N   1      20.468  17.487   3.698  0.00  0.00     0.014 C 
BRANCH  18  19
HETATM   19  C   UNK N   1      21.197  16.630   2.677  0.00  0.00     0.000 C 
BRANCH  19  20
HETATM   20  C   UNK N   1      20.311  15.494   2.225  0.00  0.00    -0.005 C 
HETATM   21  C   UNK N   1      20.028  15.653   0.747  0.00  0.00     0.005 C 
ENDBRANCH  19  20
ENDBRANCH  18  19
ENDBRANCH  17  18
BRANCH  17  22
HETATM   22  C   UNK N   1      22.842  17.555   4.413  0.00  0.00     0.151 C 
BRANCH  22  23
HETATM   23  N   UNK N   1      23.755  17.641   5.552  0.00  0.00    -0.340 N 
HETATM   24  H   UNK N   1      23.934  18.486   6.095  0.00  0.00     0.179 HD
BRANCH  23  25
HETATM   25  N   UNK N   1      24.349  16.389   5.791  0.00  0.00    -0.340 N 
HETATM   26  H   UNK N   1      24.726  16.082   6.687  0.00  0.00     0.179 HD
BRANCH  25  27
HETATM   27  C   UNK N   1      24.347  15.590   4.566  0.00  0.00     0.151 C 
BRANCH  27  28
HETATM   28  C   UNK N   1      25.734  15.440   3.941  0.00  0.00     0.079 C 
BRANCH  28  29
HETATM   29  C   UNK N   1      25.560  15.103   2.458  0.00  0.00     0.014 C 
BRANCH  29  30
HETATM   30  C   UNK N   1      24.184  14.522   2.178  0.00  0.00     0.000 C 
BRANCH  30  31
HETATM   31  C   UNK N   1      24.025  14.251   0.701  0.00  0.00    -0.005 C 
HETATM   32  C   UNK N   1      22.887  13.272   0.503  0.00  0.00     0.005 C 
ENDBRANCH  30  31
ENDBRANCH  29  30
ENDBRANCH  28  29
BRANCH  28  33
HETATM   33  C   UNK N   1      26.597  16.672   4.107  0.00  0.00     0.117 C 
HETATM   34  N   UNK N   1      27.586  16.658   4.942  0.00  0.00    -0.362 N 
ATOM     35  HN  UNK N   1      27.862  15.747   5.307  1.00  0.00     0.162 HD
BRANCH  34  36
HETATM   36  C   UNK N   1      28.348  17.806   5.415  0.00  0.00     0.158 C 
BRANCH  36  37
HETATM   37  C   UNK N   1      27.618  18.730   6.407  0.00  0.00     0.033 C 
BRANCH  37  38
HETATM   38  C   UNK N   1      28.150  20.145   6.569  0.00  0.00     0.004 C 
BRANCH  38  39
HETATM   39  C   UNK N   1      27.265  21.101   5.781  0.00  0.00     0.019 C 
BRANCH  39  40
HETATM   40  C   UNK N   1      25.873  20.529   5.569  0.00  0.00     0.111 C 
BRANCH  40  41
HETATM   41  N   UNK N   1      25.565  20.514   4.150  0.00  0.00    -0.430 N 
HETATM   42  H   UNK N   1      25.776  20.191   3.206  0.00  0.00     0.149 HD
HETATM   43  H   UNK N   1      24.745  21.111   4.050  0.00  0.00     0.149 HD
ENDBRANCH  40  41
ENDBRANCH  39  40
ENDBRANCH  38  39
ENDBRANCH  37  38
ENDBRANCH  36  37
BRANCH  36  44
HETATM   44  C   UNK N   1      29.719  17.312   5.802  0.00  0.00     0.139 C 
HETATM   45  N   UNK N   1      29.903  16.809   6.982  0.00  0.00    -0.339 N 
ATOM     46  HN  UNK N   1      29.086  16.538   7.529  1.00  0.00     0.168 HD
HETATM   47  O   UNK N   1      30.765  17.516   4.974  0.00  0.00    -0.348 OA
HETATM   48  H   UNK N   1      31.387  17.596   4.277  0.00  0.00     0.219 HD
BRANCH  45  49
HETATM   49  C   UNK N   1      31.189  16.618   7.546  0.00  0.00     0.033 A 
HETATM   50  C   UNK N   1      31.892  17.696   8.095  0.00  0.00     0.029 A 
HETATM   51  C   UNK N   1      33.202  17.513   8.555  0.00  0.00     0.002 A 
HETATM   52  C   UNK N   1      33.825  16.266   8.429  0.00  0.00     0.000 A 
HETATM   53  C   UNK N   1      33.134  15.195   7.857  0.00  0.00     0.002 A 
HETATM   54  C   UNK N   1      31.821  15.370   7.419  0.00  0.00     0.029 A 
ENDBRANCH  45  49
ENDBRANCH  36  44
ENDBRANCH  34  36
BRANCH  33  55
HETATM   55  O   UNK N   1      26.251  17.800   3.455  0.00  0.00    -0.349 OA
HETATM   56  H   UNK N   1      26.360  18.725   3.560  0.00  0.00     0.219 HD
ENDBRANCH  33  55
ENDBRANCH  28  33
ENDBRANCH  27  28
ENDBRANCH  25  27
ENDBRANCH  23  25
ENDBRANCH  22  23
ENDBRANCH  17  22
ENDBRANCH  15  17
BRANCH  15  57
HETATM   57  O   UNK N   1      21.042  18.736   7.064  0.00  0.00    -0.349 OA
HETATM   58  H   UNK N   1      20.556  19.004   7.819  0.00  0.00     0.219 HD
ENDBRANCH  15  57
ENDBRANCH   6  14
ENDBRANCH   1   6
BRANCH   2  59
HETATM   59  C   UNK N   1      21.788  13.776   9.543  0.00  0.00     0.033 A 
HETATM   60  C   UNK N   1      21.371  12.859  10.515  0.00  0.00     0.029 A 
HETATM   61  C   UNK N   1      22.235  11.840  10.933  0.00  0.00     0.002 A 
HETATM   62  C   UNK N   1      23.533  11.762  10.413  0.00  0.00     0.000 A 
HETATM   63  C   UNK N   1      23.962  12.692   9.464  0.00  0.00     0.002 A 
HETATM   64  C   UNK N   1      23.092  13.693   9.030  0.00  0.00     0.029 A 
ENDBRANCH   2  59
TORSDOF 31
ENDMDL
MODEL 4
REMARK VINA RESULT:      -6.3      2.044      5.068
REMARK  31 active torsions:
REMARK  status: ('A' for Active; 'I' for Inactive)
REMARK    1  A    between atoms: C_5  and  C_3 
REMARK    2  A    between atoms: C_6  and  C_4 
REMARK    3  A    between atoms: C_17  and  C_5 
REMARK    4  A    between atoms: C_18  and  C_6 
REMARK    5  A    between atoms: C_15  and  C_13 
REMARK    6  A    between atoms: C_23  and  C_13 
REMARK    7  A    between atoms: C_16  and  C_14 
REMARK    8  A    between atoms: C_24  and  C_14 
REMARK    9  A    between atoms: C_25  and  C_15 
REMARK   10  A    between atoms: C_26  and  C_16 
REMARK   11  A    between atoms: C_29  and  C_17 
REMARK   12  A    between atoms: C_30  and  C_18 
REMARK   13  A    between atoms: C_33  and  C_23 
REMARK   14  A    between atoms: C_34  and  C_24 
REMARK   15  A    between atoms: N_39  and  C_25 
REMARK   16  A    between atoms: N_40  and  C_26 
REMARK   17  A    between atoms: C_29  and  C_27 
REMARK   18  A    between atoms: N_41  and  C_27 
REMARK   19  A    between atoms: C_30  and  C_28 
REMARK   20  A    between atoms: N_42  and  C_28 
REMARK   21  A    between atoms: C_29  and  C_35 
REMARK   22  A    between atoms: C_30  and  C_36 
REMARK   23  A    between atoms: N_43  and  C_31 
REMARK   24  A    between atoms: N_45  and  C_32 
REMARK   25  A    between atoms: C_37  and  C_33 
REMARK   26  A    between atoms: C_33  and  N_47 
REMARK   27  A    between atoms: C_38  and  C_34 
REMARK   28  A    between atoms: C_34  and  N_49 
REMARK   29  A    between atoms: C_35  and  O_51 
REMARK   30  A    between atoms: C_36  and  O_52 
REMARK   31  A    between atoms: N_42  and  N_41 
ROOT
HETATM    1  C   UNK N   1      20.384  15.073   8.442  0.00  0.00     0.139 C 
HETATM    2  N   UNK N   1      21.146  14.940   9.481  0.00  0.00    -0.339 N 
ATOM      3  HN  UNK N   1      21.251  15.734  10.113  1.00  0.00     0.168 HD
HETATM    4  O   UNK N   1      20.072  14.003   7.681  0.00  0.00    -0.348 OA
HETATM    5  H   UNK N   1      19.698  13.327   7.150  0.00  0.00     0.219 HD
ENDROOT
BRANCH   1   6
HETATM    6  C   UNK N   1      19.966  16.455   8.004  0.00  0.00     0.158 C 
BRANCH   6   7
HETATM    7  C   UNK N   1      18.477  16.824   8.139  0.00  0.00     0.033 C 
BRANCH   7   8
HETATM    8  C   UNK N   1      17.836  16.669   9.509  0.00  0.00     0.004 C 
BRANCH   8   9
HETATM    9  C   UNK N   1      16.978  17.893   9.795  0.00  0.00     0.019 C 
BRANCH   9  10
HETATM   10  C   UNK N   1      17.450  18.631  11.037  0.00  0.00     0.111 C 
BRANCH  10  11
HETATM   11  N   UNK N   1      18.576  19.482  10.698  0.00  0.00    -0.430 N 
HETATM   12  H   UNK N   1      19.295  20.148  10.982  0.00  0.00     0.149 HD
HETATM   13  H   UNK N   1      18.716  19.352   9.696  0.00  0.00     0.149 HD
ENDBRANCH  10  11
ENDBRANCH   9  10
ENDBRANCH   8   9
ENDBRANCH   7   8
ENDBRANCH   6   7
BRANCH   6  14
HETATM   14  N   UNK N   1      20.563  16.700   6.699  0.00  0.00    -0.362 N 
HETATM   15  C   UNK N   1      21.021  17.825   6.252  0.00  0.00     0.117 C 
ATOM     16  HN  UNK N   1      20.629  15.899   6.069  1.00  0.00     0.162 HD
BRANCH  15  17
HETATM   17  C   UNK N   1      21.345  17.978   4.780  0.00  0.00     0.079 C 
BRANCH  17  18
HETATM   18  C   UNK N   1      20.394  17.129   3.931  0.00  0.00     0.014 C 
BRANCH  18  19
HETATM   19  C   UNK N   1      19.626  17.986   2.940  0.00  0.00     0.000 C 
BRANCH  19  20
HETATM   20  C   UNK N   1      20.183  17.798   1.549  0.00  0.00    -0.005 C 
HETATM   21  C   UNK N   1      20.391  16.320   1.301  0.00  0.00     0.005 C 
ENDBRANCH  19  20
ENDBRANCH  18  19
ENDBRANCH  17  18
BRANCH  17  22
HETATM   22  C   UNK N   1      22.779  17.580   4.438  0.00  0.00     0.151 C 
BRANCH  22  23
HETATM   23  N   UNK N   1      23.717  17.792   5.539  0.00  0.00    -0.340 N 
HETATM   24  H   UNK N   1      23.719  17.267   6.414  0.00  0.00     0.179 HD
BRANCH  23  25
HETATM   25  N   UNK N   1      24.616  18.824   5.218  0.00  0.00    -0.340 N 
HETATM   26  H   UNK N   1      24.931  19.547   5.863  0.00  0.00     0.179 HD
BRANCH  25  27
HETATM   27  C   UNK N   1      25.035  18.709   3.821  0.00  0.00     0.151 C 
BRANCH  27  28
HETATM   28  C   UNK N   1      26.526  18.970   3.613  0.00  0.00     0.079 C 
BRANCH  28  29
HETATM   29  C   UNK N   1      26.851  20.364   4.155  0.00  0.00     0.014 C 
BRANCH  29  30
HETATM   30  C   UNK N   1      28.068  20.337   5.064  0.00  0.00     0.000 C 
BRANCH  30  31
HETATM   31  C   UNK N   1      27.761  21.036   6.366  0.00  0.00    -0.005 C 
HETATM   32  C   UNK N   1      26.388  21.666   6.272  0.00  0.00     0.005 C 
ENDBRANCH  30  31
ENDBRANCH  29  30
ENDBRANCH  28  29
BRANCH  28  33
HETATM   33  C   UNK N   1      27.408  17.928   4.268  0.00  0.00     0.117 C 
HETATM   34  N   UNK N   1      28.529  17.594   3.715  0.00  0.00    -0.362 N 
ATOM     35  HN  UNK N   1      28.863  18.194   2.962  1.00  0.00     0.162 HD
BRANCH  34  36
HETATM   36  C   UNK N   1      29.366  16.450   4.053  0.00  0.00     0.158 C 
BRANCH  36  37
HETATM   37  C   UNK N   1      30.123  16.547   5.390  0.00  0.00     0.033 C 
BRANCH  37  38
HETATM   38  C   UNK N   1      31.611  16.853   5.333  0.00  0.00     0.004 C 
BRANCH  38  39
HETATM   39  C   UNK N   1      32.089  17.252   6.723  0.00  0.00     0.019 C 
BRANCH  39  40
HETATM   40  C   UNK N   1      32.115  16.062   7.668  0.00  0.00     0.111 C 
BRANCH  40  41
HETATM   41  N   UNK N   1      31.679  16.482   8.988  0.00  0.00    -0.430 N 
HETATM   42  H   UNK N   1      31.393  17.223   9.628  0.00  0.00     0.149 HD
HETATM   43  H   UNK N   1      31.639  15.625   9.540  0.00  0.00     0.149 HD
ENDBRANCH  40  41
ENDBRANCH  39  40
ENDBRANCH  38  39
ENDBRANCH  37  38
ENDBRANCH  36  37
BRANCH  36  44
HETATM   44  C   UNK N   1      28.555  15.205   3.800  0.00  0.00     0.139 C 
HETATM   45  N   UNK N   1      28.291  14.855   2.580  0.00  0.00    -0.339 N 
ATOM     46  HN  UNK N   1      28.827  15.282   1.824  1.00  0.00     0.168 HD
HETATM   47  O   UNK N   1      28.003  14.539   4.836  0.00  0.00    -0.348 OA
HETATM   48  H   UNK N   1      27.775  14.090   5.627  0.00  0.00     0.219 HD
BRANCH  45  49
HETATM   49  C   UNK N   1      27.292  13.908   2.249  0.00  0.00     0.033 A 
HETATM   50  C   UNK N   1      27.640  12.596   1.906  0.00  0.00     0.029 A 
HETATM   51  C   UNK N   1      26.652  11.700   1.482  0.00  0.00     0.002 A 
HETATM   52  C   UNK N   1      25.323  12.123   1.359  0.00  0.00     0.000 A 
HETATM   53  C   UNK N   1      24.978  13.439   1.675  0.00  0.00     0.002 A 
HETATM   54  C   UNK N   1      25.957  14.327   2.119  0.00  0.00     0.029 A 
ENDBRANCH  45  49
ENDBRANCH  36  44
ENDBRANCH  34  36
BRANCH  33  55
HETATM   55  O   UNK N   1      26.955  17.290   5.366  0.00  0.00    -0.349 OA
HETATM   56  H   UNK N   1      26.178  16.842   5.638  0.00  0.00     0.219 HD
ENDBRANCH  33  55
ENDBRANCH  28  33
ENDBRANCH  27  28
ENDBRANCH  25  27
ENDBRANCH  23  25
ENDBRANCH  22  23
ENDBRANCH  17  22
ENDBRANCH  15  17
BRANCH  15  57
HETATM   57  O   UNK N   1      21.117  18.906   7.053  0.00  0.00    -0.349 OA
HETATM   58  H   UNK N   1      21.071  19.838   6.971  0.00  0.00     0.219 HD
ENDBRANCH  15  57
ENDBRANCH   6  14
ENDBRANCH   1   6
BRANCH   2  59
HETATM   59  C   UNK N   1      21.840  13.742   9.778  0.00  0.00     0.033 A 
HETATM   60  C   UNK N   1      21.346  12.851  10.738  0.00  0.00     0.029 A 
HETATM   61  C   UNK N   1      22.093  11.723  11.095  0.00  0.00     0.002 A 
HETATM   62  C   UNK N   1      23.354  11.506  10.527  0.00  0.00     0.000 A 
HETATM   63  C   UNK N   1      23.862  12.408   9.590  0.00  0.00     0.002 A 
HETATM   64  C   UNK N   1      23.107  13.520   9.216  0.00  0.00     0.029 A 
ENDBRANCH   2  59
TORSDOF 31
ENDMDL
MODEL 5
REMARK VINA RESULT:      -6.2      2.915      8.830
REMARK  31 active torsions:
REMARK  status: ('A' for Active; 'I' for Inactive)
REMARK    1  A    between atoms: C_5  and  C_3 
REMARK    2  A    between atoms: C_6  and  C_4 
REMARK    3  A    between atoms: C_17  and  C_5 
REMARK    4  A    between atoms: C_18  and  C_6 
REMARK    5  A    between atoms: C_15  and  C_13 
REMARK    6  A    between atoms: C_23  and  C_13 
REMARK    7  A    between atoms: C_16  and  C_14 
REMARK    8  A    between atoms: C_24  and  C_14 
REMARK    9  A    between atoms: C_25  and  C_15 
REMARK   10  A    between atoms: C_26  and  C_16 
REMARK   11  A    between atoms: C_29  and  C_17 
REMARK   12  A    between atoms: C_30  and  C_18 
REMARK   13  A    between atoms: C_33  and  C_23 
REMARK   14  A    between atoms: C_34  and  C_24 
REMARK   15  A    between atoms: N_39  and  C_25 
REMARK   16  A    between atoms: N_40  and  C_26 
REMARK   17  A    between atoms: C_29  and  C_27 
REMARK   18  A    between atoms: N_41  and  C_27 
REMARK   19  A    between atoms: C_30  and  C_28 
REMARK   20  A    between atoms: N_42  and  C_28 
REMARK   21  A    between atoms: C_29  and  C_35 
REMARK   22  A    between atoms: C_30  and  C_36 
REMARK   23  A    between atoms: N_43  and  C_31 
REMARK   24  A    between atoms: N_45  and  C_32 
REMARK   25  A    between atoms: C_37  and  C_33 
REMARK   26  A    between atoms: C_33  and  N_47 
REMARK   27  A    between atoms: C_38  and  C_34 
REMARK   28  A    between atoms: C_34  and  N_49 
REMARK   29  A    between atoms: C_35  and  O_51 
REMARK   30  A    between atoms: C_36  and  O_52 
REMARK   31  A    between atoms: N_42  and  N_41 
ROOT
HETATM    1  C   UNK N   1      27.091  18.546   6.422  0.00  0.00     0.139 C 
HETATM    2  N   UNK N   1      26.395  18.131   5.411  0.00  0.00    -0.339 N 
ATOM      3  HN  UNK N   1      26.368  17.131   5.216  1.00  0.00     0.168 HD
HETATM    4  O   UNK N   1      27.011  19.831   6.826  0.00  0.00    -0.348 OA
HETATM    5  H   UNK N   1      26.954  20.658   7.265  0.00  0.00     0.219 HD
ENDROOT
BRANCH   1   6
HETATM    6  C   UNK N   1      28.101  17.621   7.053  0.00  0.00     0.158 C 
BRANCH   6   7
HETATM    7  C   UNK N   1      28.532  17.918   8.501  0.00  0.00     0.033 C 
BRANCH   7   8
HETATM    8  C   UNK N   1      29.880  18.589   8.709  0.00  0.00     0.004 C 
BRANCH   8   9
HETATM    9  C   UNK N   1      30.919  17.522   9.030  0.00  0.00     0.019 C 
BRANCH   9  10
HETATM   10  C   UNK N   1      32.260  17.836   8.388  0.00  0.00     0.111 C 
BRANCH  10  11
HETATM   11  N   UNK N   1      33.315  17.143   9.104  0.00  0.00    -0.430 N 
HETATM   12  H   UNK N   1      34.227  17.158   9.562  0.00  0.00     0.149 HD
HETATM   13  H   UNK N   1      32.991  16.180   9.189  0.00  0.00     0.149 HD
ENDBRANCH  10  11
ENDBRANCH   9  10
ENDBRANCH   8   9
ENDBRANCH   7   8
ENDBRANCH   6   7
BRANCH   6  14
HETATM   14  N   UNK N   1      29.183  17.435   6.096  0.00  0.00    -0.362 N 
HETATM   15  C   UNK N   1      29.357  16.427   5.303  0.00  0.00     0.117 C 
ATOM     16  HN  UNK N   1      29.879  18.180   6.045  1.00  0.00     0.162 HD
BRANCH  15  17
HETATM   17  C   UNK N   1      30.676  16.252   4.580  0.00  0.00     0.079 C 
BRANCH  17  18
HETATM   18  C   UNK N   1      31.533  17.514   4.718  0.00  0.00     0.014 C 
BRANCH  18  19
HETATM   19  C   UNK N   1      32.960  17.264   4.260  0.00  0.00     0.000 C 
BRANCH  19  20
HETATM   20  C   UNK N   1      33.718  16.493   5.316  0.00  0.00    -0.005 C 
HETATM   21  C   UNK N   1      34.252  15.219   4.700  0.00  0.00     0.005 C 
ENDBRANCH  19  20
ENDBRANCH  18  19
ENDBRANCH  17  18
BRANCH  17  22
HETATM   22  C   UNK N   1      30.509  15.945   3.094  0.00  0.00     0.151 C 
BRANCH  22  23
HETATM   23  N   UNK N   1      29.900  14.641   2.838  0.00  0.00    -0.340 N 
HETATM   24  H   UNK N   1      30.252  13.751   3.191  0.00  0.00     0.179 HD
BRANCH  23  25
HETATM   25  N   UNK N   1      28.755  14.791   2.034  0.00  0.00    -0.340 N 
HETATM   26  H   UNK N   1      28.553  15.602   1.450  0.00  0.00     0.179 HD
BRANCH  25  27
HETATM   27  C   UNK N   1      27.897  13.612   2.156  0.00  0.00     0.151 C 
BRANCH  27  28
HETATM   28  C   UNK N   1      26.413  13.924   1.969  0.00  0.00     0.079 C 
BRANCH  28  29
HETATM   29  C   UNK N   1      25.641  12.602   1.962  0.00  0.00     0.014 C 
BRANCH  29  30
HETATM   30  C   UNK N   1      24.539  12.609   0.915  0.00  0.00     0.000 C 
BRANCH  30  31
HETATM   31  C   UNK N   1      23.278  12.003   1.484  0.00  0.00    -0.005 C 
HETATM   32  C   UNK N   1      22.139  12.250   0.519  0.00  0.00     0.005 C 
ENDBRANCH  30  31
ENDBRANCH  29  30
ENDBRANCH  28  29
BRANCH  28  33
HETATM   33  C   UNK N   1      25.863  14.854   3.029  0.00  0.00     0.117 C 
HETATM   34  N   UNK N   1      24.825  14.503   3.718  0.00  0.00    -0.362 N 
ATOM     35  HN  UNK N   1      24.542  13.526   3.651  1.00  0.00     0.162 HD
BRANCH  34  36
HETATM   36  C   UNK N   1      24.017  15.356   4.579  0.00  0.00     0.158 C 
BRANCH  36  37
HETATM   37  C   UNK N   1      22.561  15.574   4.129  0.00  0.00     0.033 C 
BRANCH  37  38
HETATM   38  C   UNK N   1      22.235  15.330   2.664  0.00  0.00     0.004 C 
BRANCH  38  39
HETATM   39  C   UNK N   1      21.067  16.220   2.261  0.00  0.00     0.019 C 
BRANCH  39  40
HETATM   40  C   UNK N   1      20.213  16.600   3.460  0.00  0.00     0.111 C 
BRANCH  40  41
HETATM   41  N   UNK N   1      19.246  17.609   3.066  0.00  0.00    -0.430 N 
HETATM   42  H   UNK N   1      18.371  17.859   2.605  0.00  0.00     0.149 HD
HETATM   43  H   UNK N   1      19.619  18.488   3.423  0.00  0.00     0.149 HD
ENDBRANCH  40  41
ENDBRANCH  39  40
ENDBRANCH  38  39
ENDBRANCH  37  38
ENDBRANCH  36  37
BRANCH  36  44
HETATM   44  C   UNK N   1      24.247  14.913   6.002  0.00  0.00     0.139 C 
HETATM   45  N   UNK N   1      23.656  13.846   6.439  0.00  0.00    -0.339 N 
ATOM     46  HN  UNK N   1      23.247  13.203   5.760  1.00  0.00     0.168 HD
HETATM   47  O   UNK N   1      24.957  15.695   6.843  0.00  0.00    -0.348 OA
HETATM   48  H   UNK N   1      25.563  16.246   7.299  0.00  0.00     0.219 HD
BRANCH  45  49
HETATM   49  C   UNK N   1      23.552  13.532   7.816  0.00  0.00     0.033 A 
HETATM   50  C   UNK N   1      24.535  12.759   8.446  0.00  0.00     0.029 A 
HETATM   51  C   UNK N   1      24.368  12.370   9.780  0.00  0.00     0.002 A 
HETATM   52  C   UNK N   1      23.202  12.716  10.474  0.00  0.00     0.000 A 
HETATM   53  C   UNK N   1      22.208  13.464   9.839  0.00  0.00     0.002 A 
HETATM   54  C   UNK N   1      22.384  13.872   8.517  0.00  0.00     0.029 A 
ENDBRANCH  45  49
ENDBRANCH  36  44
ENDBRANCH  34  36
BRANCH  33  55
HETATM   55  O   UNK N   1      26.406  16.081   3.163  0.00  0.00    -0.349 OA
HETATM   56  H   UNK N   1      26.808  16.593   3.837  0.00  0.00     0.219 HD
ENDBRANCH  33  55
ENDBRANCH  28  33
ENDBRANCH  27  28
ENDBRANCH  25  27
ENDBRANCH  23  25
ENDBRANCH  22  23
ENDBRANCH  17  22
ENDBRANCH  15  17
BRANCH  15  57
HETATM   57  O   UNK N   1      28.420  15.463   5.187  0.00  0.00    -0.349 OA
HETATM   58  H   UNK N   1      28.079  14.904   4.517  0.00  0.00     0.219 HD
ENDBRANCH  15  57
ENDBRANCH   6  14
ENDBRANCH   1   6
BRANCH   2  59
HETATM   59  C   UNK N   1      25.670  19.005   4.566  0.00  0.00     0.033 A 
HETATM   60  C   UNK N   1      24.273  18.941   4.503  0.00  0.00     0.029 A 
HETATM   61  C   UNK N   1      23.576  19.739   3.589  0.00  0.00     0.002 A 
HETATM   62  C   UNK N   1      24.275  20.570   2.706  0.00  0.00     0.000 A 
HETATM   63  C   UNK N   1      25.670  20.616   2.746  0.00  0.00     0.002 A 
HETATM   64  C   UNK N   1      26.363  19.838   3.673  0.00  0.00     0.029 A 
ENDBRANCH   2  59
TORSDOF 31
ENDMDL
MODEL 6
REMARK VINA RESULT:      -6.2      2.446      4.764
REMARK  31 active torsions:
REMARK  status: ('A' for Active; 'I' for Inactive)
REMARK    1  A    between atoms: C_5  and  C_3 
REMARK    2  A    between atoms: C_6  and  C_4 
REMARK    3  A    between atoms: C_17  and  C_5 
REMARK    4  A    between atoms: C_18  and  C_6 
REMARK    5  A    between atoms: C_15  and  C_13 
REMARK    6  A    between atoms: C_23  and  C_13 
REMARK    7  A    between atoms: C_16  and  C_14 
REMARK    8  A    between atoms: C_24  and  C_14 
REMARK    9  A    between atoms: C_25  and  C_15 
REMARK   10  A    between atoms: C_26  and  C_16 
REMARK   11  A    between atoms: C_29  and  C_17 
REMARK   12  A    between atoms: C_30  and  C_18 
REMARK   13  A    between atoms: C_33  and  C_23 
REMARK   14  A    between atoms: C_34  and  C_24 
REMARK   15  A    between atoms: N_39  and  C_25 
REMARK   16  A    between atoms: N_40  and  C_26 
REMARK   17  A    between atoms: C_29  and  C_27 
REMARK   18  A    between atoms: N_41  and  C_27 
REMARK   19  A    between atoms: C_30  and  C_28 
REMARK   20  A    between atoms: N_42  and  C_28 
REMARK   21  A    between atoms: C_29  and  C_35 
REMARK   22  A    between atoms: C_30  and  C_36 
REMARK   23  A    between atoms: N_43  and  C_31 
REMARK   24  A    between atoms: N_45  and  C_32 
REMARK   25  A    between atoms: C_37  and  C_33 
REMARK   26  A    between atoms: C_33  and  N_47 
REMARK   27  A    between atoms: C_38  and  C_34 
REMARK   28  A    between atoms: C_34  and  N_49 
REMARK   29  A    between atoms: C_35  and  O_51 
REMARK   30  A    between atoms: C_36  and  O_52 
REMARK   31  A    between atoms: N_42  and  N_41 
ROOT
HETATM    1  C   UNK N   1      20.549  14.931   8.377  0.00  0.00     0.139 C 
HETATM    2  N   UNK N   1      21.243  14.823   9.466  0.00  0.00    -0.339 N 
ATOM      3  HN  UNK N   1      21.316  15.634  10.079  1.00  0.00     0.168 HD
HETATM    4  O   UNK N   1      20.275  13.841   7.630  0.00  0.00    -0.348 OA
HETATM    5  H   UNK N   1      19.928  13.152   7.097  0.00  0.00     0.219 HD
ENDROOT
BRANCH   1   6
HETATM    6  C   UNK N   1      20.174  16.302   7.873  0.00  0.00     0.158 C 
BRANCH   6   7
HETATM    7  C   UNK N   1      18.690  16.707   7.950  0.00  0.00     0.033 C 
BRANCH   7   8
HETATM    8  C   UNK N   1      18.261  17.577   9.121  0.00  0.00     0.004 C 
BRANCH   8   9
HETATM    9  C   UNK N   1      19.465  18.361   9.623  0.00  0.00     0.019 C 
BRANCH   9  10
HETATM   10  C   UNK N   1      19.049  19.514  10.520  0.00  0.00     0.111 C 
BRANCH  10  11
HETATM   11  N   UNK N   1      17.693  19.299  10.992  0.00  0.00    -0.430 N 
HETATM   12  H   UNK N   1      16.966  19.461  11.688  0.00  0.00     0.149 HD
HETATM   13  H   UNK N   1      17.261  18.697  10.291  0.00  0.00     0.149 HD
ENDBRANCH  10  11
ENDBRANCH   9  10
ENDBRANCH   8   9
ENDBRANCH   7   8
ENDBRANCH   6   7
BRANCH   6  14
HETATM   14  N   UNK N   1      20.813  16.481   6.576  0.00  0.00    -0.362 N 
HETATM   15  C   UNK N   1      21.250  17.590   6.071  0.00  0.00     0.117 C 
ATOM     16  HN  UNK N   1      20.928  15.644   6.005  1.00  0.00     0.162 HD
BRANCH  15  17
HETATM   17  C   UNK N   1      21.625  17.656   4.605  0.00  0.00     0.079 C 
BRANCH  17  18
HETATM   18  C   UNK N   1      20.368  17.694   3.732  0.00  0.00     0.014 C 
BRANCH  18  19
HETATM   19  C   UNK N   1      20.622  18.436   2.431  0.00  0.00     0.000 C 
BRANCH  19  20
HETATM   20  C   UNK N   1      20.789  19.913   2.699  0.00  0.00    -0.005 C 
HETATM   21  C   UNK N   1      20.801  20.650   1.378  0.00  0.00     0.005 C 
ENDBRANCH  19  20
ENDBRANCH  18  19
ENDBRANCH  17  18
BRANCH  17  22
HETATM   22  C   UNK N   1      22.490  16.481   4.154  0.00  0.00     0.151 C 
BRANCH  22  23
HETATM   23  N   UNK N   1      23.797  16.887   3.641  0.00  0.00    -0.340 N 
HETATM   24  H   UNK N   1      24.392  16.316   3.041  0.00  0.00     0.179 HD
BRANCH  23  25
HETATM   25  N   UNK N   1      24.114  18.180   4.095  0.00  0.00    -0.340 N 
HETATM   26  H   UNK N   1      23.679  18.642   4.893  0.00  0.00     0.179 HD
BRANCH  25  27
HETATM   27  C   UNK N   1      25.159  18.765   3.255  0.00  0.00     0.151 C 
BRANCH  27  28
HETATM   28  C   UNK N   1      26.489  18.949   3.986  0.00  0.00     0.079 C 
BRANCH  28  29
HETATM   29  C   UNK N   1      26.253  19.861   5.192  0.00  0.00     0.014 C 
BRANCH  29  30
HETATM   30  C   UNK N   1      27.541  20.528   5.643  0.00  0.00     0.000 C 
BRANCH  30  31
HETATM   31  C   UNK N   1      27.232  21.789   6.415  0.00  0.00    -0.005 C 
HETATM   32  C   UNK N   1      26.078  21.516   7.355  0.00  0.00     0.005 C 
ENDBRANCH  30  31
ENDBRANCH  29  30
ENDBRANCH  28  29
BRANCH  28  33
HETATM   33  C   UNK N   1      27.111  17.640   4.424  0.00  0.00     0.117 C 
HETATM   34  N   UNK N   1      28.230  17.251   3.902  0.00  0.00    -0.362 N 
ATOM     35  HN  UNK N   1      28.744  17.944   3.359  1.00  0.00     0.162 HD
BRANCH  34  36
HETATM   36  C   UNK N   1      28.832  15.930   4.006  0.00  0.00     0.158 C 
BRANCH  36  37
HETATM   37  C   UNK N   1      29.269  15.286   2.678  0.00  0.00     0.033 C 
BRANCH  37  38
HETATM   38  C   UNK N   1      29.679  13.822   2.709  0.00  0.00     0.004 C 
BRANCH  38  39
HETATM   39  C   UNK N   1      28.475  12.979   3.104  0.00  0.00     0.019 C 
BRANCH  39  40
HETATM   40  C   UNK N   1      27.436  12.932   1.996  0.00  0.00     0.111 C 
BRANCH  40  41
HETATM   41  N   UNK N   1      26.122  13.204   2.551  0.00  0.00    -0.430 N 
HETATM   42  H   UNK N   1      25.539  13.648   3.260  0.00  0.00     0.149 HD
HETATM   43  H   UNK N   1      25.468  12.721   1.935  0.00  0.00     0.149 HD
ENDBRANCH  40  41
ENDBRANCH  39  40
ENDBRANCH  38  39
ENDBRANCH  37  38
ENDBRANCH  36  37
BRANCH  36  44
HETATM   44  C   UNK N   1      29.844  15.979   5.123  0.00  0.00     0.139 C 
HETATM   45  N   UNK N   1      30.375  17.116   5.449  0.00  0.00    -0.339 N 
ATOM     46  HN  UNK N   1      29.933  17.973   5.117  1.00  0.00     0.168 HD
HETATM   47  O   UNK N   1      30.284  14.833   5.684  0.00  0.00    -0.348 OA
HETATM   48  H   UNK N   1      30.423  13.996   6.083  0.00  0.00     0.219 HD
BRANCH  45  49
HETATM   49  C   UNK N   1      31.543  17.221   6.244  0.00  0.00     0.033 A 
HETATM   50  C   UNK N   1      31.448  17.480   7.616  0.00  0.00     0.029 A 
HETATM   51  C   UNK N   1      32.611  17.683   8.369  0.00  0.00     0.002 A 
HETATM   52  C   UNK N   1      33.864  17.670   7.748  0.00  0.00     0.000 A 
HETATM   53  C   UNK N   1      33.960  17.438   6.373  0.00  0.00     0.002 A 
HETATM   54  C   UNK N   1      32.804  17.212   5.626  0.00  0.00     0.029 A 
ENDBRANCH  45  49
ENDBRANCH  36  44
ENDBRANCH  34  36
BRANCH  33  55
HETATM   55  O   UNK N   1      26.430  16.851   5.280  0.00  0.00    -0.349 OA
HETATM   56  H   UNK N   1      26.475  15.971   5.598  0.00  0.00     0.219 HD
ENDBRANCH  33  55
ENDBRANCH  28  33
ENDBRANCH  27  28
ENDBRANCH  25  27
ENDBRANCH  23  25
ENDBRANCH  22  23
ENDBRANCH  17  22
ENDBRANCH  15  17
BRANCH  15  57
HETATM   57  O   UNK N   1      21.281  18.723   6.802  0.00  0.00    -0.349 OA
HETATM   58  H   UNK N   1      20.848  19.077   7.553  0.00  0.00     0.219 HD
ENDBRANCH  15  57
ENDBRANCH   6  14
ENDBRANCH   1   6
BRANCH   2  59
HETATM   59  C   UNK N   1      21.904  13.629   9.842  0.00  0.00     0.033 A 
HETATM   60  C   UNK N   1      21.339  12.769  10.790  0.00  0.00     0.029 A 
HETATM   61  C   UNK N   1      22.050  11.645  11.228  0.00  0.00     0.002 A 
HETATM   62  C   UNK N   1      23.344  11.403  10.752  0.00  0.00     0.000 A 
HETATM   63  C   UNK N   1      23.923  12.275   9.828  0.00  0.00     0.002 A 
HETATM   64  C   UNK N   1      23.205  13.382   9.373  0.00  0.00     0.029 A 
ENDBRANCH   2  59
TORSDOF 31
ENDMDL
MODEL 7
REMARK VINA RESULT:      -6.2      2.136      6.595
REMARK  31 active torsions:
REMARK  status: ('A' for Active; 'I' for Inactive)
REMARK    1  A    between atoms: C_5  and  C_3 
REMARK    2  A    between atoms: C_6  and  C_4 
REMARK    3  A    between atoms: C_17  and  C_5 
REMARK    4  A    between atoms: C_18  and  C_6 
REMARK    5  A    between atoms: C_15  and  C_13 
REMARK    6  A    between atoms: C_23  and  C_13 
REMARK    7  A    between atoms: C_16  and  C_14 
REMARK    8  A    between atoms: C_24  and  C_14 
REMARK    9  A    between atoms: C_25  and  C_15 
REMARK   10  A    between atoms: C_26  and  C_16 
REMARK   11  A    between atoms: C_29  and  C_17 
REMARK   12  A    between atoms: C_30  and  C_18 
REMARK   13  A    between atoms: C_33  and  C_23 
REMARK   14  A    between atoms: C_34  and  C_24 
REMARK   15  A    between atoms: N_39  and  C_25 
REMARK   16  A    between atoms: N_40  and  C_26 
REMARK   17  A    between atoms: C_29  and  C_27 
REMARK   18  A    between atoms: N_41  and  C_27 
REMARK   19  A    between atoms: C_30  and  C_28 
REMARK   20  A    between atoms: N_42  and  C_28 
REMARK   21  A    between atoms: C_29  and  C_35 
REMARK   22  A    between atoms: C_30  and  C_36 
REMARK   23  A    between atoms: N_43  and  C_31 
REMARK   24  A    between atoms: N_45  and  C_32 
REMARK   25  A    between atoms: C_37  and  C_33 
REMARK   26  A    between atoms: C_33  and  N_47 
REMARK   27  A    between atoms: C_38  and  C_34 
REMARK   28  A    between atoms: C_34  and  N_49 
REMARK   29  A    between atoms: C_35  and  O_51 
REMARK   30  A    between atoms: C_36  and  O_52 
REMARK   31  A    between atoms: N_42  and  N_41 
ROOT
HETATM    1  C   UNK N   1      19.619  15.487   5.218  0.00  0.00     0.139 C 
HETATM    2  N   UNK N   1      20.278  14.930   4.252  0.00  0.00    -0.339 N 
ATOM      3  HN  UNK N   1      21.100  14.371   4.482  1.00  0.00     0.168 HD
HETATM    4  O   UNK N   1      18.430  16.081   4.981  0.00  0.00    -0.348 OA
HETATM    5  H   UNK N   1      17.555  16.418   4.963  0.00  0.00     0.219 HD
ENDROOT
BRANCH   1   6
HETATM    6  C   UNK N   1      20.255  15.596   6.581  0.00  0.00     0.158 C 
BRANCH   6   7
HETATM    7  C   UNK N   1      20.681  16.997   7.058  0.00  0.00     0.033 C 
BRANCH   7   8
HETATM    8  C   UNK N   1      19.981  17.564   8.282  0.00  0.00     0.004 C 
BRANCH   8   9
HETATM    9  C   UNK N   1      18.897  16.593   8.727  0.00  0.00     0.019 C 
BRANCH   9  10
HETATM   10  C   UNK N   1      17.762  17.308   9.442  0.00  0.00     0.111 C 
BRANCH  10  11
HETATM   11  N   UNK N   1      18.249  18.557   9.998  0.00  0.00    -0.430 N 
HETATM   12  H   UNK N   1      18.195  19.285  10.711  0.00  0.00     0.149 HD
HETATM   13  H   UNK N   1      19.008  18.845   9.380  0.00  0.00     0.149 HD
ENDBRANCH  10  11
ENDBRANCH   9  10
ENDBRANCH   8   9
ENDBRANCH   7   8
ENDBRANCH   6   7
BRANCH   6  14
HETATM   14  N   UNK N   1      21.273  14.559   6.673  0.00  0.00    -0.362 N 
HETATM   15  C   UNK N   1      21.365  13.636   7.577  0.00  0.00     0.117 C 
ATOM     16  HN  UNK N   1      21.992  14.559   5.948  1.00  0.00     0.162 HD
BRANCH  15  17
HETATM   17  C   UNK N   1      22.634  12.817   7.694  0.00  0.00     0.079 C 
BRANCH  17  18
HETATM   18  C   UNK N   1      22.616  11.983   8.978  0.00  0.00     0.014 C 
BRANCH  18  19
HETATM   19  C   UNK N   1      23.368  12.680  10.099  0.00  0.00     0.000 C 
BRANCH  19  20
HETATM   20  C   UNK N   1      22.935  12.128  11.437  0.00  0.00    -0.005 C 
HETATM   21  C   UNK N   1      21.424  12.136  11.503  0.00  0.00     0.005 C 
ENDBRANCH  19  20
ENDBRANCH  18  19
ENDBRANCH  17  18
BRANCH  17  22
HETATM   22  C   UNK N   1      23.900  13.671   7.693  0.00  0.00     0.151 C 
BRANCH  22  23
HETATM   23  N   UNK N   1      25.012  13.057   6.969  0.00  0.00    -0.340 N 
HETATM   24  H   UNK N   1      25.473  12.186   7.235  0.00  0.00     0.179 HD
BRANCH  23  25
HETATM   25  N   UNK N   1      25.353  13.839   5.851  0.00  0.00    -0.340 N 
HETATM   26  H   UNK N   1      24.709  14.446   5.344  0.00  0.00     0.179 HD
BRANCH  25  27
HETATM   27  C   UNK N   1      26.766  13.657   5.522  0.00  0.00     0.151 C 
BRANCH  27  28
HETATM   28  C   UNK N   1      27.539  14.971   5.431  0.00  0.00     0.079 C 
BRANCH  28  29
HETATM   29  C   UNK N   1      28.201  15.046   4.052  0.00  0.00     0.014 C 
BRANCH  29  30
HETATM   30  C   UNK N   1      29.661  14.630   4.114  0.00  0.00     0.000 C 
BRANCH  30  31
HETATM   31  C   UNK N   1      30.034  13.855   2.873  0.00  0.00    -0.005 C 
HETATM   32  C   UNK N   1      28.769  13.484   2.130  0.00  0.00     0.005 C 
ENDBRANCH  30  31
ENDBRANCH  29  30
ENDBRANCH  28  29
BRANCH  28  33
HETATM   33  C   UNK N   1      26.672  16.189   5.669  0.00  0.00     0.117 C 
HETATM   34  N   UNK N   1      26.471  17.035   4.710  0.00  0.00    -0.362 N 
ATOM     35  HN  UNK N   1      26.746  16.737   3.775  1.00  0.00     0.162 HD
BRANCH  34  36
HETATM   36  C   UNK N   1      25.893  18.366   4.824  0.00  0.00     0.158 C 
BRANCH  36  37
HETATM   37  C   UNK N   1      26.873  19.540   4.641  0.00  0.00     0.033 C 
BRANCH  37  38
HETATM   38  C   UNK N   1      28.118  19.556   5.513  0.00  0.00     0.004 C 
BRANCH  38  39
HETATM   39  C   UNK N   1      27.704  19.764   6.964  0.00  0.00     0.019 C 
BRANCH  39  40
HETATM   40  C   UNK N   1      28.454  18.830   7.899  0.00  0.00     0.111 C 
BRANCH  40  41
HETATM   41  N   UNK N   1      27.592  18.459   9.008  0.00  0.00    -0.430 N 
HETATM   42  H   UNK N   1      26.672  18.459   9.447  0.00  0.00     0.149 HD
HETATM   43  H   UNK N   1      28.197  17.955   9.657  0.00  0.00     0.149 HD
ENDBRANCH  40  41
ENDBRANCH  39  40
ENDBRANCH  38  39
ENDBRANCH  37  38
ENDBRANCH  36  37
BRANCH  36  44
HETATM   44  C   UNK N   1      24.626  18.383   4.007  0.00  0.00     0.139 C 
HETATM   45  N   UNK N   1      23.954  19.486   3.898  0.00  0.00    -0.339 N 
ATOM     46  HN  UNK N   1      24.410  20.361   4.157  1.00  0.00     0.168 HD
HETATM   47  O   UNK N   1      24.132  17.230   3.508  0.00  0.00    -0.348 OA
HETATM   48  H   UNK N   1      23.950  16.401   3.108  0.00  0.00     0.219 HD
BRANCH  45  49
HETATM   49  C   UNK N   1      22.617  19.531   3.434  0.00  0.00     0.033 A 
HETATM   50  C   UNK N   1      22.287  20.255   2.282  0.00  0.00     0.029 A 
HETATM   51  C   UNK N   1      20.947  20.376   1.894  0.00  0.00     0.002 A 
HETATM   52  C   UNK N   1      19.933  19.811   2.676  0.00  0.00     0.000 A 
HETATM   53  C   UNK N   1      20.258  19.111   3.841  0.00  0.00     0.002 A 
HETATM   54  C   UNK N   1      21.594  18.971   4.216  0.00  0.00     0.029 A 
ENDBRANCH  45  49
ENDBRANCH  36  44
ENDBRANCH  34  36
BRANCH  33  55
HETATM   55  O   UNK N   1      26.209  16.424   6.914  0.00  0.00    -0.349 OA
HETATM   56  H   UNK N   1      26.401  16.151   7.789  0.00  0.00     0.219 HD
ENDBRANCH  33  55
ENDBRANCH  28  33
ENDBRANCH  27  28
ENDBRANCH  25  27
ENDBRANCH  23  25
ENDBRANCH  22  23
ENDBRANCH  17  22
ENDBRANCH  15  17
BRANCH  15  57
HETATM   57  O   UNK N   1      20.389  13.456   8.490  0.00  0.00    -0.349 OA
HETATM   58  H   UNK N   1      19.624  12.926   8.593  0.00  0.00     0.219 HD
ENDBRANCH  15  57
ENDBRANCH   6  14
ENDBRANCH   1   6
BRANCH   2  59
HETATM   59  C   UNK N   1      19.910  15.062   2.892  0.00  0.00     0.033 A 
HETATM   60  C   UNK N   1      19.206  14.042   2.241  0.00  0.00     0.029 A 
HETATM   61  C   UNK N   1      18.938  14.141   0.871  0.00  0.00     0.002 A 
HETATM   62  C   UNK N   1      19.409  15.237   0.140  0.00  0.00     0.000 A 
HETATM   63  C   UNK N   1      20.136  16.244   0.780  0.00  0.00     0.002 A 
HETATM   64  C   UNK N   1      20.383  16.157   2.150  0.00  0.00     0.029 A 
ENDBRANCH   2  59
TORSDOF 31
ENDMDL
MODEL 8
REMARK VINA RESULT:      -6.1      2.255      6.716
REMARK  31 active torsions:
REMARK  status: ('A' for Active; 'I' for Inactive)
REMARK    1  A    between atoms: C_5  and  C_3 
REMARK    2  A    between atoms: C_6  and  C_4 
REMARK    3  A    between atoms: C_17  and  C_5 
REMARK    4  A    between atoms: C_18  and  C_6 
REMARK    5  A    between atoms: C_15  and  C_13 
REMARK    6  A    between atoms: C_23  and  C_13 
REMARK    7  A    between atoms: C_16  and  C_14 
REMARK    8  A    between atoms: C_24  and  C_14 
REMARK    9  A    between atoms: C_25  and  C_15 
REMARK   10  A    between atoms: C_26  and  C_16 
REMARK   11  A    between atoms: C_29  and  C_17 
REMARK   12  A    between atoms: C_30  and  C_18 
REMARK   13  A    between atoms: C_33  and  C_23 
REMARK   14  A    between atoms: C_34  and  C_24 
REMARK   15  A    between atoms: N_39  and  C_25 
REMARK   16  A    between atoms: N_40  and  C_26 
REMARK   17  A    between atoms: C_29  and  C_27 
REMARK   18  A    between atoms: N_41  and  C_27 
REMARK   19  A    between atoms: C_30  and  C_28 
REMARK   20  A    between atoms: N_42  and  C_28 
REMARK   21  A    between atoms: C_29  and  C_35 
REMARK   22  A    between atoms: C_30  and  C_36 
REMARK   23  A    between atoms: N_43  and  C_31 
REMARK   24  A    between atoms: N_45  and  C_32 
REMARK   25  A    between atoms: C_37  and  C_33 
REMARK   26  A    between atoms: C_33  and  N_47 
REMARK   27  A    between atoms: C_38  and  C_34 
REMARK   28  A    between atoms: C_34  and  N_49 
REMARK   29  A    between atoms: C_35  and  O_51 
REMARK   30  A    between atoms: C_36  and  O_52 
REMARK   31  A    between atoms: N_42  and  N_41 
ROOT
HETATM    1  C   UNK N   1      21.206  17.830   5.790  0.00  0.00     0.139 C 
HETATM    2  N   UNK N   1      20.748  16.642   6.028  0.00  0.00    -0.339 N 
ATOM      3  HN  UNK N   1      20.701  15.975   5.257  1.00  0.00     0.168 HD
HETATM    4  O   UNK N   1      21.455  18.683   6.806  0.00  0.00    -0.348 OA
HETATM    5  H   UNK N   1      21.771  19.313   7.425  0.00  0.00     0.219 HD
ENDROOT
BRANCH   1   6
HETATM    6  C   UNK N   1      21.322  18.307   4.364  0.00  0.00     0.158 C 
BRANCH   6   7
HETATM    7  C   UNK N   1      20.557  17.518   3.285  0.00  0.00     0.033 C 
BRANCH   7   8
HETATM    8  C   UNK N   1      20.160  18.262   2.021  0.00  0.00     0.004 C 
BRANCH   8   9
HETATM    9  C   UNK N   1      20.048  19.747   2.335  0.00  0.00     0.019 C 
BRANCH   9  10
HETATM   10  C   UNK N   1      21.029  20.569   1.517  0.00  0.00     0.111 C 
BRANCH  10  11
HETATM   11  N   UNK N   1      20.334  21.190   0.404  0.00  0.00    -0.430 N 
HETATM   12  H   UNK N   1      20.301  21.898  -0.330  0.00  0.00     0.149 HD
HETATM   13  H   UNK N   1      19.461  20.670   0.312  0.00  0.00     0.149 HD
ENDBRANCH  10  11
ENDBRANCH   9  10
ENDBRANCH   8   9
ENDBRANCH   7   8
ENDBRANCH   6   7
BRANCH   6  14
HETATM   14  N   UNK N   1      22.734  18.542   4.094  0.00  0.00    -0.362 N 
HETATM   15  C   UNK N   1      23.716  17.734   4.332  0.00  0.00     0.117 C 
ATOM     16  HN  UNK N   1      22.974  19.440   3.673  1.00  0.00     0.162 HD
BRANCH  15  17
HETATM   17  C   UNK N   1      25.143  18.238   4.260  0.00  0.00     0.079 C 
BRANCH  17  18
HETATM   18  C   UNK N   1      25.183  19.649   3.667  0.00  0.00     0.014 C 
BRANCH  18  19
HETATM   19  C   UNK N   1      25.756  20.647   4.659  0.00  0.00     0.000 C 
BRANCH  19  20
HETATM   20  C   UNK N   1      26.932  20.041   5.387  0.00  0.00    -0.005 C 
HETATM   21  C   UNK N   1      27.427  21.027   6.422  0.00  0.00     0.005 C 
ENDBRANCH  19  20
ENDBRANCH  18  19
ENDBRANCH  17  18
BRANCH  17  22
HETATM   22  C   UNK N   1      26.055  17.340   3.426  0.00  0.00     0.151 C 
BRANCH  22  23
HETATM   23  N   UNK N   1      25.420  16.086   3.023  0.00  0.00    -0.340 N 
HETATM   24  H   UNK N   1      24.746  15.989   2.263  0.00  0.00     0.179 HD
BRANCH  23  25
HETATM   25  N   UNK N   1      25.874  15.031   3.835  0.00  0.00    -0.340 N 
HETATM   26  H   UNK N   1      25.407  14.131   3.939  0.00  0.00     0.179 HD
BRANCH  25  27
HETATM   27  C   UNK N   1      27.115  15.414   4.509  0.00  0.00     0.151 C 
BRANCH  27  28
HETATM   28  C   UNK N   1      27.101  15.128   6.009  0.00  0.00     0.079 C 
BRANCH  28  29
HETATM   29  C   UNK N   1      27.390  16.435   6.752  0.00  0.00     0.014 C 
BRANCH  29  30
HETATM   30  C   UNK N   1      28.783  16.954   6.438  0.00  0.00     0.000 C 
BRANCH  30  31
HETATM   31  C   UNK N   1      29.252  17.881   7.535  0.00  0.00    -0.005 C 
HETATM   32  C   UNK N   1      28.219  17.893   8.640  0.00  0.00     0.005 C 
ENDBRANCH  30  31
ENDBRANCH  29  30
ENDBRANCH  28  29
BRANCH  28  33
HETATM   33  C   UNK N   1      25.797  14.525   6.487  0.00  0.00     0.117 C 
HETATM   34  N   UNK N   1      25.631  13.242   6.458  0.00  0.00    -0.362 N 
ATOM     35  HN  UNK N   1      26.466  12.678   6.299  1.00  0.00     0.162 HD
BRANCH  34  36
HETATM   36  C   UNK N   1      24.380  12.517   6.629  0.00  0.00     0.158 C 
BRANCH  36  37
HETATM   37  C   UNK N   1      23.643  12.756   7.959  0.00  0.00     0.033 C 
BRANCH  37  38
HETATM   38  C   UNK N   1      24.109  11.966   9.171  0.00  0.00     0.004 C 
BRANCH  38  39
HETATM   39  C   UNK N   1      23.638  12.673  10.434  0.00  0.00     0.019 C 
BRANCH  39  40
HETATM   40  C   UNK N   1      22.355  12.062  10.973  0.00  0.00     0.111 C 
BRANCH  40  41
HETATM   41  N   UNK N   1      22.578  11.577  12.323  0.00  0.00    -0.430 N 
HETATM   42  H   UNK N   1      22.540  11.726  13.331  0.00  0.00     0.149 HD
HETATM   43  H   UNK N   1      22.951  10.634  12.208  0.00  0.00     0.149 HD
ENDBRANCH  40  41
ENDBRANCH  39  40
ENDBRANCH  38  39
ENDBRANCH  37  38
ENDBRANCH  36  37
BRANCH  36  44
HETATM   44  C   UNK N   1      23.588  12.674   5.355  0.00  0.00     0.139 C 
HETATM   45  N   UNK N   1      22.657  13.574   5.292  0.00  0.00    -0.339 N 
ATOM     46  HN  UNK N   1      22.639  14.306   6.002  1.00  0.00     0.168 HD
HETATM   47  O   UNK N   1      23.761  11.798   4.343  0.00  0.00    -0.348 OA
HETATM   48  H   UNK N   1      24.049  11.217   3.665  0.00  0.00     0.219 HD
BRANCH  45  49
HETATM   49  C   UNK N   1      21.664  13.586   4.282  0.00  0.00     0.033 A 
HETATM   50  C   UNK N   1      21.985  13.964   2.973  0.00  0.00     0.029 A 
HETATM   51  C   UNK N   1      20.975  14.071   2.010  0.00  0.00     0.002 A 
HETATM   52  C   UNK N   1      19.639  13.842   2.362  0.00  0.00     0.000 A 
HETATM   53  C   UNK N   1      19.313  13.491   3.674  0.00  0.00     0.002 A 
HETATM   54  C   UNK N   1      20.322  13.362   4.629  0.00  0.00     0.029 A 
ENDBRANCH  45  49
ENDBRANCH  36  44
ENDBRANCH  34  36
BRANCH  33  55
HETATM   55  O   UNK N   1      24.789  15.350   6.837  0.00  0.00    -0.349 OA
HETATM   56  H   UNK N   1      24.670  16.260   7.029  0.00  0.00     0.219 HD
ENDBRANCH  33  55
ENDBRANCH  28  33
ENDBRANCH  27  28
ENDBRANCH  25  27
ENDBRANCH  23  25
ENDBRANCH  22  23
ENDBRANCH  17  22
ENDBRANCH  15  17
BRANCH  15  57
HETATM   57  O   UNK N   1      23.494  16.470   4.748  0.00  0.00    -0.349 OA
HETATM   58  H   UNK N   1      23.388  16.015   5.560  0.00  0.00     0.219 HD
ENDBRANCH  15  57
ENDBRANCH   6  14
ENDBRANCH   1   6
BRANCH   2  59
HETATM   59  C   UNK N   1      20.309  16.228   7.308  0.00  0.00     0.033 A 
HETATM   60  C   UNK N   1      20.969  15.200   7.991  0.00  0.00     0.029 A 
HETATM   61  C   UNK N   1      20.464  14.732   9.209  0.00  0.00     0.002 A 
HETATM   62  C   UNK N   1      19.275  15.259   9.726  0.00  0.00     0.000 A 
HETATM   63  C   UNK N   1      18.597  16.265   9.034  0.00  0.00     0.002 A 
HETATM   64  C   UNK N   1      19.114  16.748   7.831  0.00  0.00     0.029 A 
ENDBRANCH   2  59
TORSDOF 31
ENDMDL
MODEL 9
REMARK VINA RESULT:      -6.1      2.542      6.235
REMARK  31 active torsions:
REMARK  status: ('A' for Active; 'I' for Inactive)
REMARK    1  A    between atoms: C_5  and  C_3 
REMARK    2  A    between atoms: C_6  and  C_4 
REMARK    3  A    between atoms: C_17  and  C_5 
REMARK    4  A    between atoms: C_18  and  C_6 
REMARK    5  A    between atoms: C_15  and  C_13 
REMARK    6  A    between atoms: C_23  and  C_13 
REMARK    7  A    between atoms: C_16  and  C_14 
REMARK    8  A    between atoms: C_24  and  C_14 
REMARK    9  A    between atoms: C_25  and  C_15 
REMARK   10  A    between atoms: C_26  and  C_16 
REMARK   11  A    between atoms: C_29  and  C_17 
REMARK   12  A    between atoms: C_30  and  C_18 
REMARK   13  A    between atoms: C_33  and  C_23 
REMARK   14  A    between atoms: C_34  and  C_24 
REMARK   15  A    between atoms: N_39  and  C_25 
REMARK   16  A    between atoms: N_40  and  C_26 
REMARK   17  A    between atoms: C_29  and  C_27 
REMARK   18  A    between atoms: N_41  and  C_27 
REMARK   19  A    between atoms: C_30  and  C_28 
REMARK   20  A    between atoms: N_42  and  C_28 
REMARK   21  A    between atoms: C_29  and  C_35 
REMARK   22  A    between atoms: C_30  and  C_36 
REMARK   23  A    between atoms: N_43  and  C_31 
REMARK   24  A    between atoms: N_45  and  C_32 
REMARK   25  A    between atoms: C_37  and  C_33 
REMARK   26  A    between atoms: C_33  and  N_47 
REMARK   27  A    between atoms: C_38  and  C_34 
REMARK   28  A    between atoms: C_34  and  N_49 
REMARK   29  A    between atoms: C_35  and  O_51 
REMARK   30  A    between atoms: C_36  and  O_52 
REMARK   31  A    between atoms: N_42  and  N_41 
ROOT
HETATM    1  C   UNK N   1      20.743  17.498   6.658  0.00  0.00     0.139 C 
HETATM    2  N   UNK N   1      20.819  17.290   5.382  0.00  0.00    -0.339 N 
ATOM      3  HN  UNK N   1      20.396  16.445   5.000  1.00  0.00     0.168 HD
HETATM    4  O   UNK N   1      21.126  18.681   7.183  0.00  0.00    -0.348 OA
HETATM    5  H   UNK N   1      21.251  19.487   7.645  0.00  0.00     0.219 HD
ENDROOT
BRANCH   1   6
HETATM    6  C   UNK N   1      20.360  16.359   7.571  0.00  0.00     0.158 C 
BRANCH   6   7
HETATM    7  C   UNK N   1      19.861  16.715   8.983  0.00  0.00     0.033 C 
BRANCH   7   8
HETATM    8  C   UNK N   1      18.964  17.935   9.124  0.00  0.00     0.004 C 
BRANCH   8   9
HETATM    9  C   UNK N   1      17.621  17.498   9.692  0.00  0.00     0.019 C 
BRANCH   9  10
HETATM   10  C   UNK N   1      17.163  18.413  10.815  0.00  0.00     0.111 C 
BRANCH  10  11
HETATM   11  N   UNK N   1      18.105  19.506  10.966  0.00  0.00    -0.430 N 
HETATM   12  H   UNK N   1      19.068  19.840  11.012  0.00  0.00     0.149 HD
HETATM   13  H   UNK N   1      17.529  20.340  11.081  0.00  0.00     0.149 HD
ENDBRANCH  10  11
ENDBRANCH   9  10
ENDBRANCH   8   9
ENDBRANCH   7   8
ENDBRANCH   6   7
BRANCH   6  14
HETATM   14  N   UNK N   1      21.427  15.370   7.507  0.00  0.00    -0.362 N 
HETATM   15  C   UNK N   1      21.302  14.106   7.253  0.00  0.00     0.117 C 
ATOM     16  HN  UNK N   1      22.374  15.708   7.681  1.00  0.00     0.162 HD
BRANCH  15  17
HETATM   17  C   UNK N   1      22.464  13.167   7.505  0.00  0.00     0.079 C 
BRANCH  17  18
HETATM   18  C   UNK N   1      23.128  13.484   8.847  0.00  0.00     0.014 C 
BRANCH  18  19
HETATM   19  C   UNK N   1      22.278  13.001  10.010  0.00  0.00     0.000 C 
BRANCH  19  20
HETATM   20  C   UNK N   1      23.108  12.149  10.941  0.00  0.00    -0.005 C 
HETATM   21  C   UNK N   1      24.568  12.306  10.577  0.00  0.00     0.005 C 
ENDBRANCH  19  20
ENDBRANCH  18  19
ENDBRANCH  17  18
BRANCH  17  22
HETATM   22  C   UNK N   1      23.531  13.228   6.414  0.00  0.00     0.151 C 
BRANCH  22  23
HETATM   23  N   UNK N   1      22.978  13.404   5.072  0.00  0.00    -0.340 N 
HETATM   24  H   UNK N   1      22.040  13.748   4.868  0.00  0.00     0.179 HD
BRANCH  23  25
HETATM   25  N   UNK N   1      23.928  13.032   4.104  0.00  0.00    -0.340 N 
HETATM   26  H   UNK N   1      24.018  12.099   3.703  0.00  0.00     0.179 HD
BRANCH  25  27
HETATM   27  C   UNK N   1      24.767  14.178   3.756  0.00  0.00     0.151 C 
BRANCH  27  28
HETATM   28  C   UNK N   1      26.149  13.781   3.242  0.00  0.00     0.079 C 
BRANCH  28  29
HETATM   29  C   UNK N   1      25.968  12.919   1.989  0.00  0.00     0.014 C 
BRANCH  29  30
HETATM   30  C   UNK N   1      26.554  11.531   2.182  0.00  0.00     0.000 C 
BRANCH  30  31
HETATM   31  C   UNK N   1      27.486  11.196   1.043  0.00  0.00    -0.005 C 
HETATM   32  C   UNK N   1      28.781  11.956   1.231  0.00  0.00     0.005 C 
ENDBRANCH  30  31
ENDBRANCH  29  30
ENDBRANCH  28  29
BRANCH  28  33
HETATM   33  C   UNK N   1      27.036  14.971   2.942  0.00  0.00     0.117 C 
HETATM   34  N   UNK N   1      27.347  15.797   3.888  0.00  0.00    -0.362 N 
ATOM     35  HN  UNK N   1      27.141  15.498   4.841  1.00  0.00     0.162 HD
BRANCH  34  36
HETATM   36  C   UNK N   1      27.960  17.110   3.737  0.00  0.00     0.158 C 
BRANCH  36  37
HETATM   37  C   UNK N   1      26.998  18.310   3.805  0.00  0.00     0.033 C 
BRANCH  37  38
HETATM   38  C   UNK N   1      27.491  19.565   4.507  0.00  0.00     0.004 C 
BRANCH  38  39
HETATM   39  C   UNK N   1      26.496  19.947   5.594  0.00  0.00     0.019 C 
BRANCH  39  40
HETATM   40  C   UNK N   1      27.198  20.451   6.845  0.00  0.00     0.111 C 
BRANCH  40  41
HETATM   41  N   UNK N   1      26.209  20.809   7.846  0.00  0.00    -0.430 N 
HETATM   42  H   UNK N   1      25.251  21.062   8.088  0.00  0.00     0.149 HD
HETATM   43  H   UNK N   1      26.713  20.802   8.732  0.00  0.00     0.149 HD
ENDBRANCH  40  41
ENDBRANCH  39  40
ENDBRANCH  38  39
ENDBRANCH  37  38
ENDBRANCH  36  37
BRANCH  36  44
HETATM   44  C   UNK N   1      29.181  17.145   4.622  0.00  0.00     0.139 C 
HETATM   45  N   UNK N   1      29.136  16.584   5.789  0.00  0.00    -0.339 N 
ATOM     46  HN  UNK N   1      28.375  15.934   5.989  1.00  0.00     0.168 HD
HETATM   47  O   UNK N   1      30.260  17.865   4.251  0.00  0.00    -0.348 OA
HETATM   48  H   UNK N   1      30.991  18.288   3.841  0.00  0.00     0.219 HD
BRANCH  45  49
HETATM   49  C   UNK N   1      30.095  16.833   6.801  0.00  0.00     0.033 A 
HETATM   50  C   UNK N   1      29.888  17.845   7.745  0.00  0.00     0.029 A 
HETATM   51  C   UNK N   1      30.890  18.147   8.675  0.00  0.00     0.002 A 
HETATM   52  C   UNK N   1      32.114  17.470   8.637  0.00  0.00     0.000 A 
HETATM   53  C   UNK N   1      32.334  16.478   7.679  0.00  0.00     0.002 A 
HETATM   54  C   UNK N   1      31.328  16.160   6.766  0.00  0.00     0.029 A 
ENDBRANCH  45  49
ENDBRANCH  36  44
ENDBRANCH  34  36
BRANCH  33  55
HETATM   55  O   UNK N   1      27.400  15.205   1.665  0.00  0.00    -0.349 OA
HETATM   56  H   UNK N   1      27.098  14.987   0.805  0.00  0.00     0.219 HD
ENDBRANCH  33  55
ENDBRANCH  28  33
ENDBRANCH  27  28
ENDBRANCH  25  27
ENDBRANCH  23  25
ENDBRANCH  22  23
ENDBRANCH  17  22
ENDBRANCH  15  17
BRANCH  15  57
HETATM   57  O   UNK N   1      20.119  13.587   6.865  0.00  0.00    -0.349 OA
HETATM   58  H   UNK N   1      19.593  12.838   7.060  0.00  0.00     0.219 HD
ENDBRANCH  15  57
ENDBRANCH   6  14
ENDBRANCH   1   6
BRANCH   2  59
HETATM   59  C   UNK N   1      21.465  18.184   4.494  0.00  0.00     0.033 A 
HETATM   60  C   UNK N   1      22.862  18.255   4.445  0.00  0.00     0.029 A 
HETATM   61  C   UNK N   1      23.486  19.214   3.639  0.00  0.00     0.002 A 
HETATM   62  C   UNK N   1      22.717  20.132   2.914  0.00  0.00     0.000 A 
HETATM   63  C   UNK N   1      21.323  20.083   2.983  0.00  0.00     0.002 A 
HETATM   64  C   UNK N   1      20.701  19.112   3.768  0.00  0.00     0.029 A 
ENDBRANCH   2  59
TORSDOF 31
ENDMDL
