REMARK  3 active torsions:
REMARK  status: ('A' for Active; 'I' for Inactive)
REMARK    1  A    between atoms: O_2  and  C_3 
REMARK    2  A    between atoms: C_5  and  C_6 
REMARK    3  A    between atoms: C_10  and  O_11 
ROOT
HETATM    1  C   UNK N   1       1.720   1.139   0.000  0.00  0.00     0.102 A 
HETATM    2  C   UNK N   1       1.705  -0.258  -0.000  0.00  0.00     0.051 A 
HETATM    3  C   UNK N   1       0.502  -0.972  -0.000  0.00  0.00    -0.034 A 
HETATM    4  C   UNK N   1      -0.711  -0.279  -0.000  0.00  0.00     0.014 A 
HETATM    5  C   UNK N   1      -0.720   1.119   0.000  0.00  0.00     0.040 A 
HETATM    6  C   UNK N   1       0.482   1.835   0.000  0.00  0.00     0.099 A 
ENDROOT
BRANCH   1   7
HETATM    7  O   UNK N   1       2.932   1.748   0.000  0.00  0.00    -0.353 OA
HETATM    8  C   UNK N   1       3.143   3.107   0.000  0.00  0.00     0.210 C 
ENDBRANCH   1   7
BRANCH   6   9
HETATM    9  O   UNK N   1       0.435   3.179   0.000  0.00  0.00    -0.358 OA
HETATM   10  H   UNK N   1       1.229   3.676   0.000  0.00  0.00     0.217 HD
ENDBRANCH   6   9
BRANCH   3  11
HETATM   11  C   UNK N   1       0.501  -2.444  -0.000  0.00  0.00     0.001 C 
HETATM   12  C   UNK N   1       1.635  -3.149  -0.000  0.00  0.00     0.012 C 
ENDBRANCH   3  11
TORSDOF 3
