MODEL 1
REMARK VINA RESULT:      -7.6      0.000      0.000
REMARK  22 active torsions:
REMARK  status: ('A' for Active; 'I' for Inactive)
REMARK    1  A    between atoms: C_16  and  C_15 
REMARK    2  A    between atoms: C_28  and  C_15 
REMARK    3  A    between atoms: C_37  and  C_16 
REMARK    4  A    between atoms: C_29  and  C_17 
REMARK    5  A    between atoms: N_56  and  C_18 
REMARK    6  A    between atoms: C_40  and  C_22 
REMARK    7  A    between atoms: C_41  and  C_22 
REMARK    8  A    between atoms: N_56  and  C_26 
REMARK    9  A    between atoms: O_57  and  C_26 
REMARK   10  A    between atoms: C_40  and  C_28 
REMARK   11  A    between atoms: C_44  and  C_29 
REMARK   12  A    between atoms: C_37  and  C_30 
REMARK   13  A    between atoms: C_44  and  C_30 
REMARK   14  A    between atoms: C_33  and  O_69 
REMARK   15  A    between atoms: C_38  and  O_59 
REMARK   16  A    between atoms: C_39  and  O_62 
REMARK   17  A    between atoms: C_40  and  O_63 
REMARK   18  A    between atoms: C_44  and  O_64 
REMARK   19  A    between atoms: C_45  and  O_65 
REMARK   20  A    between atoms: C_48  and  N_49 
REMARK   21  A    between atoms: O_61  and  C_48 
REMARK   22  A    between atoms: O_69  and  C_48 
ROOT
HETATM    1  C   UNK N   1      23.078  17.334   4.993  0.00  0.00     0.010 C 
HETATM    2  C   UNK N   1      25.442  18.834   3.440  0.00  0.00     0.015 C 
HETATM    3  C   UNK N   1      23.543  12.819   0.554  0.00  0.00     0.015 C 
HETATM    4  C   UNK N   1      26.296  10.893   4.299  0.00  0.00    -0.020 C 
HETATM    5  C   UNK N   1      24.982  11.560   3.967  0.00  0.00     0.059 C 
HETATM    6  C   UNK N   1      27.392  11.463   3.806  0.00  0.00     0.052 C 
HETATM    7  C   UNK N   1      22.083  16.582   2.856  0.00  0.00     0.037 C 
HETATM    8  C   UNK N   1      24.469  16.237   3.135  0.00  0.00     0.036 C 
HETATM    9  C   UNK N   1      19.882  15.593   2.132  0.00  0.00     0.143 C 
HETATM   10  C   UNK N   1      29.332  17.889   6.402  0.00  0.00     0.172 A 
HETATM   11  C   UNK N   1      30.489  10.686   5.273  0.00  0.00     0.178 A 
HETATM   12  C   UNK N   1      31.937  14.367   6.419  0.00  0.00     0.178 A 
HETATM   13  C   UNK N   1      23.146  16.273   3.913  0.00  0.00    -0.014 C 
HETATM   14  C   UNK N   1      26.120  17.802   4.352  0.00  0.00     0.045 C 
HETATM   15  C   UNK N   1      23.711  12.729   2.067  0.00  0.00     0.040 C 
HETATM   16  C   UNK N   1      20.618  16.328   3.261  0.00  0.00     0.136 C 
HETATM   17  C   UNK N   1      28.659  17.494   5.252  0.00  0.00     0.063 A 
HETATM   18  C   UNK N   1      30.755  11.770   4.449  0.00  0.00     0.108 A 
HETATM   19  C   UNK N   1      31.126  14.977   5.478  0.00  0.00     0.108 A 
HETATM   20  C   UNK N   1      25.867  16.370   3.790  0.00  0.00     0.125 C 
HETATM   21  C   UNK N   1      24.616  11.537   2.466  0.00  0.00     0.130 C 
HETATM   22  C   UNK N   1      22.329  12.733   2.745  0.00  0.00     0.140 C 
HETATM   23  C   UNK N   1      28.778  11.123   4.079  0.00  0.00     0.147 A 
HETATM   24  C   UNK N   1      20.534  14.275   1.823  0.00  0.00     0.261 C 
HETATM   25  C   UNK N   1      27.613  18.292   4.488  0.00  0.00     0.178 C 
HETATM   26  C   UNK N   1      31.452  12.973   4.877  0.00  0.00     0.177 A 
HETATM   27  C   UNK N   1      30.294  16.173   5.603  0.00  0.00     0.176 A 
HETATM   28  N   UNK N   1      29.693  11.993   3.684  0.00  0.00    -0.332 N 
ATOM     29  HN  UNK N   1      29.600  12.691   2.946  1.00  0.00     0.168 HD
HETATM   30  N   UNK N   1      29.285  16.424   4.741  0.00  0.00    -0.334 N 
ATOM     31  HN  UNK N   1      29.051  15.912   3.889  1.00  0.00     0.168 HD
HETATM   32  N   UNK N   1      30.865  14.118   4.508  0.00  0.00    -0.330 N 
ATOM     33  HN  UNK N   1      30.330  14.291   3.657  1.00  0.00     0.168 HD
HETATM   34  O   UNK N   1      20.073  13.586   0.936  0.00  0.00    -0.265 OA
HETATM   35  O   UNK N   1      29.246  10.312   5.004  0.00  0.00    -0.303 OA
HETATM   36  O   UNK N   1      30.308  17.025   6.598  0.00  0.00    -0.302 OA
HETATM   37  O   UNK N   1      32.096  13.114   6.015  0.00  0.00    -0.301 OA
HETATM   38  O   UNK N   1      21.670  13.927   2.495  0.00  0.00    -0.315 OA
ENDROOT
BRANCH  22  39
HETATM   39  C   UNK N   1      21.468  11.478   2.596  0.00  0.00     0.065 C 
BRANCH  39  40
HETATM   40  C   UNK N   1      20.366  11.079   3.595  0.00  0.00     0.127 C 
BRANCH  40  41
HETATM   41  C   UNK N   1      20.949  10.253   4.786  0.00  0.00     0.011 C 
HETATM   42  C   UNK N   1      22.248   9.529   4.430  0.00  0.00     0.012 C 
BRANCH  41  43
HETATM   43  C   UNK N   1      21.172  11.099   6.052  0.00  0.00     0.014 C 
BRANCH  43  44
HETATM   44  C   UNK N   1      22.603  11.649   6.187  0.00  0.00     0.079 C 
BRANCH  44  45
HETATM   45  C   UNK N   1      23.003  11.885   7.628  0.00  0.00     0.133 C 
HETATM   46  O   UNK N   1      23.282  10.941   8.352  0.00  0.00    -0.297 OA
BRANCH  45  47
HETATM   47  C   UNK N   1      23.034  13.292   8.149  0.00  0.00     0.081 C 
HETATM   48  C   UNK N   1      23.696  14.259   7.168  0.00  0.00     0.020 C 
BRANCH  47  49
HETATM   49  C   UNK N   1      21.591  13.741   8.479  0.00  0.00     0.139 C 
BRANCH  49  50
HETATM   50  C   UNK N   1      21.206  15.033   7.729  0.00  0.00     0.035 C 
HETATM   51  C   UNK N   1      20.331  14.776   6.509  0.00  0.00     0.017 C 
BRANCH  50  52
HETATM   52  C   UNK N   1      20.544  15.933   8.736  0.00  0.00    -0.003 C 
HETATM   53  C   UNK N   1      19.937  17.071   8.355  0.00  0.00     0.083 C 
BRANCH  53  54
HETATM   54  N   UNK N   1      19.121  17.824   9.247  0.00  0.00    -0.374 N 
HETATM   55  C   UNK N   1      17.737  17.485   9.470  0.00  0.00     0.151 C 
BRANCH  54  56
HETATM   56  C   UNK N   1      19.615  19.066   9.774  0.00  0.00     0.288 C 
BRANCH  56  57
HETATM   57  O   UNK N   1      18.650  19.637  10.601  0.00  0.00    -0.382 OA
HETATM   58  H   UNK N   1      18.295  20.522  10.427  0.00  0.00     0.211 HD
ENDBRANCH  56  57
ENDBRANCH  54  56
ENDBRANCH  53  54
ENDBRANCH  50  52
ENDBRANCH  49  50
BRANCH  49  59
HETATM   59  O   UNK N   1      21.439  14.013   9.872  0.00  0.00    -0.389 OA
HETATM   60  C   UNK N   1      21.064  12.835  10.545  0.00  0.00     0.202 C 
ENDBRANCH  49  59
ENDBRANCH  47  49
ENDBRANCH  45  47
ENDBRANCH  44  45
ENDBRANCH  43  44
ENDBRANCH  41  43
ENDBRANCH  40  41
BRANCH  40  61
HETATM   61  O   UNK N   1      19.808  12.282   4.083  0.00  0.00    -0.390 OA
HETATM   62  C   UNK N   1      18.413  12.292   3.938  0.00  0.00     0.202 C 
ENDBRANCH  40  61
ENDBRANCH  39  40
ENDBRANCH  22  39
BRANCH  21  63
HETATM   63  O   UNK N   1      25.758  11.562   1.622  0.00  0.00    -0.390 OA
HETATM   64  C   UNK N   1      25.800  10.389   0.847  0.00  0.00     0.202 C 
ENDBRANCH  21  63
BRANCH  16  65
HETATM   65  O   UNK N   1      19.933  17.484   3.733  0.00  0.00    -0.339 OA
BRANCH  65  66
HETATM   66  C   UNK N   1      19.741  18.525   2.783  0.00  0.00     0.361 C 
BRANCH  66  67
HETATM   67  N   UNK N   1      20.305  19.790   3.229  0.00  0.00    -0.385 N 
HETATM   68  H   UNK N   1      20.945  20.409   2.733  0.00  0.00     0.154 HD
HETATM   69  H   UNK N   1      20.022  20.098   4.160  0.00  0.00     0.154 HD
ENDBRANCH  66  67
BRANCH  66  70
HETATM   70  O   UNK N   1      18.399  18.684   2.432  0.00  0.00    -0.355 OA
HETATM   71  H   UNK N   1      17.846  18.371   1.700  0.00  0.00     0.214 HD
ENDBRANCH  66  70
ENDBRANCH  65  66
ENDBRANCH  16  65
BRANCH  20  72
HETATM   72  O   UNK N   1      26.789  16.096   2.779  0.00  0.00    -0.395 OA
HETATM   73  H   UNK N   1      27.083  16.269   1.871  0.00  0.00     0.210 HD
ENDBRANCH  20  72
BRANCH  25  74
HETATM   74  O   UNK N   1      27.681  19.661   4.857  0.00  0.00    -0.384 OA
HETATM   75  C   UNK N   1      26.947  19.885   6.034  0.00  0.00     0.202 C 
ENDBRANCH  25  74
TORSDOF 22
ENDMDL
MODEL 2
REMARK VINA RESULT:      -7.0      2.723      5.434
REMARK  22 active torsions:
REMARK  status: ('A' for Active; 'I' for Inactive)
REMARK    1  A    between atoms: C_16  and  C_15 
REMARK    2  A    between atoms: C_28  and  C_15 
REMARK    3  A    between atoms: C_37  and  C_16 
REMARK    4  A    between atoms: C_29  and  C_17 
REMARK    5  A    between atoms: N_56  and  C_18 
REMARK    6  A    between atoms: C_40  and  C_22 
REMARK    7  A    between atoms: C_41  and  C_22 
REMARK    8  A    between atoms: N_56  and  C_26 
REMARK    9  A    between atoms: O_57  and  C_26 
REMARK   10  A    between atoms: C_40  and  C_28 
REMARK   11  A    between atoms: C_44  and  C_29 
REMARK   12  A    between atoms: C_37  and  C_30 
REMARK   13  A    between atoms: C_44  and  C_30 
REMARK   14  A    between atoms: C_33  and  O_69 
REMARK   15  A    between atoms: C_38  and  O_59 
REMARK   16  A    between atoms: C_39  and  O_62 
REMARK   17  A    between atoms: C_40  and  O_63 
REMARK   18  A    between atoms: C_44  and  O_64 
REMARK   19  A    between atoms: C_45  and  O_65 
REMARK   20  A    between atoms: C_48  and  N_49 
REMARK   21  A    between atoms: O_61  and  C_48 
REMARK   22  A    between atoms: O_69  and  C_48 
ROOT
HETATM    1  C   UNK N   1      28.372  16.818   6.991  0.00  0.00     0.010 C 
HETATM    2  C   UNK N   1      31.457  17.584   6.610  0.00  0.00     0.015 C 
HETATM    3  C   UNK N   1      28.885  13.623   1.529  0.00  0.00     0.015 C 
HETATM    4  C   UNK N   1      29.501   9.974   4.939  0.00  0.00    -0.020 C 
HETATM    5  C   UNK N   1      28.644  11.158   4.559  0.00  0.00     0.059 C 
HETATM    6  C   UNK N   1      30.817  10.166   4.928  0.00  0.00     0.052 C 
HETATM    7  C   UNK N   1      27.967  17.024   4.559  0.00  0.00     0.037 C 
HETATM    8  C   UNK N   1      29.896  15.720   5.242  0.00  0.00     0.036 C 
HETATM    9  C   UNK N   1      25.944  17.169   3.065  0.00  0.00     0.143 C 
HETATM   10  C   UNK N   1      33.647  14.544   9.889  0.00  0.00     0.172 A 
HETATM   11  C   UNK N   1      32.851   7.926   6.715  0.00  0.00     0.178 A 
HETATM   12  C   UNK N   1      34.886  10.380   9.323  0.00  0.00     0.178 A 
HETATM   13  C   UNK N   1      28.468  16.092   5.665  0.00  0.00    -0.014 C 
HETATM   14  C   UNK N   1      31.441  16.191   7.254  0.00  0.00     0.045 C 
HETATM   15  C   UNK N   1      28.503  13.132   2.922  0.00  0.00     0.040 C 
HETATM   16  C   UNK N   1      26.448  17.279   4.511  0.00  0.00     0.136 C 
HETATM   17  C   UNK N   1      33.311  14.717   8.552  0.00  0.00     0.063 A 
HETATM   18  C   UNK N   1      33.695   8.976   6.384  0.00  0.00     0.108 A 
HETATM   19  C   UNK N   1      34.664  11.456   8.481  0.00  0.00     0.108 A 
HETATM   20  C   UNK N   1      30.964  15.141   6.203  0.00  0.00     0.125 C 
HETATM   21  C   UNK N   1      28.811  11.624   3.094  0.00  0.00     0.130 C 
HETATM   22  C   UNK N   1      27.045  13.522   3.228  0.00  0.00     0.140 C 
HETATM   23  C   UNK N   1      31.858   9.258   5.380  0.00  0.00     0.147 A 
HETATM   24  C   UNK N   1      26.225  15.809   2.491  0.00  0.00     0.261 C 
HETATM   25  C   UNK N   1      32.877  16.012   7.882  0.00  0.00     0.178 C 
HETATM   26  C   UNK N   1      34.541   9.679   7.336  0.00  0.00     0.177 A 
HETATM   27  C   UNK N   1      34.247  12.820   8.805  0.00  0.00     0.176 A 
HETATM   28  N   UNK N   1      33.071   9.766   5.517  0.00  0.00    -0.332 N 
ATOM     29  HN  UNK N   1      33.449  10.593   5.053  1.00  0.00     0.168 HD
HETATM   30  N   UNK N   1      33.712  13.634   7.870  0.00  0.00    -0.334 N 
ATOM     31  HN  UNK N   1      33.631  13.464   6.867  1.00  0.00     0.168 HD
HETATM   32  N   UNK N   1      34.492  11.013   7.247  0.00  0.00    -0.330 N 
ATOM     33  HN  UNK N   1      34.352  11.571   6.404  1.00  0.00     0.168 HD
HETATM   34  O   UNK N   1      25.899  15.577   1.345  0.00  0.00    -0.265 OA
HETATM   35  O   UNK N   1      31.718   8.141   6.061  0.00  0.00    -0.303 OA
HETATM   36  O   UNK N   1      34.188  13.347  10.002  0.00  0.00    -0.302 OA
HETATM   37  O   UNK N   1      34.779   9.293   8.571  0.00  0.00    -0.301 OA
HETATM   38  O   UNK N   1      26.907  14.901   3.248  0.00  0.00    -0.315 OA
ENDROOT
BRANCH  22  39
HETATM   39  C   UNK N   1      25.943  12.774   2.477  0.00  0.00     0.065 C 
BRANCH  39  40
HETATM   40  C   UNK N   1      24.762  12.074   3.176  0.00  0.00     0.127 C 
BRANCH  40  41
HETATM   41  C   UNK N   1      23.781  13.110   3.811  0.00  0.00     0.011 C 
HETATM   42  C   UNK N   1      23.072  13.977   2.769  0.00  0.00     0.012 C 
BRANCH  41  43
HETATM   43  C   UNK N   1      22.730  12.458   4.726  0.00  0.00     0.014 C 
BRANCH  43  44
HETATM   44  C   UNK N   1      22.906  12.799   6.216  0.00  0.00     0.079 C 
BRANCH  44  45
HETATM   45  C   UNK N   1      21.696  13.496   6.802  0.00  0.00     0.133 C 
HETATM   46  O   UNK N   1      20.688  12.860   7.070  0.00  0.00    -0.297 OA
BRANCH  45  47
HETATM   47  C   UNK N   1      21.755  14.979   7.030  0.00  0.00     0.081 C 
HETATM   48  C   UNK N   1      23.032  15.601   6.465  0.00  0.00     0.020 C 
BRANCH  47  49
HETATM   49  C   UNK N   1      20.499  15.636   6.411  0.00  0.00     0.139 C 
BRANCH  49  50
HETATM   50  C   UNK N   1      20.608  15.752   4.877  0.00  0.00     0.035 C 
HETATM   51  C   UNK N   1      19.561  14.925   4.141  0.00  0.00     0.017 C 
BRANCH  50  52
HETATM   52  C   UNK N   1      20.524  17.216   4.549  0.00  0.00    -0.003 C 
HETATM   53  C   UNK N   1      21.414  17.795   3.724  0.00  0.00     0.083 C 
BRANCH  53  54
HETATM   54  N   UNK N   1      21.233  19.117   3.227  0.00  0.00    -0.374 N 
HETATM   55  C   UNK N   1      19.969  19.551   2.686  0.00  0.00     0.151 C 
BRANCH  54  56
HETATM   56  C   UNK N   1      22.377  19.971   3.064  0.00  0.00     0.288 C 
BRANCH  56  57
HETATM   57  O   UNK N   1      23.443  19.467   3.808  0.00  0.00    -0.382 OA
HETATM   58  H   UNK N   1      23.676  19.840   4.672  0.00  0.00     0.211 HD
ENDBRANCH  56  57
ENDBRANCH  54  56
ENDBRANCH  53  54
ENDBRANCH  50  52
ENDBRANCH  49  50
BRANCH  49  59
HETATM   59  O   UNK N   1      20.308  16.959   6.911  0.00  0.00    -0.389 OA
HETATM   60  C   UNK N   1      19.932  16.903   8.266  0.00  0.00     0.202 C 
ENDBRANCH  49  59
ENDBRANCH  47  49
ENDBRANCH  45  47
ENDBRANCH  44  45
ENDBRANCH  43  44
ENDBRANCH  41  43
ENDBRANCH  40  41
BRANCH  40  61
HETATM   61  O   UNK N   1      24.087  11.331   2.182  0.00  0.00    -0.390 OA
HETATM   62  C   UNK N   1      24.855  11.227   1.013  0.00  0.00     0.202 C 
ENDBRANCH  40  61
ENDBRANCH  39  40
ENDBRANCH  22  39
BRANCH  21  63
HETATM   63  O   UNK N   1      30.118  11.391   2.591  0.00  0.00    -0.390 OA
HETATM   64  C   UNK N   1      30.052  10.535   1.477  0.00  0.00     0.202 C 
ENDBRANCH  21  63
BRANCH  16  65
HETATM   65  O   UNK N   1      26.034  18.470   5.173  0.00  0.00    -0.339 OA
BRANCH  65  66
HETATM   66  C   UNK N   1      26.820  19.628   4.919  0.00  0.00     0.361 C 
BRANCH  66  67
HETATM   67  N   UNK N   1      27.298  20.250   6.144  0.00  0.00    -0.385 N 
HETATM   68  H   UNK N   1      27.137  21.200   6.477  0.00  0.00     0.154 HD
HETATM   69  H   UNK N   1      27.870  19.659   6.748  0.00  0.00     0.154 HD
ENDBRANCH  66  67
BRANCH  66  70
HETATM   70  O   UNK N   1      26.150  20.562   4.126  0.00  0.00    -0.355 OA
HETATM   71  H   UNK N   1      25.707  20.530   3.264  0.00  0.00     0.214 HD
ENDBRANCH  66  70
ENDBRANCH  65  66
ENDBRANCH  16  65
BRANCH  20  72
HETATM   72  O   UNK N   1      32.040  14.767   5.398  0.00  0.00    -0.395 OA
HETATM   73  H   UNK N   1      32.991  14.835   5.219  0.00  0.00     0.210 HD
ENDBRANCH  20  72
BRANCH  25  74
HETATM   74  O   UNK N   1      33.233  17.122   8.691  0.00  0.00    -0.384 OA
HETATM   75  C   UNK N   1      34.495  17.613   8.317  0.00  0.00     0.202 C 
ENDBRANCH  25  74
TORSDOF 22
ENDMDL
MODEL 3
REMARK VINA RESULT:      -7.0      2.920      5.505
REMARK  22 active torsions:
REMARK  status: ('A' for Active; 'I' for Inactive)
REMARK    1  A    between atoms: C_16  and  C_15 
REMARK    2  A    between atoms: C_28  and  C_15 
REMARK    3  A    between atoms: C_37  and  C_16 
REMARK    4  A    between atoms: C_29  and  C_17 
REMARK    5  A    between atoms: N_56  and  C_18 
REMARK    6  A    between atoms: C_40  and  C_22 
REMARK    7  A    between atoms: C_41  and  C_22 
REMARK    8  A    between atoms: N_56  and  C_26 
REMARK    9  A    between atoms: O_57  and  C_26 
REMARK   10  A    between atoms: C_40  and  C_28 
REMARK   11  A    between atoms: C_44  and  C_29 
REMARK   12  A    between atoms: C_37  and  C_30 
REMARK   13  A    between atoms: C_44  and  C_30 
REMARK   14  A    between atoms: C_33  and  O_69 
REMARK   15  A    between atoms: C_38  and  O_59 
REMARK   16  A    between atoms: C_39  and  O_62 
REMARK   17  A    between atoms: C_40  and  O_63 
REMARK   18  A    between atoms: C_44  and  O_64 
REMARK   19  A    between atoms: C_45  and  O_65 
REMARK   20  A    between atoms: C_48  and  N_49 
REMARK   21  A    between atoms: O_61  and  C_48 
REMARK   22  A    between atoms: O_69  and  C_48 
ROOT
HETATM    1  C   UNK N   1      28.324  16.676   6.949  0.00  0.00     0.010 C 
HETATM    2  C   UNK N   1      31.386  17.516   6.541  0.00  0.00     0.015 C 
HETATM    3  C   UNK N   1      28.918  13.345   1.578  0.00  0.00     0.015 C 
HETATM    4  C   UNK N   1      29.638   9.812   5.087  0.00  0.00    -0.020 C 
HETATM    5  C   UNK N   1      28.749  10.961   4.675  0.00  0.00     0.059 C 
HETATM    6  C   UNK N   1      30.948  10.039   5.067  0.00  0.00     0.052 C 
HETATM    7  C   UNK N   1      27.911  16.803   4.513  0.00  0.00     0.037 C 
HETATM    8  C   UNK N   1      29.876  15.572   5.228  0.00  0.00     0.036 C 
HETATM    9  C   UNK N   1      25.882  16.851   3.020  0.00  0.00     0.143 C 
HETATM   10  C   UNK N   1      33.663  14.630   9.899  0.00  0.00     0.172 A 
HETATM   11  C   UNK N   1      33.045   7.907   6.913  0.00  0.00     0.178 A 
HETATM   12  C   UNK N   1      35.016  10.488   9.447  0.00  0.00     0.178 A 
HETATM   13  C   UNK N   1      28.438  15.916   5.644  0.00  0.00    -0.014 C 
HETATM   14  C   UNK N   1      31.410  16.142   7.223  0.00  0.00     0.045 C 
HETATM   15  C   UNK N   1      28.551  12.883   2.984  0.00  0.00     0.040 C 
HETATM   16  C   UNK N   1      26.385  17.015   4.461  0.00  0.00     0.136 C 
HETATM   17  C   UNK N   1      33.320  14.756   8.559  0.00  0.00     0.063 A 
HETATM   18  C   UNK N   1      33.860   8.970   6.551  0.00  0.00     0.108 A 
HETATM   19  C   UNK N   1      34.763  11.533   8.575  0.00  0.00     0.108 A 
HETATM   20  C   UNK N   1      30.961  15.050   6.204  0.00  0.00     0.125 C 
HETATM   21  C   UNK N   1      28.902  11.390   3.198  0.00  0.00     0.130 C 
HETATM   22  C   UNK N   1      27.084  13.242   3.282  0.00  0.00     0.140 C 
HETATM   23  C   UNK N   1      32.015   9.173   5.543  0.00  0.00     0.147 A 
HETATM   24  C   UNK N   1      26.200  15.484   2.484  0.00  0.00     0.261 C 
HETATM   25  C   UNK N   1      32.851  16.020   7.853  0.00  0.00     0.178 C 
HETATM   26  C   UNK N   1      34.688   9.722   7.481  0.00  0.00     0.177 A 
HETATM   27  C   UNK N   1      34.309  12.894   8.862  0.00  0.00     0.176 A 
HETATM   28  N   UNK N   1      33.214   9.718   5.663  0.00  0.00    -0.332 N 
ATOM     29  HN  UNK N   1      33.568  10.541   5.176  1.00  0.00     0.168 HD
HETATM   30  N   UNK N   1      33.750  13.667   7.906  0.00  0.00    -0.334 N 
ATOM     31  HN  UNK N   1      33.673  13.466   6.908  1.00  0.00     0.168 HD
HETATM   32  N   UNK N   1      34.602  11.052   7.355  0.00  0.00    -0.330 N 
ATOM     33  HN  UNK N   1      34.445  11.582   6.497  1.00  0.00     0.168 HD
HETATM   34  O   UNK N   1      25.879  15.211   1.345  0.00  0.00    -0.265 OA
HETATM   35  O   UNK N   1      31.906   8.072   6.255  0.00  0.00    -0.303 OA
HETATM   36  O   UNK N   1      34.237  13.452  10.045  0.00  0.00    -0.302 OA
HETATM   37  O   UNK N   1      34.937   9.377   8.726  0.00  0.00    -0.301 OA
HETATM   38  O   UNK N   1      26.908  14.616   3.264  0.00  0.00    -0.315 OA
ENDROOT
BRANCH  22  39
HETATM   39  C   UNK N   1      26.002  12.443   2.554  0.00  0.00     0.065 C 
BRANCH  39  40
HETATM   40  C   UNK N   1      25.153  11.350   3.230  0.00  0.00     0.127 C 
BRANCH  40  41
HETATM   41  C   UNK N   1      24.298  11.935   4.400  0.00  0.00     0.011 C 
HETATM   42  C   UNK N   1      25.063  11.996   5.724  0.00  0.00     0.012 C 
BRANCH  41  43
HETATM   43  C   UNK N   1      23.722  13.327   4.085  0.00  0.00     0.014 C 
BRANCH  43  44
HETATM   44  C   UNK N   1      23.843  14.327   5.248  0.00  0.00     0.079 C 
BRANCH  44  45
HETATM   45  C   UNK N   1      22.643  15.244   5.356  0.00  0.00     0.133 C 
HETATM   46  O   UNK N   1      22.332  15.966   4.421  0.00  0.00    -0.297 OA
BRANCH  45  47
HETATM   47  C   UNK N   1      21.857  15.259   6.636  0.00  0.00     0.081 C 
HETATM   48  C   UNK N   1      21.330  16.653   6.975  0.00  0.00     0.020 C 
BRANCH  47  49
HETATM   49  C   UNK N   1      20.699  14.240   6.531  0.00  0.00     0.139 C 
BRANCH  49  50
HETATM   50  C   UNK N   1      20.995  12.950   7.324  0.00  0.00     0.035 C 
HETATM   51  C   UNK N   1      21.310  11.758   6.429  0.00  0.00     0.017 C 
BRANCH  50  52
HETATM   52  C   UNK N   1      22.118  13.275   8.270  0.00  0.00    -0.003 C 
HETATM   53  C   UNK N   1      22.510  12.396   9.209  0.00  0.00     0.083 C 
BRANCH  53  54
HETATM   54  N   UNK N   1      23.702  12.585   9.967  0.00  0.00    -0.374 N 
HETATM   55  C   UNK N   1      24.884  13.165   9.379  0.00  0.00     0.151 C 
BRANCH  54  56
HETATM   56  C   UNK N   1      23.804  11.998  11.275  0.00  0.00     0.288 C 
BRANCH  56  57
HETATM   57  O   UNK N   1      25.016  12.366  11.856  0.00  0.00    -0.382 OA
HETATM   58  H   UNK N   1      25.242  13.297  12.005  0.00  0.00     0.211 HD
ENDBRANCH  56  57
ENDBRANCH  54  56
ENDBRANCH  53  54
ENDBRANCH  50  52
ENDBRANCH  49  50
BRANCH  49  59
HETATM   59  O   UNK N   1      20.476  13.847   5.177  0.00  0.00    -0.389 OA
HETATM   60  C   UNK N   1      19.180  14.228   4.782  0.00  0.00     0.202 C 
ENDBRANCH  49  59
ENDBRANCH  47  49
ENDBRANCH  45  47
ENDBRANCH  44  45
ENDBRANCH  43  44
ENDBRANCH  41  43
ENDBRANCH  40  41
BRANCH  40  61
HETATM   61  O   UNK N   1      24.296  10.829   2.235  0.00  0.00    -0.390 OA
HETATM   62  C   UNK N   1      24.749  11.160   0.950  0.00  0.00     0.202 C 
ENDBRANCH  40  61
ENDBRANCH  39  40
ENDBRANCH  22  39
BRANCH  21  63
HETATM   63  O   UNK N   1      30.214  11.179   2.699  0.00  0.00    -0.390 OA
HETATM   64  C   UNK N   1      30.169  10.292   1.608  0.00  0.00     0.202 C 
ENDBRANCH  21  63
BRANCH  16  65
HETATM   65  O   UNK N   1      25.939  18.212   5.090  0.00  0.00    -0.339 OA
BRANCH  65  66
HETATM   66  C   UNK N   1      24.758  18.795   4.552  0.00  0.00     0.361 C 
BRANCH  66  67
HETATM   67  N   UNK N   1      24.948  20.189   4.183  0.00  0.00    -0.385 N 
HETATM   68  H   UNK N   1      24.430  21.006   4.504  0.00  0.00     0.154 HD
HETATM   69  H   UNK N   1      25.698  20.372   3.515  0.00  0.00     0.154 HD
ENDBRANCH  66  67
BRANCH  66  70
HETATM   70  O   UNK N   1      23.662  18.661   5.408  0.00  0.00    -0.355 OA
HETATM   71  H   UNK N   1      23.325  19.162   6.166  0.00  0.00     0.214 HD
ENDBRANCH  66  70
ENDBRANCH  65  66
ENDBRANCH  16  65
BRANCH  20  72
HETATM   72  O   UNK N   1      32.046  14.683   5.407  0.00  0.00    -0.395 OA
HETATM   73  H   UNK N   1      32.454  14.010   4.841  0.00  0.00     0.210 HD
ENDBRANCH  20  72
BRANCH  25  74
HETATM   74  O   UNK N   1      33.177  17.161   8.631  0.00  0.00    -0.384 OA
HETATM   75  C   UNK N   1      34.426  17.675   8.242  0.00  0.00     0.202 C 
ENDBRANCH  25  74
TORSDOF 22
ENDMDL
MODEL 4
REMARK VINA RESULT:      -6.9      4.690      8.980
REMARK  22 active torsions:
REMARK  status: ('A' for Active; 'I' for Inactive)
REMARK    1  A    between atoms: C_16  and  C_15 
REMARK    2  A    between atoms: C_28  and  C_15 
REMARK    3  A    between atoms: C_37  and  C_16 
REMARK    4  A    between atoms: C_29  and  C_17 
REMARK    5  A    between atoms: N_56  and  C_18 
REMARK    6  A    between atoms: C_40  and  C_22 
REMARK    7  A    between atoms: C_41  and  C_22 
REMARK    8  A    between atoms: N_56  and  C_26 
REMARK    9  A    between atoms: O_57  and  C_26 
REMARK   10  A    between atoms: C_40  and  C_28 
REMARK   11  A    between atoms: C_44  and  C_29 
REMARK   12  A    between atoms: C_37  and  C_30 
REMARK   13  A    between atoms: C_44  and  C_30 
REMARK   14  A    between atoms: C_33  and  O_69 
REMARK   15  A    between atoms: C_38  and  O_59 
REMARK   16  A    between atoms: C_39  and  O_62 
REMARK   17  A    between atoms: C_40  and  O_63 
REMARK   18  A    between atoms: C_44  and  O_64 
REMARK   19  A    between atoms: C_45  and  O_65 
REMARK   20  A    between atoms: C_48  and  N_49 
REMARK   21  A    between atoms: O_61  and  C_48 
REMARK   22  A    between atoms: O_69  and  C_48 
ROOT
HETATM    1  C   UNK N   1      31.815  15.257   9.204  0.00  0.00     0.010 C 
HETATM    2  C   UNK N   1      34.590  16.763   9.736  0.00  0.00     0.015 C 
HETATM    3  C   UNK N   1      32.867  16.306   3.032  0.00  0.00     0.015 C 
HETATM    4  C   UNK N   1      34.529  11.590   3.591  0.00  0.00    -0.020 C 
HETATM    5  C   UNK N   1      33.387  12.527   3.904  0.00  0.00     0.059 C 
HETATM    6  C   UNK N   1      35.753  12.037   3.855  0.00  0.00     0.052 C 
HETATM    7  C   UNK N   1      31.263  16.815   7.364  0.00  0.00     0.037 C 
HETATM    8  C   UNK N   1      33.486  15.841   7.346  0.00  0.00     0.036 C 
HETATM    9  C   UNK N   1      29.203  17.388   6.032  0.00  0.00     0.143 C 
HETATM   10  C   UNK N   1      37.616  12.940  10.748  0.00  0.00     0.172 A 
HETATM   11  C   UNK N   1      38.361   9.702   4.156  0.00  0.00     0.178 A 
HETATM   12  C   UNK N   1      39.832  10.414   7.936  0.00  0.00     0.178 A 
HETATM   13  C   UNK N   1      32.031  15.543   7.732  0.00  0.00    -0.014 C 
HETATM   14  C   UNK N   1      34.952  15.310   9.401  0.00  0.00     0.045 C 
HETATM   15  C   UNK N   1      32.683  14.994   3.788  0.00  0.00     0.040 C 
HETATM   16  C   UNK N   1      29.728  16.697   7.298  0.00  0.00     0.136 C 
HETATM   17  C   UNK N   1      37.187  13.816   9.758  0.00  0.00     0.063 A 
HETATM   18  C   UNK N   1      38.899  10.889   4.630  0.00  0.00     0.108 A 
HETATM   19  C   UNK N   1      39.309  11.696   7.896  0.00  0.00     0.108 A 
HETATM   20  C   UNK N   1      34.707  15.053   7.882  0.00  0.00     0.125 C 
HETATM   21  C   UNK N   1      33.367  13.816   3.050  0.00  0.00     0.130 C 
HETATM   22  C   UNK N   1      31.189  14.774   4.090  0.00  0.00     0.140 C 
HETATM   23  C   UNK N   1      37.008  11.306   3.789  0.00  0.00     0.147 A 
HETATM   24  C   UNK N   1      29.790  16.774   4.792  0.00  0.00     0.261 C 
HETATM   25  C   UNK N   1      36.414  15.111   9.960  0.00  0.00     0.178 C 
HETATM   26  C   UNK N   1      39.585  11.026   5.906  0.00  0.00     0.177 A 
HETATM   27  C   UNK N   1      38.579  12.436   8.925  0.00  0.00     0.176 A 
HETATM   28  N   UNK N   1      38.060  11.879   4.349  0.00  0.00    -0.332 N 
ATOM     29  HN  UNK N   1      38.197  12.874   4.528  1.00  0.00     0.168 HD
HETATM   30  N   UNK N   1      37.816  13.506   8.615  0.00  0.00    -0.334 N 
ATOM     31  HN  UNK N   1      37.735  13.974   7.712  1.00  0.00     0.168 HD
HETATM   32  N   UNK N   1      39.199  12.080   6.636  0.00  0.00    -0.330 N 
ATOM     33  HN  UNK N   1      38.886  12.988   6.292  1.00  0.00     0.168 HD
HETATM   34  O   UNK N   1      29.482  17.229   3.709  0.00  0.00    -0.265 OA
HETATM   35  O   UNK N   1      37.182  10.011   3.634  0.00  0.00    -0.303 OA
HETATM   36  O   UNK N   1      38.444  12.086  10.180  0.00  0.00    -0.302 OA
HETATM   37  O   UNK N   1      39.966  10.029   6.674  0.00  0.00    -0.301 OA
HETATM   38  O   UNK N   1      30.711  15.775   4.922  0.00  0.00    -0.315 OA
ENDROOT
BRANCH  22  39
HETATM   39  C   UNK N   1      30.278  14.422   2.914  0.00  0.00     0.065 C 
BRANCH  39  40
HETATM   40  C   UNK N   1      29.298  13.233   2.924  0.00  0.00     0.127 C 
BRANCH  40  41
HETATM   41  C   UNK N   1      27.906  13.636   2.341  0.00  0.00     0.011 C 
HETATM   42  C   UNK N   1      26.898  12.485   2.353  0.00  0.00     0.012 C 
BRANCH  41  43
HETATM   43  C   UNK N   1      27.289  14.855   3.050  0.00  0.00     0.014 C 
BRANCH  43  44
HETATM   44  C   UNK N   1      25.930  15.288   2.472  0.00  0.00     0.079 C 
BRANCH  44  45
HETATM   45  C   UNK N   1      25.145  16.166   3.423  0.00  0.00     0.133 C 
HETATM   46  O   UNK N   1      25.497  17.318   3.630  0.00  0.00    -0.297 OA
BRANCH  45  47
HETATM   47  C   UNK N   1      23.943  15.591   4.115  0.00  0.00     0.081 C 
HETATM   48  C   UNK N   1      23.735  14.114   3.781  0.00  0.00     0.020 C 
BRANCH  47  49
HETATM   49  C   UNK N   1      24.090  15.799   5.640  0.00  0.00     0.139 C 
BRANCH  49  50
HETATM   50  C   UNK N   1      24.962  14.703   6.288  0.00  0.00     0.035 C 
HETATM   51  C   UNK N   1      26.309  15.223   6.774  0.00  0.00     0.017 C 
BRANCH  50  52
HETATM   52  C   UNK N   1      24.142  14.099   7.394  0.00  0.00    -0.003 C 
HETATM   53  C   UNK N   1      24.717  13.362   8.360  0.00  0.00     0.083 C 
BRANCH  53  54
HETATM   54  N   UNK N   1      24.006  12.964   9.529  0.00  0.00    -0.374 N 
HETATM   55  C   UNK N   1      22.645  13.379   9.759  0.00  0.00     0.151 C 
BRANCH  54  56
HETATM   56  C   UNK N   1      24.715  12.317  10.598  0.00  0.00     0.288 C 
BRANCH  56  57
HETATM   57  O   UNK N   1      25.676  13.186  11.112  0.00  0.00    -0.382 OA
HETATM   58  H   UNK N   1      26.607  12.926  11.183  0.00  0.00     0.211 HD
ENDBRANCH  56  57
ENDBRANCH  54  56
ENDBRANCH  53  54
ENDBRANCH  50  52
ENDBRANCH  49  50
BRANCH  49  59
HETATM   59  O   UNK N   1      22.821  15.754   6.293  0.00  0.00    -0.389 OA
HETATM   60  C   UNK N   1      22.122  16.951   6.049  0.00  0.00     0.202 C 
ENDBRANCH  49  59
ENDBRANCH  47  49
ENDBRANCH  45  47
ENDBRANCH  44  45
ENDBRANCH  43  44
ENDBRANCH  41  43
ENDBRANCH  40  41
BRANCH  40  61
HETATM   61  O   UNK N   1      29.875  12.227   2.117  0.00  0.00    -0.390 OA
HETATM   62  C   UNK N   1      30.217  11.099   2.876  0.00  0.00     0.202 C 
ENDBRANCH  40  61
ENDBRANCH  39  40
ENDBRANCH  22  39
BRANCH  21  63
HETATM   63  O   UNK N   1      34.666  14.242   2.670  0.00  0.00    -0.390 OA
HETATM   64  C   UNK N   1      34.828  14.088   1.282  0.00  0.00     0.202 C 
ENDBRANCH  21  63
BRANCH  16  65
HETATM   65  O   UNK N   1      29.059  17.098   8.489  0.00  0.00    -0.339 OA
BRANCH  65  66
HETATM   66  C   UNK N   1      29.074  18.493   8.770  0.00  0.00     0.361 C 
BRANCH  66  67
HETATM   67  N   UNK N   1      29.832  18.806   9.971  0.00  0.00    -0.385 N 
HETATM   68  H   UNK N   1      30.182  18.167  10.685  0.00  0.00     0.154 HD
HETATM   69  H   UNK N   1      30.041  19.794  10.119  0.00  0.00     0.154 HD
ENDBRANCH  66  67
BRANCH  66  70
HETATM   70  O   UNK N   1      27.788  19.033   8.849  0.00  0.00    -0.355 OA
HETATM   71  H   UNK N   1      26.896  18.660   8.907  0.00  0.00     0.214 HD
ENDBRANCH  66  70
ENDBRANCH  65  66
ENDBRANCH  16  65
BRANCH  20  72
HETATM   72  O   UNK N   1      35.805  15.505   7.150  0.00  0.00    -0.395 OA
HETATM   73  H   UNK N   1      36.672  15.302   6.766  0.00  0.00     0.210 HD
ENDBRANCH  20  72
BRANCH  25  74
HETATM   74  O   UNK N   1      36.517  15.534  11.311  0.00  0.00    -0.384 OA
HETATM   75  C   UNK N   1      35.576  14.858  12.106  0.00  0.00     0.202 C 
ENDBRANCH  25  74
TORSDOF 22
ENDMDL
MODEL 5
REMARK VINA RESULT:      -6.9      2.958      5.920
REMARK  22 active torsions:
REMARK  status: ('A' for Active; 'I' for Inactive)
REMARK    1  A    between atoms: C_16  and  C_15 
REMARK    2  A    between atoms: C_28  and  C_15 
REMARK    3  A    between atoms: C_37  and  C_16 
REMARK    4  A    between atoms: C_29  and  C_17 
REMARK    5  A    between atoms: N_56  and  C_18 
REMARK    6  A    between atoms: C_40  and  C_22 
REMARK    7  A    between atoms: C_41  and  C_22 
REMARK    8  A    between atoms: N_56  and  C_26 
REMARK    9  A    between atoms: O_57  and  C_26 
REMARK   10  A    between atoms: C_40  and  C_28 
REMARK   11  A    between atoms: C_44  and  C_29 
REMARK   12  A    between atoms: C_37  and  C_30 
REMARK   13  A    between atoms: C_44  and  C_30 
REMARK   14  A    between atoms: C_33  and  O_69 
REMARK   15  A    between atoms: C_38  and  O_59 
REMARK   16  A    between atoms: C_39  and  O_62 
REMARK   17  A    between atoms: C_40  and  O_63 
REMARK   18  A    between atoms: C_44  and  O_64 
REMARK   19  A    between atoms: C_45  and  O_65 
REMARK   20  A    between atoms: C_48  and  N_49 
REMARK   21  A    between atoms: O_61  and  C_48 
REMARK   22  A    between atoms: O_69  and  C_48 
ROOT
HETATM    1  C   UNK N   1      28.410  16.814   7.106  0.00  0.00     0.010 C 
HETATM    2  C   UNK N   1      31.495  17.572   6.712  0.00  0.00     0.015 C 
HETATM    3  C   UNK N   1      28.871  13.676   1.608  0.00  0.00     0.015 C 
HETATM    4  C   UNK N   1      29.496   9.989   4.974  0.00  0.00    -0.020 C 
HETATM    5  C   UNK N   1      28.642  11.180   4.612  0.00  0.00     0.059 C 
HETATM    6  C   UNK N   1      30.813  10.175   4.955  0.00  0.00     0.052 C 
HETATM    7  C   UNK N   1      27.989  17.048   4.680  0.00  0.00     0.037 C 
HETATM    8  C   UNK N   1      29.917  15.729   5.335  0.00  0.00     0.036 C 
HETATM    9  C   UNK N   1      25.956  17.218   3.202  0.00  0.00     0.143 C 
HETATM   10  C   UNK N   1      33.696  14.488   9.943  0.00  0.00     0.172 A 
HETATM   11  C   UNK N   1      32.850   7.909   6.704  0.00  0.00     0.178 A 
HETATM   12  C   UNK N   1      34.914  10.326   9.323  0.00  0.00     0.178 A 
HETATM   13  C   UNK N   1      28.494  16.102   5.772  0.00  0.00    -0.014 C 
HETATM   14  C   UNK N   1      31.479  16.173   7.341  0.00  0.00     0.045 C 
HETATM   15  C   UNK N   1      28.497  13.172   2.997  0.00  0.00     0.040 C 
HETATM   16  C   UNK N   1      26.470  17.310   4.645  0.00  0.00     0.136 C 
HETATM   17  C   UNK N   1      33.351  14.677   8.610  0.00  0.00     0.063 A 
HETATM   18  C   UNK N   1      33.696   8.959   6.378  0.00  0.00     0.108 A 
HETATM   19  C   UNK N   1      34.690  11.412   8.494  0.00  0.00     0.108 A 
HETATM   20  C   UNK N   1      30.990  15.136   6.283  0.00  0.00     0.125 C 
HETATM   21  C   UNK N   1      28.801  11.661   3.152  0.00  0.00     0.130 C 
HETATM   22  C   UNK N   1      27.043  13.564   3.318  0.00  0.00     0.140 C 
HETATM   23  C   UNK N   1      31.853   9.258   5.390  0.00  0.00     0.147 A 
HETATM   24  C   UNK N   1      26.227  15.863   2.612  0.00  0.00     0.261 C 
HETATM   25  C   UNK N   1      32.918  15.981   7.957  0.00  0.00     0.178 C 
HETATM   26  C   UNK N   1      34.552   9.648   7.331  0.00  0.00     0.177 A 
HETATM   27  C   UNK N   1      34.281  12.774   8.836  0.00  0.00     0.176 A 
HETATM   28  N   UNK N   1      33.070   9.760   5.524  0.00  0.00    -0.332 N 
ATOM     29  HN  UNK N   1      33.447  10.590   5.067  1.00  0.00     0.168 HD
HETATM   30  N   UNK N   1      33.743  13.600   7.913  0.00  0.00    -0.334 N 
ATOM     31  HN  UNK N   1      33.654  13.441   6.910  1.00  0.00     0.168 HD
HETATM   32  N   UNK N   1      34.508  10.983   7.257  0.00  0.00    -0.330 N 
ATOM     33  HN  UNK N   1      34.364  11.551   6.422  1.00  0.00     0.168 HD
HETATM   34  O   UNK N   1      25.892  15.644   1.465  0.00  0.00    -0.265 OA
HETATM   35  O   UNK N   1      31.714   8.134   6.060  0.00  0.00    -0.303 OA
HETATM   36  O   UNK N   1      34.232  13.288  10.040  0.00  0.00    -0.302 OA
HETATM   37  O   UNK N   1      34.797   9.247   8.560  0.00  0.00    -0.301 OA
HETATM   38  O   UNK N   1      26.911  14.944   3.354  0.00  0.00    -0.315 OA
ENDROOT
BRANCH  22  39
HETATM   39  C   UNK N   1      25.933  12.829   2.567  0.00  0.00     0.065 C 
BRANCH  39  40
HETATM   40  C   UNK N   1      24.690  12.235   3.255  0.00  0.00     0.127 C 
BRANCH  40  41
HETATM   41  C   UNK N   1      23.575  13.313   3.447  0.00  0.00     0.011 C 
HETATM   42  C   UNK N   1      22.983  13.801   2.123  0.00  0.00     0.012 C 
BRANCH  41  43
HETATM   43  C   UNK N   1      22.436  12.842   4.367  0.00  0.00     0.014 C 
BRANCH  43  44
HETATM   44  C   UNK N   1      21.034  13.002   3.753  0.00  0.00     0.079 C 
BRANCH  44  45
HETATM   45  C   UNK N   1      20.086  13.765   4.654  0.00  0.00     0.133 C 
HETATM   46  O   UNK N   1      19.840  13.355   5.778  0.00  0.00    -0.297 OA
BRANCH  45  47
HETATM   47  C   UNK N   1      19.445  15.019   4.133  0.00  0.00     0.081 C 
HETATM   48  C   UNK N   1      18.671  15.767   5.218  0.00  0.00     0.020 C 
BRANCH  47  49
HETATM   49  C   UNK N   1      20.534  15.922   3.509  0.00  0.00     0.139 C 
BRANCH  49  50
HETATM   50  C   UNK N   1      21.098  16.932   4.530  0.00  0.00     0.035 C 
HETATM   51  C   UNK N   1      22.476  16.544   5.054  0.00  0.00     0.017 C 
BRANCH  50  52
HETATM   52  C   UNK N   1      21.095  18.275   3.854  0.00  0.00    -0.003 C 
HETATM   53  C   UNK N   1      22.223  18.997   3.739  0.00  0.00     0.083 C 
BRANCH  53  54
HETATM   54  N   UNK N   1      22.294  20.160   2.920  0.00  0.00    -0.374 N 
HETATM   55  C   UNK N   1      21.164  20.603   2.143  0.00  0.00     0.151 C 
BRANCH  54  56
HETATM   56  C   UNK N   1      23.568  20.785   2.695  0.00  0.00     0.288 C 
BRANCH  56  57
HETATM   57  O   UNK N   1      24.465  20.382   3.683  0.00  0.00    -0.382 OA
HETATM   58  H   UNK N   1      25.405  20.613   3.636  0.00  0.00     0.211 HD
ENDBRANCH  56  57
ENDBRANCH  54  56
ENDBRANCH  53  54
ENDBRANCH  50  52
ENDBRANCH  49  50
BRANCH  49  59
HETATM   59  O   UNK N   1      20.013  16.685   2.421  0.00  0.00    -0.389 OA
HETATM   60  C   UNK N   1      19.994  15.896   1.256  0.00  0.00     0.202 C 
ENDBRANCH  49  59
ENDBRANCH  47  49
ENDBRANCH  45  47
ENDBRANCH  44  45
ENDBRANCH  43  44
ENDBRANCH  41  43
ENDBRANCH  40  41
BRANCH  40  61
HETATM   61  O   UNK N   1      24.212  11.207   2.412  0.00  0.00    -0.390 OA
HETATM   62  C   UNK N   1      25.261  10.597   1.709  0.00  0.00     0.202 C 
ENDBRANCH  40  61
ENDBRANCH  39  40
ENDBRANCH  22  39
BRANCH  21  63
HETATM   63  O   UNK N   1      30.103  11.428   2.637  0.00  0.00    -0.390 OA
HETATM   64  C   UNK N   1      30.025  10.583   1.515  0.00  0.00     0.202 C 
ENDBRANCH  21  63
BRANCH  16  65
HETATM   65  O   UNK N   1      26.066  18.495   5.323  0.00  0.00    -0.339 OA
BRANCH  65  66
HETATM   66  C   UNK N   1      27.075  19.480   5.510  0.00  0.00     0.361 C 
BRANCH  66  67
HETATM   67  N   UNK N   1      26.973  20.136   6.805  0.00  0.00    -0.385 N 
HETATM   68  H   UNK N   1      26.147  20.262   7.388  0.00  0.00     0.154 HD
HETATM   69  H   UNK N   1      27.843  20.520   7.178  0.00  0.00     0.154 HD
ENDBRANCH  66  67
BRANCH  66  70
HETATM   70  O   UNK N   1      27.093  20.426   4.483  0.00  0.00    -0.355 OA
HETATM   71  H   UNK N   1      26.882  21.370   4.424  0.00  0.00     0.214 HD
ENDBRANCH  66  70
ENDBRANCH  65  66
ENDBRANCH  16  65
BRANCH  20  72
HETATM   72  O   UNK N   1      32.058  14.766   5.466  0.00  0.00    -0.395 OA
HETATM   73  H   UNK N   1      32.637  14.056   5.147  0.00  0.00     0.210 HD
ENDBRANCH  20  72
BRANCH  25  74
HETATM   74  O   UNK N   1      33.284  17.081   8.776  0.00  0.00    -0.384 OA
HETATM   75  C   UNK N   1      34.569  17.536   8.434  0.00  0.00     0.202 C 
ENDBRANCH  25  74
TORSDOF 22
ENDMDL
MODEL 6
REMARK VINA RESULT:      -6.9      2.646      5.079
REMARK  22 active torsions:
REMARK  status: ('A' for Active; 'I' for Inactive)
REMARK    1  A    between atoms: C_16  and  C_15 
REMARK    2  A    between atoms: C_28  and  C_15 
REMARK    3  A    between atoms: C_37  and  C_16 
REMARK    4  A    between atoms: C_29  and  C_17 
REMARK    5  A    between atoms: N_56  and  C_18 
REMARK    6  A    between atoms: C_40  and  C_22 
REMARK    7  A    between atoms: C_41  and  C_22 
REMARK    8  A    between atoms: N_56  and  C_26 
REMARK    9  A    between atoms: O_57  and  C_26 
REMARK   10  A    between atoms: C_40  and  C_28 
REMARK   11  A    between atoms: C_44  and  C_29 
REMARK   12  A    between atoms: C_37  and  C_30 
REMARK   13  A    between atoms: C_44  and  C_30 
REMARK   14  A    between atoms: C_33  and  O_69 
REMARK   15  A    between atoms: C_38  and  O_59 
REMARK   16  A    between atoms: C_39  and  O_62 
REMARK   17  A    between atoms: C_40  and  O_63 
REMARK   18  A    between atoms: C_44  and  O_64 
REMARK   19  A    between atoms: C_45  and  O_65 
REMARK   20  A    between atoms: C_48  and  N_49 
REMARK   21  A    between atoms: O_61  and  C_48 
REMARK   22  A    between atoms: O_69  and  C_48 
ROOT
HETATM    1  C   UNK N   1      28.373  16.800   7.104  0.00  0.00     0.010 C 
HETATM    2  C   UNK N   1      31.445  17.603   6.698  0.00  0.00     0.015 C 
HETATM    3  C   UNK N   1      28.869  13.642   1.620  0.00  0.00     0.015 C 
HETATM    4  C   UNK N   1      29.558   9.982   5.002  0.00  0.00    -0.020 C 
HETATM    5  C   UNK N   1      28.685  11.158   4.637  0.00  0.00     0.059 C 
HETATM    6  C   UNK N   1      30.872  10.188   4.980  0.00  0.00     0.052 C 
HETATM    7  C   UNK N   1      27.942  17.016   4.677  0.00  0.00     0.037 C 
HETATM    8  C   UNK N   1      29.892  15.729   5.335  0.00  0.00     0.036 C 
HETATM    9  C   UNK N   1      25.904  17.147   3.204  0.00  0.00     0.143 C 
HETATM   10  C   UNK N   1      33.700  14.569   9.939  0.00  0.00     0.172 A 
HETATM   11  C   UNK N   1      32.947   7.961   6.735  0.00  0.00     0.178 A 
HETATM   12  C   UNK N   1      34.980  10.423   9.337  0.00  0.00     0.178 A 
HETATM   13  C   UNK N   1      28.464  16.083   5.773  0.00  0.00    -0.014 C 
HETATM   14  C   UNK N   1      31.451  16.206   7.334  0.00  0.00     0.045 C 
HETATM   15  C   UNK N   1      28.506  13.139   3.013  0.00  0.00     0.040 C 
HETATM   16  C   UNK N   1      26.420  17.254   4.645  0.00  0.00     0.136 C 
HETATM   17  C   UNK N   1      33.349  14.746   8.607  0.00  0.00     0.063 A 
HETATM   18  C   UNK N   1      33.776   9.023   6.402  0.00  0.00     0.108 A 
HETATM   19  C   UNK N   1      34.738  11.501   8.504  0.00  0.00     0.108 A 
HETATM   20  C   UNK N   1      30.976  15.157   6.283  0.00  0.00     0.125 C 
HETATM   21  C   UNK N   1      28.833  11.634   3.174  0.00  0.00     0.130 C 
HETATM   22  C   UNK N   1      27.047  13.511   3.335  0.00  0.00     0.140 C 
HETATM   23  C   UNK N   1      31.927   9.289   5.417  0.00  0.00     0.147 A 
HETATM   24  C   UNK N   1      26.194  15.793   2.619  0.00  0.00     0.261 C 
HETATM   25  C   UNK N   1      32.895  16.040   7.948  0.00  0.00     0.178 C 
HETATM   26  C   UNK N   1      34.624   9.729   7.350  0.00  0.00     0.177 A 
HETATM   27  C   UNK N   1      34.308  12.858   8.839  0.00  0.00     0.176 A 
HETATM   28  N   UNK N   1      33.136   9.810   5.545  0.00  0.00    -0.332 N 
ATOM     29  HN  UNK N   1      33.500  10.643   5.083  1.00  0.00     0.168 HD
HETATM   30  N   UNK N   1      33.756  13.672   7.914  0.00  0.00    -0.334 N 
ATOM     31  HN  UNK N   1      33.667  13.506   6.911  1.00  0.00     0.168 HD
HETATM   32  N   UNK N   1      34.559  11.063   7.269  0.00  0.00    -0.330 N 
ATOM     33  HN  UNK N   1      34.405  11.625   6.431  1.00  0.00     0.168 HD
HETATM   34  O   UNK N   1      25.860  15.564   1.475  0.00  0.00    -0.265 OA
HETATM   35  O   UNK N   1      31.806   8.167   6.093  0.00  0.00    -0.303 OA
HETATM   36  O   UNK N   1      34.255  13.378  10.041  0.00  0.00    -0.302 OA
HETATM   37  O   UNK N   1      34.877   9.339   8.580  0.00  0.00    -0.301 OA
HETATM   38  O   UNK N   1      26.894  14.888   3.364  0.00  0.00    -0.315 OA
ENDROOT
BRANCH  22  39
HETATM   39  C   UNK N   1      25.946  12.755   2.590  0.00  0.00     0.065 C 
BRANCH  39  40
HETATM   40  C   UNK N   1      24.773  12.049   3.295  0.00  0.00     0.127 C 
BRANCH  40  41
HETATM   41  C   UNK N   1      23.949  13.049   4.168  0.00  0.00     0.011 C 
HETATM   42  C   UNK N   1      23.053  13.969   3.337  0.00  0.00     0.012 C 
BRANCH  41  43
HETATM   43  C   UNK N   1      23.096  12.347   5.240  0.00  0.00     0.014 C 
BRANCH  43  44
HETATM   44  C   UNK N   1      23.813  12.176   6.591  0.00  0.00     0.079 C 
BRANCH  44  45
HETATM   45  C   UNK N   1      23.488  13.286   7.568  0.00  0.00     0.133 C 
HETATM   46  O   UNK N   1      24.371  13.783   8.251  0.00  0.00    -0.297 OA
BRANCH  45  47
HETATM   47  C   UNK N   1      22.064  13.746   7.693  0.00  0.00     0.081 C 
HETATM   48  C   UNK N   1      21.504  13.520   9.096  0.00  0.00     0.020 C 
BRANCH  47  49
HETATM   49  C   UNK N   1      21.979  15.239   7.297  0.00  0.00     0.139 C 
BRANCH  49  50
HETATM   50  C   UNK N   1      20.706  15.545   6.482  0.00  0.00     0.035 C 
HETATM   51  C   UNK N   1      20.144  14.320   5.771  0.00  0.00     0.017 C 
BRANCH  50  52
HETATM   52  C   UNK N   1      19.722  16.161   7.437  0.00  0.00    -0.003 C 
HETATM   53  C   UNK N   1      20.131  16.980   8.423  0.00  0.00     0.083 C 
BRANCH  53  54
HETATM   54  N   UNK N   1      19.213  17.744   9.198  0.00  0.00    -0.374 N 
HETATM   55  C   UNK N   1      17.824  17.369   9.306  0.00  0.00     0.151 C 
BRANCH  54  56
HETATM   56  C   UNK N   1      19.619  19.023   9.712  0.00  0.00     0.288 C 
BRANCH  56  57
HETATM   57  O   UNK N   1      18.636  19.512  10.571  0.00  0.00    -0.382 OA
HETATM   58  H   UNK N   1      17.711  19.581  10.292  0.00  0.00     0.211 HD
ENDBRANCH  56  57
ENDBRANCH  54  56
ENDBRANCH  53  54
ENDBRANCH  50  52
ENDBRANCH  49  50
BRANCH  49  59
HETATM   59  O   UNK N   1      23.089  15.623   6.486  0.00  0.00    -0.389 OA
HETATM   60  C   UNK N   1      22.798  16.834   5.830  0.00  0.00     0.202 C 
ENDBRANCH  49  59
ENDBRANCH  47  49
ENDBRANCH  45  47
ENDBRANCH  44  45
ENDBRANCH  43  44
ENDBRANCH  41  43
ENDBRANCH  40  41
BRANCH  40  61
HETATM   61  O   UNK N   1      23.949  11.520   2.277  0.00  0.00    -0.390 OA
HETATM   62  C   UNK N   1      24.435  10.287   1.818  0.00  0.00     0.202 C 
ENDBRANCH  40  61
ENDBRANCH  39  40
ENDBRANCH  22  39
BRANCH  21  63
HETATM   63  O   UNK N   1      30.137  11.419   2.657  0.00  0.00    -0.390 OA
HETATM   64  C   UNK N   1      30.070  10.567   1.540  0.00  0.00     0.202 C 
ENDBRANCH  21  63
BRANCH  16  65
HETATM   65  O   UNK N   1      25.999  18.436   5.318  0.00  0.00    -0.339 OA
BRANCH  65  66
HETATM   66  C   UNK N   1      26.961  19.481   5.401  0.00  0.00     0.361 C 
BRANCH  66  67
HETATM   67  N   UNK N   1      26.932  20.157   6.688  0.00  0.00    -0.385 N 
HETATM   68  H   UNK N   1      27.232  19.804   7.597  0.00  0.00     0.154 HD
HETATM   69  H   UNK N   1      26.563  21.109   6.682  0.00  0.00     0.154 HD
ENDBRANCH  66  67
BRANCH  66  70
HETATM   70  O   UNK N   1      26.835  20.404   4.361  0.00  0.00    -0.355 OA
HETATM   71  H   UNK N   1      27.456  20.954   3.860  0.00  0.00     0.214 HD
ENDBRANCH  66  70
ENDBRANCH  65  66
ENDBRANCH  16  65
BRANCH  20  72
HETATM   72  O   UNK N   1      32.048  14.799   5.465  0.00  0.00    -0.395 OA
HETATM   73  H   UNK N   1      32.399  14.193   4.794  0.00  0.00     0.210 HD
ENDBRANCH  20  72
BRANCH  25  74
HETATM   74  O   UNK N   1      33.246  17.149   8.760  0.00  0.00    -0.384 OA
HETATM   75  C   UNK N   1      34.496  17.661   8.373  0.00  0.00     0.202 C 
ENDBRANCH  25  74
TORSDOF 22
ENDMDL
MODEL 7
REMARK VINA RESULT:      -6.8      4.512     11.395
REMARK  22 active torsions:
REMARK  status: ('A' for Active; 'I' for Inactive)
REMARK    1  A    between atoms: C_16  and  C_15 
REMARK    2  A    between atoms: C_28  and  C_15 
REMARK    3  A    between atoms: C_37  and  C_16 
REMARK    4  A    between atoms: C_29  and  C_17 
REMARK    5  A    between atoms: N_56  and  C_18 
REMARK    6  A    between atoms: C_40  and  C_22 
REMARK    7  A    between atoms: C_41  and  C_22 
REMARK    8  A    between atoms: N_56  and  C_26 
REMARK    9  A    between atoms: O_57  and  C_26 
REMARK   10  A    between atoms: C_40  and  C_28 
REMARK   11  A    between atoms: C_44  and  C_29 
REMARK   12  A    between atoms: C_37  and  C_30 
REMARK   13  A    between atoms: C_44  and  C_30 
REMARK   14  A    between atoms: C_33  and  O_69 
REMARK   15  A    between atoms: C_38  and  O_59 
REMARK   16  A    between atoms: C_39  and  O_62 
REMARK   17  A    between atoms: C_40  and  O_63 
REMARK   18  A    between atoms: C_44  and  O_64 
REMARK   19  A    between atoms: C_45  and  O_65 
REMARK   20  A    between atoms: C_48  and  N_49 
REMARK   21  A    between atoms: O_61  and  C_48 
REMARK   22  A    between atoms: O_69  and  C_48 
ROOT
HETATM    1  C   UNK N   1      29.650  16.240   3.096  0.00  0.00     0.010 C 
HETATM    2  C   UNK N   1      28.408  17.968   5.488  0.00  0.00     0.015 C 
HETATM    3  C   UNK N   1      25.636  11.642   4.843  0.00  0.00     0.015 C 
HETATM    4  C   UNK N   1      23.145  13.824   1.055  0.00  0.00    -0.020 C 
HETATM    5  C   UNK N   1      24.488  13.280   1.480  0.00  0.00     0.059 C 
HETATM    6  C   UNK N   1      22.541  14.647   1.906  0.00  0.00     0.052 C 
HETATM    7  C   UNK N   1      29.513  14.174   4.449  0.00  0.00     0.037 C 
HETATM    8  C   UNK N   1      27.527  15.567   4.373  0.00  0.00     0.036 C 
HETATM    9  C   UNK N   1      30.458  11.844   4.299  0.00  0.00     0.143 C 
HETATM   10  C   UNK N   1      25.468  21.129   3.005  0.00  0.00     0.172 A 
HETATM   11  C   UNK N   1      19.998  16.745   0.691  0.00  0.00     0.178 A 
HETATM   12  C   UNK N   1      21.343  20.515   1.662  0.00  0.00     0.178 A 
HETATM   13  C   UNK N   1      28.731  15.118   3.532  0.00  0.00    -0.014 C 
HETATM   14  C   UNK N   1      27.456  18.145   4.297  0.00  0.00     0.045 C 
HETATM   15  C   UNK N   1      25.771  12.374   3.511  0.00  0.00     0.040 C 
HETATM   16  C   UNK N   1      30.573  13.282   3.774  0.00  0.00     0.136 C 
HETATM   17  C   UNK N   1      25.505  19.938   3.720  0.00  0.00     0.063 A 
HETATM   18  C   UNK N   1      20.273  17.230   1.962  0.00  0.00     0.108 A 
HETATM   19  C   UNK N   1      22.138  19.973   2.658  0.00  0.00     0.108 A 
HETATM   20  C   UNK N   1      26.669  16.819   4.062  0.00  0.00     0.125 C 
HETATM   21  C   UNK N   1      24.440  12.358   2.720  0.00  0.00     0.130 C 
HETATM   22  C   UNK N   1      26.980  11.822   2.735  0.00  0.00     0.140 C 
HETATM   23  C   UNK N   1      21.327  15.418   1.699  0.00  0.00     0.147 A 
HETATM   24  C   UNK N   1      29.097  11.270   4.025  0.00  0.00     0.261 C 
HETATM   25  C   UNK N   1      26.631  19.450   4.620  0.00  0.00     0.178 C 
HETATM   26  C   UNK N   1      20.552  18.625   2.264  0.00  0.00     0.177 A 
HETATM   27  C   UNK N   1      23.525  20.274   3.009  0.00  0.00     0.176 A 
HETATM   28  N   UNK N   1      21.064  16.364   2.585  0.00  0.00    -0.332 N 
ATOM     29  HN  UNK N   1      21.401  16.418   3.546  1.00  0.00     0.168 HD
HETATM   30  N   UNK N   1      24.271  19.415   3.737  0.00  0.00    -0.334 N 
ATOM     31  HN  UNK N   1      23.963  18.557   4.197  1.00  0.00     0.168 HD
HETATM   32  N   UNK N   1      21.616  18.823   3.051  0.00  0.00    -0.330 N 
ATOM     33  HN  UNK N   1      21.953  18.215   3.798  1.00  0.00     0.168 HD
HETATM   34  O   UNK N   1      28.849  10.142   4.399  0.00  0.00    -0.265 OA
HETATM   35  O   UNK N   1      20.673  15.610   0.573  0.00  0.00    -0.303 OA
HETATM   36  O   UNK N   1      24.238  21.276   2.556  0.00  0.00    -0.302 OA
HETATM   37  O   UNK N   1      20.381  19.631   1.434  0.00  0.00    -0.301 OA
HETATM   38  O   UNK N   1      28.154  12.060   3.433  0.00  0.00    -0.315 OA
ENDROOT
BRANCH  22  39
HETATM   39  C   UNK N   1      26.855  10.417   2.144  0.00  0.00     0.065 C 
BRANCH  39  40
HETATM   40  C   UNK N   1      27.399  10.027   0.756  0.00  0.00     0.127 C 
BRANCH  40  41
HETATM   41  C   UNK N   1      28.796   9.335   0.866  0.00  0.00     0.011 C 
HETATM   42  C   UNK N   1      28.707   7.808   0.863  0.00  0.00     0.012 C 
BRANCH  41  43
HETATM   43  C   UNK N   1      29.777   9.787  -0.230  0.00  0.00     0.014 C 
BRANCH  43  44
HETATM   44  C   UNK N   1      29.515   9.142  -1.602  0.00  0.00     0.079 C 
BRANCH  44  45
HETATM   45  C   UNK N   1      30.790   8.871  -2.373  0.00  0.00     0.133 C 
HETATM   46  O   UNK N   1      31.529   7.957  -2.039  0.00  0.00    -0.297 OA
BRANCH  45  47
HETATM   47  C   UNK N   1      31.133   9.754  -3.537  0.00  0.00     0.081 C 
HETATM   48  C   UNK N   1      30.124  10.888  -3.721  0.00  0.00     0.020 C 
BRANCH  47  49
HETATM   49  C   UNK N   1      32.563  10.312  -3.345  0.00  0.00     0.139 C 
BRANCH  49  50
HETATM   50  C   UNK N   1      32.562  11.631  -2.546  0.00  0.00     0.035 C 
HETATM   51  C   UNK N   1      33.026  11.455  -1.105  0.00  0.00     0.017 C 
BRANCH  50  52
HETATM   52  C   UNK N   1      33.417  12.600  -3.314  0.00  0.00    -0.003 C 
HETATM   53  C   UNK N   1      34.297  13.399  -2.685  0.00  0.00     0.083 C 
BRANCH  53  54
HETATM   54  N   UNK N   1      35.266  14.162  -3.397  0.00  0.00    -0.374 N 
HETATM   55  C   UNK N   1      35.735  15.433  -2.903  0.00  0.00     0.151 C 
BRANCH  54  56
HETATM   56  C   UNK N   1      35.630  13.768  -4.730  0.00  0.00     0.288 C 
BRANCH  56  57
HETATM   57  O   UNK N   1      35.077  14.662  -5.646  0.00  0.00    -0.382 OA
HETATM   58  H   UNK N   1      35.169  14.527  -6.601  0.00  0.00     0.211 HD
ENDBRANCH  56  57
ENDBRANCH  54  56
ENDBRANCH  53  54
ENDBRANCH  50  52
ENDBRANCH  49  50
BRANCH  49  59
HETATM   59  O   UNK N   1      33.182  10.592  -4.600  0.00  0.00    -0.389 OA
HETATM   60  C   UNK N   1      33.038   9.484  -5.456  0.00  0.00     0.202 C 
ENDBRANCH  49  59
ENDBRANCH  47  49
ENDBRANCH  45  47
ENDBRANCH  44  45
ENDBRANCH  43  44
ENDBRANCH  41  43
ENDBRANCH  40  41
BRANCH  40  61
HETATM   61  O   UNK N   1      26.468   9.125   0.195  0.00  0.00    -0.390 OA
HETATM   62  C   UNK N   1      25.206   9.259   0.793  0.00  0.00     0.202 C 
ENDBRANCH  40  61
ENDBRANCH  39  40
ENDBRANCH  22  39
BRANCH  21  63
HETATM   63  O   UNK N   1      23.399  12.704   3.620  0.00  0.00    -0.390 OA
HETATM   64  C   UNK N   1      22.508  11.623   3.753  0.00  0.00     0.202 C 
ENDBRANCH  21  63
BRANCH  16  65
HETATM   65  O   UNK N   1      31.896  13.806   3.824  0.00  0.00    -0.339 OA
BRANCH  65  66
HETATM   66  C   UNK N   1      32.615  13.796   2.597  0.00  0.00     0.361 C 
BRANCH  66  67
HETATM   67  N   UNK N   1      33.516  12.658   2.494  0.00  0.00    -0.385 N 
HETATM   68  H   UNK N   1      33.692  11.925   3.180  0.00  0.00     0.154 HD
HETATM   69  H   UNK N   1      34.042  12.586   1.622  0.00  0.00     0.154 HD
ENDBRANCH  66  67
BRANCH  66  70
HETATM   70  O   UNK N   1      33.307  14.989   2.377  0.00  0.00    -0.355 OA
HETATM   71  H   UNK N   1      33.165  15.915   2.626  0.00  0.00     0.214 HD
ENDBRANCH  66  70
ENDBRANCH  65  66
ENDBRANCH  16  65
BRANCH  20  72
HETATM   72  O   UNK N   1      25.582  16.763   4.934  0.00  0.00    -0.395 OA
HETATM   73  H   UNK N   1      25.197  17.037   5.781  0.00  0.00     0.210 HD
ENDBRANCH  20  72
BRANCH  25  74
HETATM   74  O   UNK N   1      27.481  20.532   4.966  0.00  0.00    -0.384 OA
HETATM   75  C   UNK N   1      27.020  21.159   6.136  0.00  0.00     0.202 C 
ENDBRANCH  25  74
TORSDOF 22
ENDMDL
MODEL 8
REMARK VINA RESULT:      -6.7      2.215      4.020
REMARK  22 active torsions:
REMARK  status: ('A' for Active; 'I' for Inactive)
REMARK    1  A    between atoms: C_16  and  C_15 
REMARK    2  A    between atoms: C_28  and  C_15 
REMARK    3  A    between atoms: C_37  and  C_16 
REMARK    4  A    between atoms: C_29  and  C_17 
REMARK    5  A    between atoms: N_56  and  C_18 
REMARK    6  A    between atoms: C_40  and  C_22 
REMARK    7  A    between atoms: C_41  and  C_22 
REMARK    8  A    between atoms: N_56  and  C_26 
REMARK    9  A    between atoms: O_57  and  C_26 
REMARK   10  A    between atoms: C_40  and  C_28 
REMARK   11  A    between atoms: C_44  and  C_29 
REMARK   12  A    between atoms: C_37  and  C_30 
REMARK   13  A    between atoms: C_44  and  C_30 
REMARK   14  A    between atoms: C_33  and  O_69 
REMARK   15  A    between atoms: C_38  and  O_59 
REMARK   16  A    between atoms: C_39  and  O_62 
REMARK   17  A    between atoms: C_40  and  O_63 
REMARK   18  A    between atoms: C_44  and  O_64 
REMARK   19  A    between atoms: C_45  and  O_65 
REMARK   20  A    between atoms: C_48  and  N_49 
REMARK   21  A    between atoms: O_61  and  C_48 
REMARK   22  A    between atoms: O_69  and  C_48 
ROOT
HETATM    1  C   UNK N   1      24.850  15.133   5.908  0.00  0.00     0.010 C 
HETATM    2  C   UNK N   1      26.256  17.902   5.130  0.00  0.00     0.015 C 
HETATM    3  C   UNK N   1      28.078  12.574   1.079  0.00  0.00     0.015 C 
HETATM    4  C   UNK N   1      30.986  11.410   5.016  0.00  0.00    -0.020 C 
HETATM    5  C   UNK N   1      29.565  11.415   4.508  0.00  0.00     0.059 C 
HETATM    6  C   UNK N   1      31.678  12.535   4.857  0.00  0.00     0.052 C 
HETATM    7  C   UNK N   1      24.635  14.512   3.523  0.00  0.00     0.037 C 
HETATM    8  C   UNK N   1      26.806  15.310   4.257  0.00  0.00     0.036 C 
HETATM    9  C   UNK N   1      23.360  12.782   2.209  0.00  0.00     0.143 C 
HETATM   10  C   UNK N   1      29.711  18.296   8.695  0.00  0.00     0.172 A 
HETATM   11  C   UNK N   1      34.542  13.035   6.830  0.00  0.00     0.178 A 
HETATM   12  C   UNK N   1      33.740  16.577   8.772  0.00  0.00     0.178 A 
HETATM   13  C   UNK N   1      25.577  14.520   4.729  0.00  0.00    -0.014 C 
HETATM   14  C   UNK N   1      27.262  17.147   6.010  0.00  0.00     0.045 C 
HETATM   15  C   UNK N   1      28.096  12.229   2.564  0.00  0.00     0.040 C 
HETATM   16  C   UNK N   1      23.477  13.497   3.563  0.00  0.00     0.136 C 
HETATM   17  C   UNK N   1      29.474  17.904   7.383  0.00  0.00     0.063 A 
HETATM   18  C   UNK N   1      34.301  14.270   6.245  0.00  0.00     0.108 A 
HETATM   19  C   UNK N   1      32.842  16.919   7.775  0.00  0.00     0.108 A 
HETATM   20  C   UNK N   1      27.850  15.945   5.209  0.00  0.00     0.125 C 
HETATM   21  C   UNK N   1      29.435  11.567   2.975  0.00  0.00     0.130 C 
HETATM   22  C   UNK N   1      26.844  11.407   2.922  0.00  0.00     0.140 C 
HETATM   23  C   UNK N   1      32.999  12.855   5.371  0.00  0.00     0.147 A 
HETATM   24  C   UNK N   1      24.629  12.056   1.864  0.00  0.00     0.261 C 
HETATM   25  C   UNK N   1      28.260  18.250   6.533  0.00  0.00     0.178 C 
HETATM   26  C   UNK N   1      34.222  15.523   6.980  0.00  0.00     0.177 A 
HETATM   27  C   UNK N   1      31.504  17.498   7.886  0.00  0.00     0.176 A 
HETATM   28  N   UNK N   1      33.370  14.123   5.309  0.00  0.00    -0.332 N 
ATOM     29  HN  UNK N   1      33.015  14.838   4.675  1.00  0.00     0.168 HD
HETATM   30  N   UNK N   1      30.616  17.422   6.871  0.00  0.00    -0.334 N 
ATOM     31  HN  UNK N   1      30.778  17.074   5.926  1.00  0.00     0.168 HD
HETATM   32  N   UNK N   1      33.175  16.292   6.659  0.00  0.00    -0.330 N 
ATOM     33  HN  UNK N   1      32.727  16.377   5.746  1.00  0.00     0.168 HD
HETATM   34  O   UNK N   1      24.695  11.457   0.810  0.00  0.00    -0.265 OA
HETATM   35  O   UNK N   1      33.711  12.181   6.249  0.00  0.00    -0.303 OA
HETATM   36  O   UNK N   1      30.963  17.993   8.972  0.00  0.00    -0.302 OA
HETATM   37  O   UNK N   1      34.567  15.689   8.238  0.00  0.00    -0.301 OA
HETATM   38  O   UNK N   1      25.697  12.155   2.708  0.00  0.00    -0.315 OA
ENDROOT
BRANCH  22  39
HETATM   39  C   UNK N   1      26.780   9.966   2.414  0.00  0.00     0.065 C 
BRANCH  39  40
HETATM   40  C   UNK N   1      26.301   8.783   3.276  0.00  0.00     0.127 C 
BRANCH  40  41
HETATM   41  C   UNK N   1      24.881   9.049   3.872  0.00  0.00     0.011 C 
HETATM   42  C   UNK N   1      23.910   7.889   3.642  0.00  0.00     0.012 C 
BRANCH  41  43
HETATM   43  C   UNK N   1      24.914   9.391   5.372  0.00  0.00     0.014 C 
BRANCH  43  44
HETATM   44  C   UNK N   1      24.464  10.827   5.692  0.00  0.00     0.079 C 
BRANCH  44  45
HETATM   45  C   UNK N   1      23.614  10.907   6.943  0.00  0.00     0.133 C 
HETATM   46  O   UNK N   1      23.660  10.014   7.776  0.00  0.00    -0.297 OA
BRANCH  45  47
HETATM   47  C   UNK N   1      22.708  12.090   7.128  0.00  0.00     0.081 C 
HETATM   48  C   UNK N   1      21.279  11.801   6.671  0.00  0.00     0.020 C 
BRANCH  47  49
HETATM   49  C   UNK N   1      22.738  12.522   8.612  0.00  0.00     0.139 C 
BRANCH  49  50
HETATM   50  C   UNK N   1      21.378  13.086   9.074  0.00  0.00     0.035 C 
HETATM   51  C   UNK N   1      21.034  12.711  10.510  0.00  0.00     0.017 C 
BRANCH  50  52
HETATM   52  C   UNK N   1      21.436  14.573   8.862  0.00  0.00    -0.003 C 
HETATM   53  C   UNK N   1      20.610  15.183   7.994  0.00  0.00     0.083 C 
BRANCH  53  54
HETATM   54  N   UNK N   1      20.492  16.601   7.934  0.00  0.00    -0.374 N 
HETATM   55  C   UNK N   1      19.622  17.323   8.830  0.00  0.00     0.151 C 
BRANCH  54  56
HETATM   56  C   UNK N   1      21.083  17.311   6.833  0.00  0.00     0.288 C 
BRANCH  56  57
HETATM   57  O   UNK N   1      21.023  18.682   7.078  0.00  0.00    -0.382 OA
HETATM   58  H   UNK N   1      20.899  19.029   7.974  0.00  0.00     0.211 HD
ENDBRANCH  56  57
ENDBRANCH  54  56
ENDBRANCH  53  54
ENDBRANCH  50  52
ENDBRANCH  49  50
BRANCH  49  59
HETATM   59  O   UNK N   1      23.705  13.548   8.833  0.00  0.00    -0.389 OA
HETATM   60  C   UNK N   1      24.685  13.088   9.732  0.00  0.00     0.202 C 
ENDBRANCH  49  59
ENDBRANCH  47  49
ENDBRANCH  45  47
ENDBRANCH  44  45
ENDBRANCH  43  44
ENDBRANCH  41  43
ENDBRANCH  40  41
BRANCH  40  61
HETATM   61  O   UNK N   1      26.252   7.656   2.425  0.00  0.00    -0.390 OA
HETATM   62  C   UNK N   1      27.257   7.712   1.449  0.00  0.00     0.202 C 
ENDBRANCH  40  61
ENDBRANCH  39  40
ENDBRANCH  22  39
BRANCH  21  63
HETATM   63  O   UNK N   1      30.487  12.335   2.409  0.00  0.00    -0.390 OA
HETATM   64  C   UNK N   1      31.189  11.558   1.471  0.00  0.00     0.202 C 
ENDBRANCH  21  63
BRANCH  16  65
HETATM   65  O   UNK N   1      22.245  14.032   4.036  0.00  0.00    -0.339 OA
BRANCH  65  66
HETATM   66  C   UNK N   1      21.408  14.629   3.053  0.00  0.00     0.361 C 
BRANCH  66  67
HETATM   67  N   UNK N   1      21.352  16.077   3.180  0.00  0.00    -0.385 N 
HETATM   68  H   UNK N   1      22.044  16.705   3.588  0.00  0.00     0.154 HD
HETATM   69  H   UNK N   1      20.510  16.523   2.813  0.00  0.00     0.154 HD
ENDBRANCH  66  67
BRANCH  66  70
HETATM   70  O   UNK N   1      20.120  14.089   3.052  0.00  0.00    -0.355 OA
HETATM   71  H   UNK N   1      19.229  14.452   3.170  0.00  0.00     0.214 HD
ENDBRANCH  66  70
ENDBRANCH  65  66
ENDBRANCH  16  65
BRANCH  20  72
HETATM   72  O   UNK N   1      28.889  16.394   4.393  0.00  0.00    -0.395 OA
HETATM   73  H   UNK N   1      29.171  16.673   3.508  0.00  0.00     0.210 HD
ENDBRANCH  20  72
BRANCH  25  74
HETATM   74  O   UNK N   1      27.569  19.353   7.098  0.00  0.00    -0.384 OA
HETATM   75  C   UNK N   1      27.862  20.529   6.386  0.00  0.00     0.202 C 
ENDBRANCH  25  74
TORSDOF 22
ENDMDL
MODEL 9
REMARK VINA RESULT:      -6.7      4.018     11.187
REMARK  22 active torsions:
REMARK  status: ('A' for Active; 'I' for Inactive)
REMARK    1  A    between atoms: C_16  and  C_15 
REMARK    2  A    between atoms: C_28  and  C_15 
REMARK    3  A    between atoms: C_37  and  C_16 
REMARK    4  A    between atoms: C_29  and  C_17 
REMARK    5  A    between atoms: N_56  and  C_18 
REMARK    6  A    between atoms: C_40  and  C_22 
REMARK    7  A    between atoms: C_41  and  C_22 
REMARK    8  A    between atoms: N_56  and  C_26 
REMARK    9  A    between atoms: O_57  and  C_26 
REMARK   10  A    between atoms: C_40  and  C_28 
REMARK   11  A    between atoms: C_44  and  C_29 
REMARK   12  A    between atoms: C_37  and  C_30 
REMARK   13  A    between atoms: C_44  and  C_30 
REMARK   14  A    between atoms: C_33  and  O_69 
REMARK   15  A    between atoms: C_38  and  O_59 
REMARK   16  A    between atoms: C_39  and  O_62 
REMARK   17  A    between atoms: C_40  and  O_63 
REMARK   18  A    between atoms: C_44  and  O_64 
REMARK   19  A    between atoms: C_45  and  O_65 
REMARK   20  A    between atoms: C_48  and  N_49 
REMARK   21  A    between atoms: O_61  and  C_48 
REMARK   22  A    between atoms: O_69  and  C_48 
ROOT
HETATM    1  C   UNK N   1      29.671  16.802   3.367  0.00  0.00     0.010 C 
HETATM    2  C   UNK N   1      28.193  18.389   5.722  0.00  0.00     0.015 C 
HETATM    3  C   UNK N   1      26.050  11.836   4.958  0.00  0.00     0.015 C 
HETATM    4  C   UNK N   1      23.494  13.802   1.095  0.00  0.00    -0.020 C 
HETATM    5  C   UNK N   1      24.867  13.383   1.564  0.00  0.00     0.059 C 
HETATM    6  C   UNK N   1      22.787  14.559   1.929  0.00  0.00     0.052 C 
HETATM    7  C   UNK N   1      29.683  14.722   4.707  0.00  0.00     0.037 C 
HETATM    8  C   UNK N   1      27.580  15.924   4.568  0.00  0.00     0.036 C 
HETATM    9  C   UNK N   1      30.848  12.492   4.580  0.00  0.00     0.143 C 
HETATM   10  C   UNK N   1      25.055  21.279   3.153  0.00  0.00     0.172 A 
HETATM   11  C   UNK N   1      20.101  16.418   0.636  0.00  0.00     0.178 A 
HETATM   12  C   UNK N   1      21.053  20.290   1.668  0.00  0.00     0.178 A 
HETATM   13  C   UNK N   1      28.847  15.595   3.768  0.00  0.00    -0.014 C 
HETATM   14  C   UNK N   1      27.269  18.485   4.500  0.00  0.00     0.045 C 
HETATM   15  C   UNK N   1      26.161  12.587   3.635  0.00  0.00     0.040 C 
HETATM   16  C   UNK N   1      30.844  13.938   4.065  0.00  0.00     0.136 C 
HETATM   17  C   UNK N   1      25.179  20.091   3.864  0.00  0.00     0.063 A 
HETATM   18  C   UNK N   1      20.287  16.918   1.917  0.00  0.00     0.108 A 
HETATM   19  C   UNK N   1      21.861  19.818   2.688  0.00  0.00     0.108 A 
HETATM   20  C   UNK N   1      26.619  17.092   4.233  0.00  0.00     0.125 C 
HETATM   21  C   UNK N   1      24.864  12.452   2.798  0.00  0.00     0.130 C 
HETATM   22  C   UNK N   1      27.442  12.156   2.898  0.00  0.00     0.140 C 
HETATM   23  C   UNK N   1      21.514  15.214   1.683  0.00  0.00     0.147 A 
HETATM   24  C   UNK N   1      29.556  11.795   4.257  0.00  0.00     0.261 C 
HETATM   25  C   UNK N   1      26.315  19.704   4.800  0.00  0.00     0.178 C 
HETATM   26  C   UNK N   1      20.424  18.331   2.234  0.00  0.00     0.177 A 
HETATM   27  C   UNK N   1      23.202  20.245   3.087  0.00  0.00     0.176 A 
HETATM   28  N   UNK N   1      21.134  16.126   2.564  0.00  0.00    -0.332 N 
ATOM     29  HN  UNK N   1      21.432  16.203   3.536  1.00  0.00     0.168 HD
HETATM   30  N   UNK N   1      24.000  19.454   3.836  0.00  0.00    -0.334 N 
ATOM     31  HN  UNK N   1      23.759  18.569   4.282  1.00  0.00     0.168 HD
HETATM   32  N   UNK N   1      21.437  18.622   3.058  0.00  0.00    -0.330 N 
ATOM     33  HN  UNK N   1      21.804  18.043   3.814  1.00  0.00     0.168 HD
HETATM   34  O   UNK N   1      29.403  10.646   4.618  0.00  0.00    -0.265 OA
HETATM   35  O   UNK N   1      20.883  15.352   0.537  0.00  0.00    -0.303 OA
HETATM   36  O   UNK N   1      23.832  21.312   2.663  0.00  0.00    -0.302 OA
HETATM   37  O   UNK N   1      20.187  19.322   1.403  0.00  0.00    -0.301 OA
HETATM   38  O   UNK N   1      28.564  12.497   3.636  0.00  0.00    -0.315 OA
ENDROOT
BRANCH  22  39
HETATM   39  C   UNK N   1      27.468  10.750   2.297  0.00  0.00     0.065 C 
BRANCH  39  40
HETATM   40  C   UNK N   1      27.482  10.473   0.782  0.00  0.00     0.127 C 
BRANCH  40  41
HETATM   41  C   UNK N   1      28.939  10.274   0.252  0.00  0.00     0.011 C 
HETATM   42  C   UNK N   1      29.017   9.305  -0.929  0.00  0.00     0.012 C 
BRANCH  41  43
HETATM   43  C   UNK N   1      29.623  11.597  -0.134  0.00  0.00     0.014 C 
BRANCH  43  44
HETATM   44  C   UNK N   1      30.840  11.946   0.741  0.00  0.00     0.079 C 
BRANCH  44  45
HETATM   45  C   UNK N   1      32.139  11.938  -0.037  0.00  0.00     0.133 C 
HETATM   46  O   UNK N   1      33.150  12.425   0.447  0.00  0.00    -0.297 OA
BRANCH  45  47
HETATM   47  C   UNK N   1      32.155  11.338  -1.414  0.00  0.00     0.081 C 
HETATM   48  C   UNK N   1      32.690  12.312  -2.463  0.00  0.00     0.020 C 
BRANCH  47  49
HETATM   49  C   UNK N   1      32.989  10.037  -1.389  0.00  0.00     0.139 C 
BRANCH  49  50
HETATM   50  C   UNK N   1      33.136   9.422  -2.796  0.00  0.00     0.035 C 
HETATM   51  C   UNK N   1      34.429   8.636  -2.971  0.00  0.00     0.017 C 
BRANCH  50  52
HETATM   52  C   UNK N   1      31.912   8.580  -3.027  0.00  0.00    -0.003 C 
HETATM   53  C   UNK N   1      31.315   8.540  -4.232  0.00  0.00     0.083 C 
BRANCH  53  54
HETATM   54  N   UNK N   1      30.295   7.594  -4.537  0.00  0.00    -0.374 N 
HETATM   55  C   UNK N   1      30.605   6.324  -5.145  0.00  0.00     0.151 C 
BRANCH  54  56
HETATM   56  C   UNK N   1      28.917   7.986  -4.434  0.00  0.00     0.288 C 
BRANCH  56  57
HETATM   57  O   UNK N   1      28.188   7.400  -5.468  0.00  0.00    -0.382 OA
HETATM   58  H   UNK N   1      28.071   7.847  -6.319  0.00  0.00     0.211 HD
ENDBRANCH  56  57
ENDBRANCH  54  56
ENDBRANCH  53  54
ENDBRANCH  50  52
ENDBRANCH  49  50
BRANCH  49  59
HETATM   59  O   UNK N   1      32.375   9.044  -0.568  0.00  0.00    -0.389 OA
HETATM   60  C   UNK N   1      33.261   8.665   0.457  0.00  0.00     0.202 C 
ENDBRANCH  49  59
ENDBRANCH  47  49
ENDBRANCH  45  47
ENDBRANCH  44  45
ENDBRANCH  43  44
ENDBRANCH  41  43
ENDBRANCH  40  41
BRANCH  40  61
HETATM   61  O   UNK N   1      26.740   9.288   0.580  0.00  0.00    -0.390 OA
HETATM   62  C   UNK N   1      25.938   8.994   1.692  0.00  0.00     0.202 C 
ENDBRANCH  40  61
ENDBRANCH  39  40
ENDBRANCH  22  39
BRANCH  21  63
HETATM   63  O   UNK N   1      23.766  12.692   3.664  0.00  0.00    -0.390 OA
HETATM   64  C   UNK N   1      22.982  11.529   3.769  0.00  0.00     0.202 C 
ENDBRANCH  21  63
BRANCH  16  65
HETATM   65  O   UNK N   1      32.110  14.584   4.162  0.00  0.00    -0.339 OA
BRANCH  65  66
HETATM   66  C   UNK N   1      32.808  14.773   2.937  0.00  0.00     0.361 C 
BRANCH  66  67
HETATM   67  N   UNK N   1      34.024  13.978   2.866  0.00  0.00    -0.385 N 
HETATM   68  H   UNK N   1      34.987  14.299   2.770  0.00  0.00     0.154 HD
HETATM   69  H   UNK N   1      33.896  12.966   2.917  0.00  0.00     0.154 HD
ENDBRANCH  66  67
BRANCH  66  70
HETATM   70  O   UNK N   1      33.087  16.118   2.686  0.00  0.00    -0.355 OA
HETATM   71  H   UNK N   1      33.704  16.587   2.105  0.00  0.00     0.214 HD
ENDBRANCH  66  70
ENDBRANCH  65  66
ENDBRANCH  16  65
BRANCH  20  72
HETATM   72  O   UNK N   1      25.513  16.928   5.068  0.00  0.00    -0.395 OA
HETATM   73  H   UNK N   1      25.167  16.910   5.973  0.00  0.00     0.210 HD
ENDBRANCH  20  72
BRANCH  25  74
HETATM   74  O   UNK N   1      27.048  20.858   5.179  0.00  0.00    -0.384 OA
HETATM   75  C   UNK N   1      26.576  21.355   6.406  0.00  0.00     0.202 C 
ENDBRANCH  25  74
TORSDOF 22
ENDMDL
