MODEL 1
REMARK VINA RESULT:      -4.1      0.000      0.000
REMARK  7 active torsions:
REMARK  status: ('A' for Active; 'I' for Inactive)
REMARK    1  A    between atoms: O_1  and  C_2 
REMARK    2  A    between atoms: C_2  and  C_3 
REMARK    3  A    between atoms: C_3  and  C_4 
REMARK    4  A    between atoms: C_4  and  C_5 
REMARK    5  A    between atoms: C_4  and  O_8 
REMARK    6  A    between atoms: C_5  and  C_6 
REMARK    7  A    between atoms: C_6  and  O_7 
ROOT
HETATM    1  C   UNK N   1      43.570  23.254   2.476  0.00  0.00     0.065 C 
HETATM    2  C   UNK N   1      42.136  23.222   1.961  0.00  0.00     0.046 C 
ENDROOT
BRANCH   1   3
HETATM    3  C   UNK N   1      44.097  21.837   2.706  0.00  0.00     0.064 C 
BRANCH   3   4
HETATM    4  C   UNK N   1      44.613  21.642   4.127  0.00  0.00     0.167 C 
BRANCH   4   5
HETATM    5  O   UNK N   1      45.869  22.232   4.256  0.00  0.00    -0.401 OA
HETATM    6  H   UNK N   1      46.112  22.686   5.077  0.00  0.00     0.209 HD
ENDBRANCH   4   5
ENDBRANCH   3   4
ENDBRANCH   1   3
BRANCH   1   7
HETATM    7  C   UNK N   1      44.495  24.001   1.506  0.00  0.00     0.147 C 
BRANCH   7   8
HETATM    8  C   UNK N   1      45.412  25.005   2.141  0.00  0.00     0.142 C 
HETATM    9  O   UNK N   1      45.119  26.190   2.140  0.00  0.00    -0.650 OA
BRANCH   8  10
HETATM   10  O   UNK N   1      46.529  24.593   2.771  0.00  0.00    -0.776 OA
HETATM   11  H   UNK N   1      46.737  23.680   2.805  0.00  0.00     0.167 HD
ENDBRANCH   8  10
ENDBRANCH   7   8
ENDBRANCH   1   7
BRANCH   1  12
HETATM   12  O   UNK N   1      43.588  23.944   3.690  0.00  0.00    -0.390 OA
HETATM   13  H   UNK N   1      44.184  24.505   4.211  0.00  0.00     0.210 HD
ENDBRANCH   1  12
TORSDOF 7
ENDMDL
MODEL 2
REMARK VINA RESULT:      -3.9     23.373     25.262
REMARK  7 active torsions:
REMARK  status: ('A' for Active; 'I' for Inactive)
REMARK    1  A    between atoms: O_1  and  C_2 
REMARK    2  A    between atoms: C_2  and  C_3 
REMARK    3  A    between atoms: C_3  and  C_4 
REMARK    4  A    between atoms: C_4  and  C_5 
REMARK    5  A    between atoms: C_4  and  O_8 
REMARK    6  A    between atoms: C_5  and  C_6 
REMARK    7  A    between atoms: C_6  and  O_7 
ROOT
HETATM    1  C   UNK N   1      19.702  18.516   2.628  0.00  0.00     0.065 C 
HETATM    2  C   UNK N   1      19.821  17.353   3.605  0.00  0.00     0.046 C 
ENDROOT
BRANCH   1   3
HETATM    3  C   UNK N   1      20.305  19.789   3.224  0.00  0.00     0.064 C 
BRANCH   3   4
HETATM    4  C   UNK N   1      21.316  20.437   2.284  0.00  0.00     0.167 C 
BRANCH   4   5
HETATM    5  O   UNK N   1      21.673  21.693   2.771  0.00  0.00    -0.401 OA
HETATM    6  H   UNK N   1      21.016  22.405   2.809  0.00  0.00     0.209 HD
ENDBRANCH   4   5
ENDBRANCH   3   4
ENDBRANCH   1   3
BRANCH   1   7
HETATM    7  C   UNK N   1      20.383  18.195   1.291  0.00  0.00     0.147 C 
BRANCH   7   8
HETATM    8  C   UNK N   1      19.911  16.937   0.620  0.00  0.00     0.142 C 
HETATM    9  O   UNK N   1      20.678  16.001   0.464  0.00  0.00    -0.650 OA
BRANCH   8  10
HETATM   10  O   UNK N   1      18.623  16.816   0.247  0.00  0.00    -0.776 OA
HETATM   11  H   UNK N   1      18.257  15.967   0.097  0.00  0.00     0.167 HD
ENDBRANCH   8  10
ENDBRANCH   7   8
ENDBRANCH   1   7
BRANCH   1  12
HETATM   12  O   UNK N   1      18.348  18.738   2.369  0.00  0.00    -0.390 OA
HETATM   13  H   UNK N   1      17.765  19.440   2.039  0.00  0.00     0.210 HD
ENDBRANCH   1  12
TORSDOF 7
ENDMDL
MODEL 3
REMARK VINA RESULT:      -3.9     12.493     13.651
REMARK  7 active torsions:
REMARK  status: ('A' for Active; 'I' for Inactive)
REMARK    1  A    between atoms: O_1  and  C_2 
REMARK    2  A    between atoms: C_2  and  C_3 
REMARK    3  A    between atoms: C_3  and  C_4 
REMARK    4  A    between atoms: C_4  and  C_5 
REMARK    5  A    between atoms: C_4  and  O_8 
REMARK    6  A    between atoms: C_5  and  C_6 
REMARK    7  A    between atoms: C_6  and  O_7 
ROOT
HETATM    1  C   UNK N   1      34.435  15.989   9.286  0.00  0.00     0.065 C 
HETATM    2  C   UNK N   1      33.114  15.231   9.351  0.00  0.00     0.046 C 
ENDROOT
BRANCH   1   3
HETATM    3  C   UNK N   1      35.619  15.024   9.373  0.00  0.00     0.064 C 
BRANCH   3   4
HETATM    4  C   UNK N   1      36.240  15.005  10.766  0.00  0.00     0.167 C 
BRANCH   4   5
HETATM    5  O   UNK N   1      37.111  16.083  10.907  0.00  0.00    -0.401 OA
HETATM    6  H   UNK N   1      37.738  16.109  11.646  0.00  0.00     0.209 HD
ENDBRANCH   4   5
ENDBRANCH   3   4
ENDBRANCH   1   3
BRANCH   1   7
HETATM    7  C   UNK N   1      34.538  16.823   8.003  0.00  0.00     0.147 C 
BRANCH   7   8
HETATM    8  C   UNK N   1      34.253  18.288   8.168  0.00  0.00     0.142 C 
HETATM    9  O   UNK N   1      33.105  18.698   8.122  0.00  0.00    -0.650 OA
BRANCH   8  10
HETATM   10  O   UNK N   1      35.258  19.143   8.431  0.00  0.00    -0.776 OA
HETATM   11  H   UNK N   1      36.059  19.088   7.948  0.00  0.00     0.167 HD
ENDBRANCH   8  10
ENDBRANCH   7   8
ENDBRANCH   1   7
BRANCH   1  12
HETATM   12  O   UNK N   1      34.492  16.871  10.368  0.00  0.00    -0.390 OA
HETATM   13  H   UNK N   1      34.652  16.855  11.324  0.00  0.00     0.210 HD
ENDBRANCH   1  12
TORSDOF 7
ENDMDL
MODEL 4
REMARK VINA RESULT:      -3.8     12.968     14.230
REMARK  7 active torsions:
REMARK  status: ('A' for Active; 'I' for Inactive)
REMARK    1  A    between atoms: O_1  and  C_2 
REMARK    2  A    between atoms: C_2  and  C_3 
REMARK    3  A    between atoms: C_3  and  C_4 
REMARK    4  A    between atoms: C_4  and  C_5 
REMARK    5  A    between atoms: C_4  and  O_8 
REMARK    6  A    between atoms: C_5  and  C_6 
REMARK    7  A    between atoms: C_6  and  O_7 
ROOT
HETATM    1  C   UNK N   1      32.782  16.855   7.839  0.00  0.00     0.065 C 
HETATM    2  C   UNK N   1      31.782  17.154   6.729  0.00  0.00     0.046 C 
ENDROOT
BRANCH   1   3
HETATM    3  C   UNK N   1      32.842  15.354   8.126  0.00  0.00     0.064 C 
BRANCH   3   4
HETATM    4  C   UNK N   1      32.208  15.002   9.468  0.00  0.00     0.167 C 
BRANCH   4   5
HETATM    5  O   UNK N   1      33.140  15.178  10.488  0.00  0.00    -0.401 OA
HETATM    6  H   UNK N   1      33.075  15.943  11.081  0.00  0.00     0.209 HD
ENDBRANCH   4   5
ENDBRANCH   3   4
ENDBRANCH   1   3
BRANCH   1   7
HETATM    7  C   UNK N   1      34.182  17.373   7.484  0.00  0.00     0.147 C 
BRANCH   7   8
HETATM    8  C   UNK N   1      34.901  18.085   8.593  0.00  0.00     0.142 C 
HETATM    9  O   UNK N   1      35.201  19.261   8.473  0.00  0.00    -0.650 OA
BRANCH   8  10
HETATM   10  O   UNK N   1      35.158  17.444   9.749  0.00  0.00    -0.776 OA
HETATM   11  H   UNK N   1      35.696  16.677   9.749  0.00  0.00     0.167 HD
ENDBRANCH   8  10
ENDBRANCH   7   8
ENDBRANCH   1   7
BRANCH   1  12
HETATM   12  O   UNK N   1      32.368  17.518   8.996  0.00  0.00    -0.390 OA
HETATM   13  H   UNK N   1      31.774  18.239   9.261  0.00  0.00     0.210 HD
ENDBRANCH   1  12
TORSDOF 7
ENDMDL
MODEL 5
REMARK VINA RESULT:      -3.7     15.065     16.650
REMARK  7 active torsions:
REMARK  status: ('A' for Active; 'I' for Inactive)
REMARK    1  A    between atoms: O_1  and  C_2 
REMARK    2  A    between atoms: C_2  and  C_3 
REMARK    3  A    between atoms: C_3  and  C_4 
REMARK    4  A    between atoms: C_4  and  C_5 
REMARK    5  A    between atoms: C_4  and  O_8 
REMARK    6  A    between atoms: C_5  and  C_6 
REMARK    7  A    between atoms: C_6  and  O_7 
ROOT
HETATM    1  C   UNK N   1      30.930  17.487   8.595  0.00  0.00     0.065 C 
HETATM    2  C   UNK N   1      30.373  16.978   7.272  0.00  0.00     0.046 C 
ENDROOT
BRANCH   1   3
HETATM    3  C   UNK N   1      32.320  18.097   8.401  0.00  0.00     0.064 C 
BRANCH   3   4
HETATM    4  C   UNK N   1      33.426  17.058   8.551  0.00  0.00     0.167 C 
BRANCH   4   5
HETATM    5  O   UNK N   1      34.001  17.164   9.816  0.00  0.00    -0.401 OA
HETATM    6  H   UNK N   1      34.554  17.929  10.037  0.00  0.00     0.209 HD
ENDBRANCH   4   5
ENDBRANCH   3   4
ENDBRANCH   1   3
BRANCH   1   7
HETATM    7  C   UNK N   1      29.994  18.521   9.234  0.00  0.00     0.147 C 
BRANCH   7   8
HETATM    8  C   UNK N   1      28.556  18.101   9.342  0.00  0.00     0.142 C 
HETATM    9  O   UNK N   1      28.258  17.089   9.955  0.00  0.00    -0.650 OA
BRANCH   8  10
HETATM   10  O   UNK N   1      27.588  18.875   8.817  0.00  0.00    -0.776 OA
HETATM   11  H   UNK N   1      26.843  18.481   8.408  0.00  0.00     0.167 HD
ENDBRANCH   8  10
ENDBRANCH   7   8
ENDBRANCH   1   7
BRANCH   1  12
HETATM   12  O   UNK N   1      31.031  16.408   9.476  0.00  0.00    -0.390 OA
HETATM   13  H   UNK N   1      30.469  15.888  10.072  0.00  0.00     0.210 HD
ENDBRANCH   1  12
TORSDOF 7
ENDMDL
MODEL 6
REMARK VINA RESULT:      -3.7     13.368     15.098
REMARK  7 active torsions:
REMARK  status: ('A' for Active; 'I' for Inactive)
REMARK    1  A    between atoms: O_1  and  C_2 
REMARK    2  A    between atoms: C_2  and  C_3 
REMARK    3  A    between atoms: C_3  and  C_4 
REMARK    4  A    between atoms: C_4  and  C_5 
REMARK    5  A    between atoms: C_4  and  O_8 
REMARK    6  A    between atoms: C_5  and  C_6 
REMARK    7  A    between atoms: C_6  and  O_7 
ROOT
HETATM    1  C   UNK N   1      31.058  22.152  -4.328  0.00  0.00     0.065 C 
HETATM    2  C   UNK N   1      30.683  22.009  -5.798  0.00  0.00     0.046 C 
ENDROOT
BRANCH   1   3
HETATM    3  C   UNK N   1      32.576  22.216  -4.158  0.00  0.00     0.064 C 
BRANCH   3   4
HETATM    4  C   UNK N   1      33.110  21.045  -3.339  0.00  0.00     0.167 C 
BRANCH   4   5
HETATM    5  O   UNK N   1      32.834  21.252  -1.988  0.00  0.00    -0.401 OA
HETATM    6  H   UNK N   1      33.409  20.866  -1.310  0.00  0.00     0.209 HD
ENDBRANCH   4   5
ENDBRANCH   3   4
ENDBRANCH   1   3
BRANCH   1   7
HETATM    7  C   UNK N   1      30.412  23.397  -3.706  0.00  0.00     0.147 C 
BRANCH   7   8
HETATM    8  C   UNK N   1      29.766  23.182  -2.368  0.00  0.00     0.142 C 
HETATM    9  O   UNK N   1      28.550  23.139  -2.275  0.00  0.00    -0.650 OA
BRANCH   8  10
HETATM   10  O   UNK N   1      30.528  22.971  -1.279  0.00  0.00    -0.776 OA
HETATM   11  H   UNK N   1      31.433  22.750  -1.376  0.00  0.00     0.167 HD
ENDBRANCH   8  10
ENDBRANCH   7   8
ENDBRANCH   1   7
BRANCH   1  12
HETATM   12  O   UNK N   1      30.574  21.038  -3.639  0.00  0.00    -0.390 OA
HETATM   13  H   UNK N   1      29.981  20.828  -2.900  0.00  0.00     0.210 HD
ENDBRANCH   1  12
TORSDOF 7
ENDMDL
MODEL 7
REMARK VINA RESULT:      -3.6     17.799     18.251
REMARK  7 active torsions:
REMARK  status: ('A' for Active; 'I' for Inactive)
REMARK    1  A    between atoms: O_1  and  C_2 
REMARK    2  A    between atoms: C_2  and  C_3 
REMARK    3  A    between atoms: C_3  and  C_4 
REMARK    4  A    between atoms: C_4  and  C_5 
REMARK    5  A    between atoms: C_4  and  O_8 
REMARK    6  A    between atoms: C_5  and  C_6 
REMARK    7  A    between atoms: C_6  and  O_7 
ROOT
HETATM    1  C   UNK N   1      28.025  18.722   6.386  0.00  0.00     0.065 C 
HETATM    2  C   UNK N   1      28.593  18.472   4.994  0.00  0.00     0.046 C 
ENDROOT
BRANCH   1   3
HETATM    3  C   UNK N   1      28.841  17.983   7.447  0.00  0.00     0.064 C 
BRANCH   3   4
HETATM    4  C   UNK N   1      28.609  18.548   8.844  0.00  0.00     0.167 C 
BRANCH   4   5
HETATM    5  O   UNK N   1      27.421  18.039   9.366  0.00  0.00    -0.401 OA
HETATM    6  H   UNK N   1      27.429  17.220   9.885  0.00  0.00     0.209 HD
ENDBRANCH   4   5
ENDBRANCH   3   4
ENDBRANCH   1   3
BRANCH   1   7
HETATM    7  C   UNK N   1      27.985  20.221   6.711  0.00  0.00     0.147 C 
BRANCH   7   8
HETATM    8  C   UNK N   1      26.611  20.822   6.790  0.00  0.00     0.142 C 
HETATM    9  O   UNK N   1      26.046  21.194   5.775  0.00  0.00    -0.650 OA
BRANCH   8  10
HETATM   10  O   UNK N   1      25.974  20.892   7.974  0.00  0.00    -0.776 OA
HETATM   11  H   UNK N   1      25.790  21.726   8.359  0.00  0.00     0.167 HD
ENDBRANCH   8  10
ENDBRANCH   7   8
ENDBRANCH   1   7
BRANCH   1  12
HETATM   12  O   UNK N   1      26.711  18.249   6.417  0.00  0.00    -0.390 OA
HETATM   13  H   UNK N   1      26.101  17.729   5.870  0.00  0.00     0.210 HD
ENDBRANCH   1  12
TORSDOF 7
ENDMDL
MODEL 8
REMARK VINA RESULT:      -3.6      2.342      3.499
REMARK  7 active torsions:
REMARK  status: ('A' for Active; 'I' for Inactive)
REMARK    1  A    between atoms: O_1  and  C_2 
REMARK    2  A    between atoms: C_2  and  C_3 
REMARK    3  A    between atoms: C_3  and  C_4 
REMARK    4  A    between atoms: C_4  and  C_5 
REMARK    5  A    between atoms: C_4  and  O_8 
REMARK    6  A    between atoms: C_5  and  C_6 
REMARK    7  A    between atoms: C_6  and  O_7 
ROOT
HETATM    1  C   UNK N   1      42.696  22.054   2.471  0.00  0.00     0.065 C 
HETATM    2  C   UNK N   1      43.179  22.108   1.027  0.00  0.00     0.046 C 
ENDROOT
BRANCH   1   3
HETATM    3  C   UNK N   1      41.307  21.418   2.555  0.00  0.00     0.064 C 
BRANCH   3   4
HETATM    4  C   UNK N   1      41.368  19.970   3.027  0.00  0.00     0.167 C 
BRANCH   4   5
HETATM    5  O   UNK N   1      40.515  19.793   4.115  0.00  0.00    -0.401 OA
HETATM    6  H   UNK N   1      40.574  18.990   4.654  0.00  0.00     0.209 HD
ENDBRANCH   4   5
ENDBRANCH   3   4
ENDBRANCH   1   3
BRANCH   1   7
HETATM    7  C   UNK N   1      43.677  21.277   3.359  0.00  0.00     0.147 C 
BRANCH   7   8
HETATM    8  C   UNK N   1      44.449  22.112   4.341  0.00  0.00     0.142 C 
HETATM    9  O   UNK N   1      43.885  22.602   5.305  0.00  0.00    -0.650 OA
BRANCH   8  10
HETATM   10  O   UNK N   1      45.778  22.266   4.193  0.00  0.00    -0.776 OA
HETATM   11  H   UNK N   1      46.112  22.939   3.634  0.00  0.00     0.167 HD
ENDBRANCH   8  10
ENDBRANCH   7   8
ENDBRANCH   1   7
BRANCH   1  12
HETATM   12  O   UNK N   1      42.624  23.359   2.963  0.00  0.00    -0.390 OA
HETATM   13  H   UNK N   1      42.203  23.854   3.683  0.00  0.00     0.210 HD
ENDBRANCH   1  12
TORSDOF 7
ENDMDL
MODEL 9
REMARK VINA RESULT:      -3.6      2.300      3.800
REMARK  7 active torsions:
REMARK  status: ('A' for Active; 'I' for Inactive)
REMARK    1  A    between atoms: O_1  and  C_2 
REMARK    2  A    between atoms: C_2  and  C_3 
REMARK    3  A    between atoms: C_3  and  C_4 
REMARK    4  A    between atoms: C_4  and  C_5 
REMARK    5  A    between atoms: C_4  and  O_8 
REMARK    6  A    between atoms: C_5  and  C_6 
REMARK    7  A    between atoms: C_6  and  O_7 
ROOT
HETATM    1  C   UNK N   1      42.561  21.160   2.391  0.00  0.00     0.065 C 
HETATM    2  C   UNK N   1      42.712  19.716   1.929  0.00  0.00     0.046 C 
ENDROOT
BRANCH   1   3
HETATM    3  C   UNK N   1      41.113  21.629   2.244  0.00  0.00     0.064 C 
BRANCH   3   4
HETATM    4  C   UNK N   1      41.003  22.885   1.385  0.00  0.00     0.167 C 
BRANCH   4   5
HETATM    5  O   UNK N   1      41.325  24.006   2.147  0.00  0.00    -0.401 OA
HETATM    6  H   UNK N   1      41.731  24.779   1.728  0.00  0.00     0.209 HD
ENDBRANCH   4   5
ENDBRANCH   3   4
ENDBRANCH   1   3
BRANCH   1   7
HETATM    7  C   UNK N   1      43.017  21.331   3.846  0.00  0.00     0.147 C 
BRANCH   7   8
HETATM    8  C   UNK N   1      43.955  22.477   4.092  0.00  0.00     0.142 C 
HETATM    9  O   UNK N   1      45.153  22.275   4.210  0.00  0.00    -0.650 OA
BRANCH   8  10
HETATM   10  O   UNK N   1      43.484  23.738   4.118  0.00  0.00    -0.776 OA
HETATM   11  H   UNK N   1      42.565  23.896   4.032  0.00  0.00     0.167 HD
ENDBRANCH   8  10
ENDBRANCH   7   8
ENDBRANCH   1   7
BRANCH   1  12
HETATM   12  O   UNK N   1      43.379  21.966   1.596  0.00  0.00    -0.390 OA
HETATM   13  H   UNK N   1      44.291  21.993   1.266  0.00  0.00     0.210 HD
ENDBRANCH   1  12
TORSDOF 7
ENDMDL
