MODEL 1
REMARK VINA RESULT:      -3.9      0.000      0.000
REMARK  1 active torsions:
REMARK  status: ('A' for Active; 'I' for Inactive)
REMARK    1  A    between atoms: O_1  and  C_2 
ROOT
HETATM    1  C   UNK N   1      23.983  12.278  11.027  0.00  0.00     0.118 A 
HETATM    2  C   UNK N   1      23.945  13.040   9.723  0.00  0.00     0.032 A 
HETATM    3  C   UNK N   1      22.565  13.400   9.193  0.00  0.00     0.002 A 
HETATM    4  C   UNK N   1      21.315  12.990   9.977  0.00  0.00     0.000 A 
HETATM    5  C   UNK N   1      21.422  12.218  11.295  0.00  0.00     0.002 A 
HETATM    6  C   UNK N   1      22.790  11.844  11.850  0.00  0.00     0.032 A 
ENDROOT
BRANCH   1   7
HETATM    7  O   UNK N   1      25.245  11.946  11.517  0.00  0.00    -0.396 OA
HETATM    8  H   UNK N   1      25.913  12.638  11.646  0.00  0.00     0.210 HD
ENDBRANCH   1   7
TORSDOF 1
ENDMDL
MODEL 2
REMARK VINA RESULT:      -3.9      0.011      2.029
REMARK  1 active torsions:
REMARK  status: ('A' for Active; 'I' for Inactive)
REMARK    1  A    between atoms: O_1  and  C_2 
ROOT
HETATM    1  C   UNK N   1      23.991  12.277  11.021  0.00  0.00     0.118 A 
HETATM    2  C   UNK N   1      22.798  11.846  11.842  0.00  0.00     0.032 A 
HETATM    3  C   UNK N   1      21.431  12.223  11.293  0.00  0.00     0.002 A 
HETATM    4  C   UNK N   1      21.324  12.997   9.976  0.00  0.00     0.000 A 
HETATM    5  C   UNK N   1      22.573  13.405   9.191  0.00  0.00     0.002 A 
HETATM    6  C   UNK N   1      23.955  13.041   9.716  0.00  0.00     0.032 A 
ENDROOT
BRANCH   1   7
HETATM    7  O   UNK N   1      25.247  11.934  11.520  0.00  0.00    -0.396 OA
HETATM    8  H   UNK N   1      25.694  12.519  12.152  0.00  0.00     0.210 HD
ENDBRANCH   1   7
TORSDOF 1
ENDMDL
MODEL 3
REMARK VINA RESULT:      -3.9     14.144     14.745
REMARK  1 active torsions:
REMARK  status: ('A' for Active; 'I' for Inactive)
REMARK    1  A    between atoms: O_1  and  C_2 
ROOT
HETATM    1  C   UNK N   1      35.149  12.835  19.236  0.00  0.00     0.118 A 
HETATM    2  C   UNK N   1      35.442  11.355  19.175  0.00  0.00     0.032 A 
HETATM    3  C   UNK N   1      35.749  10.786  17.798  0.00  0.00     0.002 A 
HETATM    4  C   UNK N   1      35.750  11.706  16.575  0.00  0.00     0.000 A 
HETATM    5  C   UNK N   1      35.444  13.200  16.704  0.00  0.00     0.002 A 
HETATM    6  C   UNK N   1      35.133  13.798  18.070  0.00  0.00     0.032 A 
ENDROOT
BRANCH   1   7
HETATM    7  O   UNK N   1      34.866  13.362  20.496  0.00  0.00    -0.396 OA
HETATM    8  H   UNK N   1      35.273  14.198  20.775  0.00  0.00     0.210 HD
ENDBRANCH   1   7
TORSDOF 1
ENDMDL
MODEL 4
REMARK VINA RESULT:      -3.8     14.144     14.712
REMARK  1 active torsions:
REMARK  status: ('A' for Active; 'I' for Inactive)
REMARK    1  A    between atoms: O_1  and  C_2 
ROOT
HETATM    1  C   UNK N   1      35.133  12.837  19.303  0.00  0.00     0.118 A 
HETATM    2  C   UNK N   1      35.104  13.669  18.042  0.00  0.00     0.032 A 
HETATM    3  C   UNK N   1      35.435  12.941  16.747  0.00  0.00     0.002 A 
HETATM    4  C   UNK N   1      35.772  11.448  16.776  0.00  0.00     0.000 A 
HETATM    5  C   UNK N   1      35.784  10.661  18.088  0.00  0.00     0.002 A 
HETATM    6  C   UNK N   1      35.457  11.363  19.400  0.00  0.00     0.032 A 
ENDROOT
BRANCH   1   7
HETATM    7  O   UNK N   1      34.830  13.499  20.492  0.00  0.00    -0.396 OA
HETATM    8  H   UNK N   1      35.544  13.869  21.036  0.00  0.00     0.210 HD
ENDBRANCH   1   7
TORSDOF 1
ENDMDL
MODEL 5
REMARK VINA RESULT:      -3.8      1.285      2.083
REMARK  1 active torsions:
REMARK  status: ('A' for Active; 'I' for Inactive)
REMARK    1  A    between atoms: O_1  and  C_2 
ROOT
HETATM    1  C   UNK N   1      22.837  11.885  11.885  0.00  0.00     0.118 A 
HETATM    2  C   UNK N   1      24.266  12.029  11.415  0.00  0.00     0.032 A 
HETATM    3  C   UNK N   1      24.463  12.647  10.039  0.00  0.00     0.002 A 
HETATM    4  C   UNK N   1      23.248  13.083   9.217  0.00  0.00     0.000 A 
HETATM    5  C   UNK N   1      21.824  12.909   9.750  0.00  0.00     0.002 A 
HETATM    6  C   UNK N   1      21.595  12.293  11.124  0.00  0.00     0.032 A 
ENDROOT
BRANCH   1   7
HETATM    7  O   UNK N   1      22.650  11.319  13.145  0.00  0.00    -0.396 OA
HETATM    8  H   UNK N   1      23.002  10.434  13.337  0.00  0.00     0.210 HD
ENDBRANCH   1   7
TORSDOF 1
ENDMDL
MODEL 6
REMARK VINA RESULT:      -3.8     13.919     14.764
REMARK  1 active torsions:
REMARK  status: ('A' for Active; 'I' for Inactive)
REMARK    1  A    between atoms: O_1  and  C_2 
ROOT
HETATM    1  C   UNK N   1      36.667  13.942  15.472  0.00  0.00     0.118 A 
HETATM    2  C   UNK N   1      35.618  13.012  16.033  0.00  0.00     0.032 A 
HETATM    3  C   UNK N   1      35.057  13.375  17.400  0.00  0.00     0.002 A 
HETATM    4  C   UNK N   1      35.562  14.625  18.125  0.00  0.00     0.000 A 
HETATM    5  C   UNK N   1      36.630  15.528  17.501  0.00  0.00     0.002 A 
HETATM    6  C   UNK N   1      37.210  15.189  16.134  0.00  0.00     0.032 A 
ENDROOT
BRANCH   1   7
HETATM    7  O   UNK N   1      37.185  13.613  14.220  0.00  0.00    -0.396 OA
HETATM    8  H   UNK N   1      38.001  13.092  14.154  0.00  0.00     0.210 HD
ENDBRANCH   1   7
TORSDOF 1
ENDMDL
MODEL 7
REMARK VINA RESULT:      -3.8     13.899     14.669
REMARK  1 active torsions:
REMARK  status: ('A' for Active; 'I' for Inactive)
REMARK    1  A    between atoms: O_1  and  C_2 
ROOT
HETATM    1  C   UNK N   1      36.661  13.915  15.440  0.00  0.00     0.118 A 
HETATM    2  C   UNK N   1      37.215  15.160  16.092  0.00  0.00     0.032 A 
HETATM    3  C   UNK N   1      36.647  15.515  17.458  0.00  0.00     0.002 A 
HETATM    4  C   UNK N   1      35.575  14.626  18.093  0.00  0.00     0.000 A 
HETATM    5  C   UNK N   1      35.055  13.376  17.380  0.00  0.00     0.002 A 
HETATM    6  C   UNK N   1      35.605  12.995  16.012  0.00  0.00     0.032 A 
ENDROOT
BRANCH   1   7
HETATM    7  O   UNK N   1      37.178  13.585  14.188  0.00  0.00    -0.396 OA
HETATM    8  H   UNK N   1      38.137  13.609  14.038  0.00  0.00     0.210 HD
ENDBRANCH   1   7
TORSDOF 1
ENDMDL
MODEL 8
REMARK VINA RESULT:      -3.8      1.734      2.626
REMARK  1 active torsions:
REMARK  status: ('A' for Active; 'I' for Inactive)
REMARK    1  A    between atoms: O_1  and  C_2 
ROOT
HETATM    1  C   UNK N   1      21.965  12.202  11.135  0.00  0.00     0.118 A 
HETATM    2  C   UNK N   1      21.717  12.962   9.853  0.00  0.00     0.032 A 
HETATM    3  C   UNK N   1      22.952  13.359   9.057  0.00  0.00     0.002 A 
HETATM    4  C   UNK N   1      24.344  12.985   9.571  0.00  0.00     0.000 A 
HETATM    5  C   UNK N   1      24.528  12.214  10.881  0.00  0.00     0.002 A 
HETATM    6  C   UNK N   1      23.311  11.802  11.699  0.00  0.00     0.032 A 
ENDROOT
BRANCH   1   7
HETATM    7  O   UNK N   1      20.837  11.835  11.869  0.00  0.00    -0.396 OA
HETATM    8  H   UNK N   1      20.898  11.129  12.531  0.00  0.00     0.210 HD
ENDBRANCH   1   7
TORSDOF 1
ENDMDL
MODEL 9
REMARK VINA RESULT:      -3.8     19.973     21.008
REMARK  1 active torsions:
REMARK  status: ('A' for Active; 'I' for Inactive)
REMARK    1  A    between atoms: O_1  and  C_2 
ROOT
HETATM    1  C   UNK N   1      25.656  27.551  -3.980  0.00  0.00     0.118 A 
HETATM    2  C   UNK N   1      26.413  26.509  -3.191  0.00  0.00     0.032 A 
HETATM    3  C   UNK N   1      26.591  25.155  -3.862  0.00  0.00     0.002 A 
HETATM    4  C   UNK N   1      26.015  24.913  -5.259  0.00  0.00     0.000 A 
HETATM    5  C   UNK N   1      25.256  26.013  -6.007  0.00  0.00     0.002 A 
HETATM    6  C   UNK N   1      25.063  27.378  -5.361  0.00  0.00     0.032 A 
ENDROOT
BRANCH   1   7
HETATM    7  O   UNK N   1      25.490  28.794  -3.370  0.00  0.00    -0.396 OA
HETATM    8  H   UNK N   1      26.243  29.226  -2.937  0.00  0.00     0.210 HD
ENDBRANCH   1   7
TORSDOF 1
ENDMDL
