MODEL 1
REMARK VINA RESULT:      -4.4      0.000      0.000
REMARK  6 active torsions:
REMARK  status: ('A' for Active; 'I' for Inactive)
REMARK    1  A    between atoms: O_1  and  C_2 
REMARK    2  A    between atoms: C_2  and  C_4 
REMARK    3  A    between atoms: C_4  and  C_5 
REMARK    4  A    between atoms: C_5  and  C_6 
REMARK    5  A    between atoms: C_6  and  C_7 
REMARK    6  A    between atoms: C_7  and  O_8 
ROOT
HETATM    1  C   UNK N   1      21.601  12.396  10.550  0.00  0.00     0.021 C 
ENDROOT
BRANCH   1   2
HETATM    2  C   UNK N   1      21.892  13.695   9.828  0.00  0.00     0.110 C 
BRANCH   2   3
HETATM    3  C   UNK N   1      20.641  14.466   9.534  0.00  0.00     0.139 C 
HETATM    4  O   UNK N   1      19.539  14.002   9.786  0.00  0.00    -0.650 OA
BRANCH   3   5
HETATM    5  O   UNK N   1      20.738  15.689   8.982  0.00  0.00    -0.776 OA
HETATM    6  H   UNK N   1      20.186  15.924   8.264  0.00  0.00     0.167 HD
ENDBRANCH   3   5
ENDBRANCH   2   3
ENDBRANCH   1   2
BRANCH   1   7
HETATM    7  C   UNK N   1      22.871  11.577  10.653  0.00  0.00     0.110 C 
BRANCH   7   8
HETATM    8  C   UNK N   1      23.685  11.960  11.852  0.00  0.00     0.139 C 
HETATM    9  O   UNK N   1      23.204  11.932  12.976  0.00  0.00    -0.650 OA
BRANCH   8  10
HETATM   10  O   UNK N   1      24.964  12.339  11.686  0.00  0.00    -0.776 OA
HETATM   11  H   UNK N   1      25.409  12.148  10.884  0.00  0.00     0.167 HD
ENDBRANCH   8  10
ENDBRANCH   7   8
ENDBRANCH   1   7
TORSDOF 6
ENDMDL
MODEL 2
REMARK VINA RESULT:      -4.4      1.285      4.442
REMARK  6 active torsions:
REMARK  status: ('A' for Active; 'I' for Inactive)
REMARK    1  A    between atoms: O_1  and  C_2 
REMARK    2  A    between atoms: C_2  and  C_4 
REMARK    3  A    between atoms: C_4  and  C_5 
REMARK    4  A    between atoms: C_5  and  C_6 
REMARK    5  A    between atoms: C_6  and  C_7 
REMARK    6  A    between atoms: C_7  and  O_8 
ROOT
HETATM    1  C   UNK N   1      22.793  11.974  10.255  0.00  0.00     0.021 C 
ENDROOT
BRANCH   1   2
HETATM    2  C   UNK N   1      23.819  12.079  11.365  0.00  0.00     0.110 C 
BRANCH   2   3
HETATM    3  C   UNK N   1      23.205  11.889  12.718  0.00  0.00     0.139 C 
HETATM    4  O   UNK N   1      23.824  12.158  13.737  0.00  0.00    -0.650 OA
BRANCH   3   5
HETATM    5  O   UNK N   1      21.949  11.416  12.809  0.00  0.00    -0.776 OA
HETATM    6  H   UNK N   1      21.791  10.494  12.758  0.00  0.00     0.167 HD
ENDBRANCH   3   5
ENDBRANCH   2   3
ENDBRANCH   1   2
BRANCH   1   7
HETATM    7  C   UNK N   1      22.241  13.349   9.942  0.00  0.00     0.110 C 
BRANCH   7   8
HETATM    8  C   UNK N   1      20.743  13.357   9.921  0.00  0.00     0.139 C 
HETATM    9  O   UNK N   1      20.128  13.933   9.035  0.00  0.00    -0.650 OA
BRANCH   8  10
HETATM   10  O   UNK N   1      20.067  12.720  10.893  0.00  0.00    -0.776 OA
HETATM   11  H   UNK N   1      20.367  12.763  11.779  0.00  0.00     0.167 HD
ENDBRANCH   8  10
ENDBRANCH   7   8
ENDBRANCH   1   7
TORSDOF 6
ENDMDL
MODEL 3
REMARK VINA RESULT:      -4.4     10.417     11.377
REMARK  6 active torsions:
REMARK  status: ('A' for Active; 'I' for Inactive)
REMARK    1  A    between atoms: O_1  and  C_2 
REMARK    2  A    between atoms: C_2  and  C_4 
REMARK    3  A    between atoms: C_4  and  C_5 
REMARK    4  A    between atoms: C_5  and  C_6 
REMARK    5  A    between atoms: C_6  and  C_7 
REMARK    6  A    between atoms: C_7  and  O_8 
ROOT
HETATM    1  C   UNK N   1      20.801  18.390   2.788  0.00  0.00     0.021 C 
ENDROOT
BRANCH   1   2
HETATM    2  C   UNK N   1      19.799  17.496   2.087  0.00  0.00     0.110 C 
BRANCH   2   3
HETATM    3  C   UNK N   1      20.262  17.098   0.719  0.00  0.00     0.139 C 
HETATM    4  O   UNK N   1      20.573  15.943   0.469  0.00  0.00    -0.650 OA
BRANCH   3   5
HETATM    5  O   UNK N   1      20.334  18.031  -0.247  0.00  0.00    -0.776 OA
HETATM    6  H   UNK N   1      20.512  18.923  -0.025  0.00  0.00     0.167 HD
ENDBRANCH   3   5
ENDBRANCH   2   3
ENDBRANCH   1   2
BRANCH   1   7
HETATM    7  C   UNK N   1      20.290  19.816   2.798  0.00  0.00     0.110 C 
BRANCH   7   8
HETATM    8  C   UNK N   1      21.181  20.734   2.019  0.00  0.00     0.139 C 
HETATM    9  O   UNK N   1      21.339  20.588   0.815  0.00  0.00    -0.650 OA
BRANCH   8  10
HETATM   10  O   UNK N   1      21.816  21.732   2.656  0.00  0.00    -0.776 OA
HETATM   11  H   UNK N   1      21.666  21.876   3.570  0.00  0.00     0.167 HD
ENDBRANCH   8  10
ENDBRANCH   7   8
ENDBRANCH   1   7
TORSDOF 6
ENDMDL
MODEL 4
REMARK VINA RESULT:      -4.2     12.099     13.522
REMARK  6 active torsions:
REMARK  status: ('A' for Active; 'I' for Inactive)
REMARK    1  A    between atoms: O_1  and  C_2 
REMARK    2  A    between atoms: C_2  and  C_4 
REMARK    3  A    between atoms: C_4  and  C_5 
REMARK    4  A    between atoms: C_5  and  C_6 
REMARK    5  A    between atoms: C_6  and  C_7 
REMARK    6  A    between atoms: C_7  and  O_8 
ROOT
HETATM    1  C   UNK N   1      33.679  15.944   8.518  0.00  0.00     0.021 C 
ENDROOT
BRANCH   1   2
HETATM    2  C   UNK N   1      34.888  15.488   9.308  0.00  0.00     0.110 C 
BRANCH   2   3
HETATM    3  C   UNK N   1      34.641  15.523  10.785  0.00  0.00     0.139 C 
HETATM    4  O   UNK N   1      35.413  16.092  11.542  0.00  0.00    -0.650 OA
BRANCH   3   5
HETATM    5  O   UNK N   1      33.548  14.916  11.282  0.00  0.00    -0.776 OA
HETATM    6  H   UNK N   1      32.703  15.302  11.163  0.00  0.00     0.167 HD
ENDBRANCH   3   5
ENDBRANCH   2   3
ENDBRANCH   1   2
BRANCH   1   7
HETATM    7  C   UNK N   1      33.461  17.427   8.736  0.00  0.00     0.110 C 
BRANCH   7   8
HETATM    8  C   UNK N   1      34.396  18.256   7.910  0.00  0.00     0.139 C 
HETATM    9  O   UNK N   1      35.079  19.133   8.419  0.00  0.00    -0.650 OA
BRANCH   8  10
HETATM   10  O   UNK N   1      34.484  18.029   6.588  0.00  0.00    -0.776 OA
HETATM   11  H   UNK N   1      35.002  17.316   6.268  0.00  0.00     0.167 HD
ENDBRANCH   8  10
ENDBRANCH   7   8
ENDBRANCH   1   7
TORSDOF 6
ENDMDL
MODEL 5
REMARK VINA RESULT:      -4.2     17.995     18.591
REMARK  6 active torsions:
REMARK  status: ('A' for Active; 'I' for Inactive)
REMARK    1  A    between atoms: O_1  and  C_2 
REMARK    2  A    between atoms: C_2  and  C_4 
REMARK    3  A    between atoms: C_4  and  C_5 
REMARK    4  A    between atoms: C_5  and  C_6 
REMARK    5  A    between atoms: C_6  and  C_7 
REMARK    6  A    between atoms: C_7  and  O_8 
ROOT
HETATM    1  C   UNK N   1      29.593  24.118  -3.986  0.00  0.00     0.021 C 
ENDROOT
BRANCH   1   2
HETATM    2  C   UNK N   1      28.134  23.940  -4.349  0.00  0.00     0.110 C 
BRANCH   2   3
HETATM    3  C   UNK N   1      27.227  24.246  -3.197  0.00  0.00     0.139 C 
HETATM    4  O   UNK N   1      27.274  23.592  -2.165  0.00  0.00    -0.650 OA
BRANCH   3   5
HETATM    5  O   UNK N   1      26.347  25.258  -3.304  0.00  0.00    -0.776 OA
HETATM    6  H   UNK N   1      26.341  25.943  -2.666  0.00  0.00     0.167 HD
ENDBRANCH   3   5
ENDBRANCH   2   3
ENDBRANCH   1   2
BRANCH   1   7
HETATM    7  C   UNK N   1      30.250  22.760  -3.845  0.00  0.00     0.110 C 
BRANCH   7   8
HETATM    8  C   UNK N   1      30.843  22.567  -2.483  0.00  0.00     0.139 C 
HETATM    9  O   UNK N   1      31.887  21.949  -2.332  0.00  0.00    -0.650 OA
BRANCH   8  10
HETATM   10  O   UNK N   1      30.215  23.081  -1.412  0.00  0.00    -0.776 OA
HETATM   11  H   UNK N   1      30.478  22.830  -0.548  0.00  0.00     0.167 HD
ENDBRANCH   8  10
ENDBRANCH   7   8
ENDBRANCH   1   7
TORSDOF 6
ENDMDL
MODEL 6
REMARK VINA RESULT:      -4.1      9.739     11.270
REMARK  6 active torsions:
REMARK  status: ('A' for Active; 'I' for Inactive)
REMARK    1  A    between atoms: O_1  and  C_2 
REMARK    2  A    between atoms: C_2  and  C_4 
REMARK    3  A    between atoms: C_4  and  C_5 
REMARK    4  A    between atoms: C_5  and  C_6 
REMARK    5  A    between atoms: C_6  and  C_7 
REMARK    6  A    between atoms: C_7  and  O_8 
ROOT
HETATM    1  C   UNK N   1      20.122  19.516   2.927  0.00  0.00     0.021 C 
ENDROOT
BRANCH   1   2
HETATM    2  C   UNK N   1      21.155  20.484   2.386  0.00  0.00     0.110 C 
BRANCH   2   3
HETATM    3  C   UNK N   1      20.821  20.944   0.999  0.00  0.00     0.139 C 
HETATM    4  O   UNK N   1      20.870  20.176   0.050  0.00  0.00    -0.650 OA
BRANCH   3   5
HETATM    5  O   UNK N   1      20.461  22.224   0.801  0.00  0.00    -0.776 OA
HETATM    6  H   UNK N   1      20.652  22.644  -0.014  0.00  0.00     0.167 HD
ENDBRANCH   3   5
ENDBRANCH   2   3
ENDBRANCH   1   2
BRANCH   1   7
HETATM    7  C   UNK N   1      20.714  18.123   2.983  0.00  0.00     0.110 C 
BRANCH   7   8
HETATM    8  C   UNK N   1      20.178  17.246   1.893  0.00  0.00     0.139 C 
HETATM    9  O   UNK N   1      20.613  16.116   1.723  0.00  0.00    -0.650 OA
BRANCH   8  10
HETATM   10  O   UNK N   1      19.205  17.712   1.092  0.00  0.00    -0.776 OA
HETATM   11  H   UNK N   1      18.845  17.162   0.423  0.00  0.00     0.167 HD
ENDBRANCH   8  10
ENDBRANCH   7   8
ENDBRANCH   1   7
TORSDOF 6
ENDMDL
MODEL 7
REMARK VINA RESULT:      -4.1     12.928     13.577
REMARK  6 active torsions:
REMARK  status: ('A' for Active; 'I' for Inactive)
REMARK    1  A    between atoms: O_1  and  C_2 
REMARK    2  A    between atoms: C_2  and  C_4 
REMARK    3  A    between atoms: C_4  and  C_5 
REMARK    4  A    between atoms: C_5  and  C_6 
REMARK    5  A    between atoms: C_6  and  C_7 
REMARK    6  A    between atoms: C_7  and  O_8 
ROOT
HETATM    1  C   UNK N   1      35.113  16.272   9.599  0.00  0.00     0.021 C 
ENDROOT
BRANCH   1   2
HETATM    2  C   UNK N   1      34.073  17.264   9.120  0.00  0.00     0.110 C 
BRANCH   2   3
HETATM    3  C   UNK N   1      34.636  18.230   8.123  0.00  0.00     0.139 C 
HETATM    4  O   UNK N   1      34.475  18.065   6.922  0.00  0.00    -0.650 OA
BRANCH   3   5
HETATM    5  O   UNK N   1      35.330  19.295   8.561  0.00  0.00    -0.776 OA
HETATM    6  H   UNK N   1      36.116  19.555   8.122  0.00  0.00     0.167 HD
ENDBRANCH   3   5
ENDBRANCH   2   3
ENDBRANCH   1   2
BRANCH   1   7
HETATM    7  C   UNK N   1      35.395  16.504  11.069  0.00  0.00     0.110 C 
BRANCH   7   8
HETATM    8  C   UNK N   1      35.510  15.215  11.825  0.00  0.00     0.139 C 
HETATM    9  O   UNK N   1      34.681  14.327  11.685  0.00  0.00    -0.650 OA
BRANCH   8  10
HETATM   10  O   UNK N   1      36.541  15.036  12.669  0.00  0.00    -0.776 OA
HETATM   11  H   UNK N   1      37.023  14.233  12.656  0.00  0.00     0.167 HD
ENDBRANCH   8  10
ENDBRANCH   7   8
ENDBRANCH   1   7
TORSDOF 6
ENDMDL
MODEL 8
REMARK VINA RESULT:      -4.1     10.748     11.734
REMARK  6 active torsions:
REMARK  status: ('A' for Active; 'I' for Inactive)
REMARK    1  A    between atoms: O_1  and  C_2 
REMARK    2  A    between atoms: C_2  and  C_4 
REMARK    3  A    between atoms: C_4  and  C_5 
REMARK    4  A    between atoms: C_5  and  C_6 
REMARK    5  A    between atoms: C_6  and  C_7 
REMARK    6  A    between atoms: C_7  and  O_8 
ROOT
HETATM    1  C   UNK N   1      32.177  17.184   8.304  0.00  0.00     0.021 C 
ENDROOT
BRANCH   1   2
HETATM    2  C   UNK N   1      31.385  18.433   8.633  0.00  0.00     0.110 C 
BRANCH   2   3
HETATM    3  C   UNK N   1      30.047  18.110   9.225  0.00  0.00     0.139 C 
HETATM    4  O   UNK N   1      29.260  17.377   8.645  0.00  0.00    -0.650 OA
BRANCH   3   5
HETATM    5  O   UNK N   1      29.711  18.637  10.416  0.00  0.00    -0.776 OA
HETATM    6  H   UNK N   1      29.624  18.084  11.166  0.00  0.00     0.167 HD
ENDBRANCH   3   5
ENDBRANCH   2   3
ENDBRANCH   1   2
BRANCH   1   7
HETATM    7  C   UNK N   1      33.594  17.332   8.818  0.00  0.00     0.110 C 
BRANCH   7   8
HETATM    8  C   UNK N   1      34.425  18.197   7.920  0.00  0.00     0.139 C 
HETATM    9  O   UNK N   1      34.482  17.986   6.717  0.00  0.00    -0.650 OA
BRANCH   8  10
HETATM   10  O   UNK N   1      35.118  19.220   8.449  0.00  0.00    -0.776 OA
HETATM   11  H   UNK N   1      34.937  19.508   9.322  0.00  0.00     0.167 HD
ENDBRANCH   8  10
ENDBRANCH   7   8
ENDBRANCH   1   7
TORSDOF 6
ENDMDL
MODEL 9
REMARK VINA RESULT:      -4.0      1.374      4.259
REMARK  6 active torsions:
REMARK  status: ('A' for Active; 'I' for Inactive)
REMARK    1  A    between atoms: O_1  and  C_2 
REMARK    2  A    between atoms: C_2  and  C_4 
REMARK    3  A    between atoms: C_4  and  C_5 
REMARK    4  A    between atoms: C_5  and  C_6 
REMARK    5  A    between atoms: C_6  and  C_7 
REMARK    6  A    between atoms: C_7  and  O_8 
ROOT
HETATM    1  C   UNK N   1      22.604  11.820   9.862  0.00  0.00     0.021 C 
ENDROOT
BRANCH   1   2
HETATM    2  C   UNK N   1      24.086  11.960   9.583  0.00  0.00     0.110 C 
BRANCH   2   3
HETATM    3  C   UNK N   1      24.841  12.443  10.783  0.00  0.00     0.139 C 
HETATM    4  O   UNK N   1      24.702  11.910  11.874  0.00  0.00    -0.650 OA
BRANCH   3   5
HETATM    5  O   UNK N   1      25.686  13.481  10.653  0.00  0.00    -0.776 OA
HETATM    6  H   UNK N   1      25.350  14.350  10.562  0.00  0.00     0.167 HD
ENDBRANCH   3   5
ENDBRANCH   2   3
ENDBRANCH   1   2
BRANCH   1   7
HETATM    7  C   UNK N   1      21.995  13.192  10.065  0.00  0.00     0.110 C 
BRANCH   7   8
HETATM    8  C   UNK N   1      20.553  13.108  10.464  0.00  0.00     0.139 C 
HETATM    9  O   UNK N   1      20.195  12.387  11.385  0.00  0.00    -0.650 OA
BRANCH   8  10
HETATM   10  O   UNK N   1      19.642  13.838   9.799  0.00  0.00    -0.776 OA
HETATM   11  H   UNK N   1      18.728  13.707   9.960  0.00  0.00     0.167 HD
ENDBRANCH   8  10
ENDBRANCH   7   8
ENDBRANCH   1   7
TORSDOF 6
ENDMDL
