MODEL 1
REMARK VINA RESULT:      -8.2      0.000      0.000
REMARK  10 active torsions:
REMARK  status: ('A' for Active; 'I' for Inactive)
REMARK    1  A    between atoms: C_9  and  C_7 
REMARK    2  A    between atoms: C_21  and  C_7 
REMARK    3  A    between atoms: C_10  and  C_8 
REMARK    4  A    between atoms: C_22  and  C_8 
REMARK    5  A    between atoms: C_31  and  C_9 
REMARK    6  A    between atoms: C_32  and  C_10 
REMARK    7  A    between atoms: C_33  and  C_19 
REMARK    8  A    between atoms: C_34  and  C_20 
REMARK    9  A    between atoms: O_42  and  C_31 
REMARK   10  A    between atoms: O_44  and  C_32 
ROOT
HETATM    1  C   UNK N   1      22.339  15.979   4.339  0.00  0.00     0.051 C 
HETATM    2  C   UNK N   1      30.365  17.237   6.422  0.00  0.00     0.051 C 
HETATM    3  C   UNK N   1      25.176  13.157   4.951  0.00  0.00     0.012 C 
HETATM    4  C   UNK N   1      31.673  11.198   2.700  0.00  0.00     0.052 C 
HETATM    5  C   UNK N   1      28.138  14.014   4.473  0.00  0.00     0.046 C 
HETATM    6  C   UNK N   1      24.204  14.454   2.751  0.00  0.00     0.027 C 
HETATM    7  C   UNK N   1      30.779  15.897   3.932  0.00  0.00     0.064 C 
HETATM    8  C   UNK N   1      28.808  12.021   1.683  0.00  0.00     0.027 C 
HETATM    9  C   UNK N   1      26.400  18.387   3.915  0.00  0.00     0.064 C 
HETATM   10  C   UNK N   1      23.659  16.433   3.791  0.00  0.00    -0.025 C 
HETATM   11  C   UNK N   1      29.551  17.578   5.229  0.00  0.00    -0.025 C 
HETATM   12  C   UNK N   1      25.559  12.701   3.562  0.00  0.00     0.017 C 
HETATM   13  C   UNK N   1      31.201  12.609   2.605  0.00  0.00    -0.017 A 
HETATM   14  C   UNK N   1      27.723  13.537   3.272  0.00  0.00     0.040 A 
HETATM   15  C   UNK N   1      24.247  17.628   4.031  0.00  0.00    -0.021 C 
HETATM   16  C   UNK N   1      28.352  18.265   5.196  0.00  0.00    -0.021 C 
HETATM   17  C   UNK N   1      24.539  15.701   3.048  0.00  0.00     0.061 C 
HETATM   18  C   UNK N   1      29.635  16.867   4.081  0.00  0.00     0.066 C 
HETATM   19  C   UNK N   1      25.059  13.335   2.446  0.00  0.00     0.104 C 
HETATM   20  C   UNK N   1      29.954  12.994   2.128  0.00  0.00     0.062 A 
HETATM   21  C   UNK N   1      25.518  17.536   3.573  0.00  0.00     0.066 C 
HETATM   22  C   UNK N   1      27.759  17.979   4.052  0.00  0.00     0.066 C 
HETATM   23  C   UNK N   1      30.844  14.795   3.199  0.00  0.00     0.074 A 
HETATM   24  C   UNK N   1      27.002  12.198   1.914  0.00  0.00     0.111 C 
HETATM   25  C   UNK N   1      26.886  12.327   3.234  0.00  0.00     0.070 C 
HETATM   26  C   UNK N   1      31.746  13.735   3.321  0.00  0.00     0.046 A 
HETATM   27 Fe   UNK N   1      27.450  15.422   2.761  0.00  0.00     0.000 Fe
HETATM   28  N   UNK N   1      25.736  16.342   3.009  0.00  0.00    -0.248 N 
HETATM   29  N   UNK N   1      28.385  16.920   3.554  0.00  0.00    -0.248 N 
HETATM   30  N   UNK N   1      26.105  13.362   1.660  0.00  0.00    -0.231 NA
HETATM   31  N   UNK N   1      29.814  14.384   2.545  0.00  0.00    -0.248 N 
HETATM   32  O   UNK N   1      27.981  14.172   1.739  0.00  0.00    -0.365 OA
HETATM   33  H   UNK N   1      28.232  14.492   0.895  0.00  0.00     0.217 HD
ENDROOT
BRANCH  15  34
HETATM   34  C   UNK N   1      23.550  18.784   4.601  0.00  0.00     0.052 C 
BRANCH  34  35
HETATM   35  C   UNK N   1      22.791  19.286   3.357  0.00  0.00     0.115 C 
BRANCH  35  36
HETATM   36  C   UNK N   1      23.245  20.666   2.871  0.00  0.00     0.139 C 
HETATM   37  O   UNK N   1      24.331  20.806   2.313  0.00  0.00    -0.650 OA
BRANCH  36  38
HETATM   38  O   UNK N   1      22.359  21.672   2.838  0.00  0.00    -0.776 OA
HETATM   39  H   UNK N   1      21.854  22.006   2.123  0.00  0.00     0.167 HD
ENDBRANCH  36  38
ENDBRANCH  35  36
ENDBRANCH  34  35
ENDBRANCH  15  34
BRANCH  16  40
HETATM   40  C   UNK N   1      27.524  18.766   6.335  0.00  0.00     0.052 C 
BRANCH  40  41
HETATM   41  C   UNK N   1      27.922  20.142   6.678  0.00  0.00     0.115 C 
BRANCH  41  42
HETATM   42  C   UNK N   1      26.626  20.831   6.801  0.00  0.00     0.139 C 
HETATM   43  O   UNK N   1      26.224  21.520   5.885  0.00  0.00    -0.650 OA
BRANCH  42  44
HETATM   44  O   UNK N   1      26.008  20.865   8.000  0.00  0.00    -0.776 OA
HETATM   45  H   UNK N   1      25.216  20.721   8.478  0.00  0.00     0.167 HD
ENDBRANCH  42  44
ENDBRANCH  41  42
ENDBRANCH  40  41
ENDBRANCH  16  40
BRANCH  26  46
HETATM   46  C   UNK N   1      32.862  13.704   4.307  0.00  0.00     0.158 C 
HETATM   47  C   UNK N   1      34.196  14.309   3.992  0.00  0.00     0.097 C 
HETATM   48  O   UNK N   1      32.663  13.292   5.437  0.00  0.00    -0.293 OA
ENDBRANCH  26  46
TORSDOF 10
ENDMDL
MODEL 2
REMARK VINA RESULT:      -8.2      3.423      7.468
REMARK  10 active torsions:
REMARK  status: ('A' for Active; 'I' for Inactive)
REMARK    1  A    between atoms: C_9  and  C_7 
REMARK    2  A    between atoms: C_21  and  C_7 
REMARK    3  A    between atoms: C_10  and  C_8 
REMARK    4  A    between atoms: C_22  and  C_8 
REMARK    5  A    between atoms: C_31  and  C_9 
REMARK    6  A    between atoms: C_32  and  C_10 
REMARK    7  A    between atoms: C_33  and  C_19 
REMARK    8  A    between atoms: C_34  and  C_20 
REMARK    9  A    between atoms: O_42  and  C_31 
REMARK   10  A    between atoms: O_44  and  C_32 
ROOT
HETATM    1  C   UNK N   1      27.989  18.434   3.817  0.00  0.00     0.051 C 
HETATM    2  C   UNK N   1      19.917  17.606   1.696  0.00  0.00     0.051 C 
HETATM    3  C   UNK N   1      26.295  15.360   1.801  0.00  0.00     0.012 C 
HETATM    4  C   UNK N   1      21.067  10.517   2.377  0.00  0.00     0.052 C 
HETATM    5  C   UNK N   1      23.259  14.848   2.308  0.00  0.00     0.046 C 
HETATM    6  C   UNK N   1      26.888  15.837   4.426  0.00  0.00     0.027 C 
HETATM    7  C   UNK N   1      20.165  15.279   3.336  0.00  0.00     0.064 C 
HETATM    8  C   UNK N   1      23.518  11.759   3.918  0.00  0.00     0.027 C 
HETATM    9  C   UNK N   1      23.377  18.862   4.824  0.00  0.00     0.064 C 
HETATM   10  C   UNK N   1      26.632  18.124   4.375  0.00  0.00    -0.025 C 
HETATM   11  C   UNK N   1      20.634  17.662   2.995  0.00  0.00    -0.025 C 
HETATM   12  C   UNK N   1      26.188  14.252   2.824  0.00  0.00     0.017 C 
HETATM   13  C   UNK N   1      21.016  11.818   3.104  0.00  0.00    -0.017 A 
HETATM   14  C   UNK N   1      23.892  14.080   3.229  0.00  0.00     0.040 A 
HETATM   15  C   UNK N   1      25.647  19.021   4.607  0.00  0.00    -0.021 C 
HETATM   16  C   UNK N   1      21.514  18.636   3.429  0.00  0.00    -0.021 C 
HETATM   17  C   UNK N   1      26.117  16.890   4.652  0.00  0.00     0.061 C 
HETATM   18  C   UNK N   1      20.882  16.547   3.720  0.00  0.00     0.066 C 
HETATM   19  C   UNK N   1      26.505  14.477   4.146  0.00  0.00     0.104 C 
HETATM   20  C   UNK N   1      22.076  12.367   3.816  0.00  0.00     0.062 A 
HETATM   21  C   UNK N   1      24.523  18.310   4.858  0.00  0.00     0.066 C 
HETATM   22  C   UNK N   1      22.243  18.111   4.397  0.00  0.00     0.066 C 
HETATM   23  C   UNK N   1      20.540  14.022   3.526  0.00  0.00     0.074 A 
HETATM   24  C   UNK N   1      25.126  12.629   3.958  0.00  0.00     0.111 C 
HETATM   25  C   UNK N   1      25.103  13.342   2.833  0.00  0.00     0.070 C 
HETATM   26  C   UNK N   1      20.064  12.877   2.881  0.00  0.00     0.046 A 
HETATM   27 Fe   UNK N   1      23.517  15.529   4.512  0.00  0.00     0.000 Fe
HETATM   28  N   UNK N   1      24.777  16.996   4.842  0.00  0.00    -0.248 N 
HETATM   29  N   UNK N   1      22.064  16.798   4.339  0.00  0.00    -0.248 N 
HETATM   30  N   UNK N   1      25.570  13.802   4.764  0.00  0.00    -0.231 NA
HETATM   31  N   UNK N   1      21.689  13.754   4.041  0.00  0.00    -0.248 N 
HETATM   32  O   UNK N   1      23.527  13.865   4.854  0.00  0.00    -0.365 OA
HETATM   33  H   UNK N   1      23.236  13.684   5.726  0.00  0.00     0.217 HD
ENDROOT
BRANCH  15  34
HETATM   34  C   UNK N   1      25.852  20.472   4.647  0.00  0.00     0.052 C 
BRANCH  34  35
HETATM   35  C   UNK N   1      27.062  20.549   5.600  0.00  0.00     0.115 C 
BRANCH  35  36
HETATM   36  C   UNK N   1      26.679  20.773   7.067  0.00  0.00     0.139 C 
HETATM   37  O   UNK N   1      25.907  21.676   7.380  0.00  0.00    -0.650 OA
BRANCH  36  38
HETATM   38  O   UNK N   1      26.994  19.839   7.975  0.00  0.00    -0.776 OA
HETATM   39  H   UNK N   1      27.788  19.709   8.456  0.00  0.00     0.167 HD
ENDBRANCH  36  38
ENDBRANCH  35  36
ENDBRANCH  34  35
ENDBRANCH  15  34
BRANCH  16  40
HETATM   40  C   UNK N   1      22.036  19.827   2.693  0.00  0.00     0.052 C 
BRANCH  40  41
HETATM   41  C   UNK N   1      21.020  20.894   2.680  0.00  0.00     0.115 C 
BRANCH  41  42
HETATM   42  C   UNK N   1      20.891  21.198   1.245  0.00  0.00     0.139 C 
HETATM   43  O   UNK N   1      21.469  20.507   0.431  0.00  0.00    -0.650 OA
BRANCH  42  44
HETATM   44  O   UNK N   1      20.315  22.358   0.866  0.00  0.00    -0.776 OA
HETATM   45  H   UNK N   1      20.335  23.088   0.281  0.00  0.00     0.167 HD
ENDBRANCH  42  44
ENDBRANCH  41  42
ENDBRANCH  40  41
ENDBRANCH  16  40
BRANCH  26  46
HETATM   46  C   UNK N   1      18.969  12.888   1.872  0.00  0.00     0.158 C 
HETATM   47  C   UNK N   1      19.243  13.186   0.429  0.00  0.00     0.097 C 
HETATM   48  O   UNK N   1      17.846  12.531   2.188  0.00  0.00    -0.293 OA
ENDBRANCH  26  46
TORSDOF 10
ENDMDL
MODEL 3
REMARK VINA RESULT:      -8.0     12.038     15.002
REMARK  10 active torsions:
REMARK  status: ('A' for Active; 'I' for Inactive)
REMARK    1  A    between atoms: C_9  and  C_7 
REMARK    2  A    between atoms: C_21  and  C_7 
REMARK    3  A    between atoms: C_10  and  C_8 
REMARK    4  A    between atoms: C_22  and  C_8 
REMARK    5  A    between atoms: C_31  and  C_9 
REMARK    6  A    between atoms: C_32  and  C_10 
REMARK    7  A    between atoms: C_33  and  C_19 
REMARK    8  A    between atoms: C_34  and  C_20 
REMARK    9  A    between atoms: O_42  and  C_31 
REMARK   10  A    between atoms: O_44  and  C_32 
ROOT
HETATM    1  C   UNK N   1      27.596  21.361  -8.624  0.00  0.00     0.051 C 
HETATM    2  C   UNK N   1      32.634  26.879  -4.812  0.00  0.00     0.051 C 
HETATM    3  C   UNK N   1      27.222  25.392  -8.586  0.00  0.00     0.012 C 
HETATM    4  C   UNK N   1      26.694  30.903  -4.062  0.00  0.00     0.052 C 
HETATM    5  C   UNK N   1      28.468  26.897  -6.154  0.00  0.00     0.046 C 
HETATM    6  C   UNK N   1      26.184  23.355  -7.088  0.00  0.00     0.027 C 
HETATM    7  C   UNK N   1      30.210  27.491  -3.428  0.00  0.00     0.064 C 
HETATM    8  C   UNK N   1      25.513  28.052  -4.692  0.00  0.00     0.027 C 
HETATM    9  C   UNK N   1      30.246  22.681  -4.922  0.00  0.00     0.064 C 
HETATM   10  C   UNK N   1      27.966  21.911  -7.278  0.00  0.00    -0.025 C 
HETATM   11  C   UNK N   1      31.742  25.798  -4.323  0.00  0.00    -0.025 C 
HETATM   12  C   UNK N   1      26.107  25.658  -7.600  0.00  0.00     0.017 C 
HETATM   13  C   UNK N   1      27.358  29.627  -3.671  0.00  0.00    -0.017 A 
HETATM   14  C   UNK N   1      27.192  26.635  -5.774  0.00  0.00     0.040 A 
HETATM   15  C   UNK N   1      29.093  21.623  -6.589  0.00  0.00    -0.021 C 
HETATM   16  C   UNK N   1      31.736  24.471  -4.711  0.00  0.00    -0.021 C 
HETATM   17  C   UNK N   1      27.296  22.861  -6.563  0.00  0.00     0.061 C 
HETATM   18  C   UNK N   1      30.528  26.063  -3.788  0.00  0.00     0.066 C 
HETATM   19  C   UNK N   1      25.563  24.634  -6.855  0.00  0.00     0.104 C 
HETATM   20  C   UNK N   1      26.837  28.361  -3.910  0.00  0.00     0.062 A 
HETATM   21  C   UNK N   1      29.163  22.509  -5.568  0.00  0.00     0.066 C 
HETATM   22  C   UNK N   1      30.557  23.968  -4.393  0.00  0.00     0.066 C 
HETATM   23  C   UNK N   1      29.028  28.087  -3.356  0.00  0.00     0.074 A 
HETATM   24  C   UNK N   1      25.154  26.670  -5.834  0.00  0.00     0.111 C 
HETATM   25  C   UNK N   1      26.107  26.795  -6.756  0.00  0.00     0.070 C 
HETATM   26  C   UNK N   1      28.755  29.458  -3.363  0.00  0.00     0.046 A 
HETATM   27 Fe   UNK N   1      27.938  25.105  -4.778  0.00  0.00     0.000 Fe
HETATM   28  N   UNK N   1      28.093  23.314  -5.561  0.00  0.00    -0.248 N 
HETATM   29  N   UNK N   1      29.761  24.998  -4.136  0.00  0.00    -0.248 N 
HETATM   30  N   UNK N   1      25.403  25.206  -5.689  0.00  0.00    -0.231 NA
HETATM   31  N   UNK N   1      27.957  27.454  -3.685  0.00  0.00    -0.248 N 
HETATM   32  O   UNK N   1      26.626  26.073  -4.297  0.00  0.00    -0.365 OA
HETATM   33  H   UNK N   1      26.333  25.862  -3.432  0.00  0.00     0.217 HD
ENDROOT
BRANCH  15  34
HETATM   34  C   UNK N   1      29.977  20.495  -6.896  0.00  0.00     0.052 C 
BRANCH  34  35
HETATM   35  C   UNK N   1      30.958  21.174  -7.872  0.00  0.00     0.115 C 
BRANCH  35  36
HETATM   36  C   UNK N   1      31.970  20.211  -8.500  0.00  0.00     0.139 C 
HETATM   37  O   UNK N   1      32.220  20.263  -9.702  0.00  0.00    -0.650 OA
BRANCH  36  38
HETATM   38  O   UNK N   1      32.758  19.477  -7.700  0.00  0.00    -0.776 OA
HETATM   39  H   UNK N   1      33.419  19.748  -7.093  0.00  0.00     0.167 HD
ENDBRANCH  36  38
ENDBRANCH  35  36
ENDBRANCH  34  35
ENDBRANCH  15  34
BRANCH  16  40
HETATM   40  C   UNK N   1      32.550  23.796  -5.767  0.00  0.00     0.052 C 
BRANCH  40  41
HETATM   41  C   UNK N   1      33.812  23.302  -5.188  0.00  0.00     0.115 C 
BRANCH  41  42
HETATM   42  C   UNK N   1      33.872  21.916  -5.683  0.00  0.00     0.139 C 
HETATM   43  O   UNK N   1      33.284  21.040  -5.083  0.00  0.00    -0.650 OA
BRANCH  42  44
HETATM   44  O   UNK N   1      34.747  21.602  -6.661  0.00  0.00    -0.776 OA
HETATM   45  H   UNK N   1      35.643  21.573  -6.932  0.00  0.00     0.167 HD
ENDBRANCH  42  44
ENDBRANCH  41  42
ENDBRANCH  40  41
ENDBRANCH  16  40
BRANCH  26  46
HETATM   46  C   UNK N   1      29.807  30.513  -3.401  0.00  0.00     0.158 C 
HETATM   47  C   UNK N   1      30.433  31.032  -2.143  0.00  0.00     0.097 C 
HETATM   48  O   UNK N   1      30.262  30.880  -4.471  0.00  0.00    -0.293 OA
ENDBRANCH  26  46
TORSDOF 10
ENDMDL
MODEL 4
REMARK VINA RESULT:      -7.8      2.845      4.688
REMARK  10 active torsions:
REMARK  status: ('A' for Active; 'I' for Inactive)
REMARK    1  A    between atoms: C_9  and  C_7 
REMARK    2  A    between atoms: C_21  and  C_7 
REMARK    3  A    between atoms: C_10  and  C_8 
REMARK    4  A    between atoms: C_22  and  C_8 
REMARK    5  A    between atoms: C_31  and  C_9 
REMARK    6  A    between atoms: C_32  and  C_10 
REMARK    7  A    between atoms: C_33  and  C_19 
REMARK    8  A    between atoms: C_34  and  C_20 
REMARK    9  A    between atoms: O_42  and  C_31 
REMARK   10  A    between atoms: O_44  and  C_32 
ROOT
HETATM    1  C   UNK N   1      25.951  11.729   2.272  0.00  0.00     0.051 C 
HETATM    2  C   UNK N   1      29.029  17.848   7.113  0.00  0.00     0.051 C 
HETATM    3  C   UNK N   1      29.256  11.571   4.605  0.00  0.00     0.012 C 
HETATM    4  C   UNK N   1      35.473  14.927   5.704  0.00  0.00     0.052 C 
HETATM    5  C   UNK N   1      30.688  14.279   5.199  0.00  0.00     0.046 C 
HETATM    6  C   UNK N   1      28.792  12.131   1.970  0.00  0.00     0.027 C 
HETATM    7  C   UNK N   1      31.275  17.510   5.378  0.00  0.00     0.064 C 
HETATM    8  C   UNK N   1      33.654  13.689   3.450  0.00  0.00     0.027 C 
HETATM    9  C   UNK N   1      26.995  16.293   3.017  0.00  0.00     0.064 C 
HETATM   10  C   UNK N   1      26.690  13.033   2.225  0.00  0.00    -0.025 C 
HETATM   11  C   UNK N   1      28.844  17.696   5.648  0.00  0.00    -0.025 C 
HETATM   12  C   UNK N   1      30.408  11.695   3.634  0.00  0.00     0.017 C 
HETATM   13  C   UNK N   1      34.297  15.626   5.112  0.00  0.00    -0.017 A 
HETATM   14  C   UNK N   1      31.288  13.816   4.074  0.00  0.00     0.040 A 
HETATM   15  C   UNK N   1      26.147  14.258   2.410  0.00  0.00    -0.021 C 
HETATM   16  C   UNK N   1      27.681  17.370   4.976  0.00  0.00    -0.021 C 
HETATM   17  C   UNK N   1      28.036  13.213   2.091  0.00  0.00     0.061 C 
HETATM   18  C   UNK N   1      29.877  17.399   4.826  0.00  0.00     0.066 C 
HETATM   19  C   UNK N   1      30.184  11.957   2.300  0.00  0.00     0.104 C 
HETATM   20  C   UNK N   1      33.502  15.111   4.095  0.00  0.00     0.062 A 
HETATM   21  C   UNK N   1      27.178  15.125   2.545  0.00  0.00     0.066 C 
HETATM   22  C   UNK N   1      28.023  16.913   3.785  0.00  0.00     0.066 C 
HETATM   23  C   UNK N   1      32.370  16.865   5.002  0.00  0.00     0.074 A 
HETATM   24  C   UNK N   1      32.345  12.548   2.877  0.00  0.00     0.111 C 
HETATM   25  C   UNK N   1      31.601  12.382   3.969  0.00  0.00     0.070 C 
HETATM   26  C   UNK N   1      33.561  16.708   5.716  0.00  0.00     0.046 A 
HETATM   27 Fe   UNK N   1      30.104  15.047   3.089  0.00  0.00     0.000 Fe
HETATM   28  N   UNK N   1      28.351  14.497   2.402  0.00  0.00    -0.248 N 
HETATM   29  N   UNK N   1      29.323  16.652   3.837  0.00  0.00    -0.248 N 
HETATM   30  N   UNK N   1      31.146  12.800   2.026  0.00  0.00    -0.231 NA
HETATM   31  N   UNK N   1      32.312  15.954   4.095  0.00  0.00    -0.248 N 
HETATM   32  O   UNK N   1      31.707  14.655   2.681  0.00  0.00    -0.365 OA
HETATM   33  H   UNK N   1      32.023  15.170   1.965  0.00  0.00     0.217 HD
ENDROOT
BRANCH  15  34
HETATM   34  C   UNK N   1      24.708  14.531   2.372  0.00  0.00     0.052 C 
BRANCH  34  35
HETATM   35  C   UNK N   1      24.482  14.590   0.848  0.00  0.00     0.115 C 
BRANCH  35  36
HETATM   36  C   UNK N   1      23.318  13.719   0.362  0.00  0.00     0.139 C 
HETATM   37  O   UNK N   1      22.158  14.104   0.482  0.00  0.00    -0.650 OA
BRANCH  36  38
HETATM   38  O   UNK N   1      23.576  12.653  -0.409  0.00  0.00    -0.776 OA
HETATM   39  H   UNK N   1      23.005  11.971  -0.704  0.00  0.00     0.167 HD
ENDBRANCH  36  38
ENDBRANCH  35  36
ENDBRANCH  34  35
ENDBRANCH  15  34
BRANCH  16  40
HETATM   40  C   UNK N   1      26.343  17.006   5.533  0.00  0.00     0.052 C 
BRANCH  40  41
HETATM   41  C   UNK N   1      26.432  15.724   6.254  0.00  0.00     0.115 C 
BRANCH  41  42
HETATM   42  C   UNK N   1      25.049  15.221   6.188  0.00  0.00     0.139 C 
HETATM   43  O   UNK N   1      24.848  14.060   5.892  0.00  0.00    -0.650 OA
BRANCH  42  44
HETATM   44  O   UNK N   1      24.025  16.097   6.243  0.00  0.00    -0.776 OA
HETATM   45  H   UNK N   1      23.167  16.321   5.941  0.00  0.00     0.167 HD
ENDBRANCH  42  44
ENDBRANCH  41  42
ENDBRANCH  40  41
ENDBRANCH  16  40
BRANCH  26  46
HETATM   46  C   UNK N   1      33.815  17.317   7.051  0.00  0.00     0.158 C 
HETATM   47  C   UNK N   1      33.212  16.742   8.296  0.00  0.00     0.097 C 
HETATM   48  O   UNK N   1      34.621  18.225   7.162  0.00  0.00    -0.293 OA
ENDBRANCH  26  46
TORSDOF 10
ENDMDL
MODEL 5
REMARK VINA RESULT:      -7.7     11.792     13.725
REMARK  10 active torsions:
REMARK  status: ('A' for Active; 'I' for Inactive)
REMARK    1  A    between atoms: C_9  and  C_7 
REMARK    2  A    between atoms: C_21  and  C_7 
REMARK    3  A    between atoms: C_10  and  C_8 
REMARK    4  A    between atoms: C_22  and  C_8 
REMARK    5  A    between atoms: C_31  and  C_9 
REMARK    6  A    between atoms: C_32  and  C_10 
REMARK    7  A    between atoms: C_33  and  C_19 
REMARK    8  A    between atoms: C_34  and  C_20 
REMARK    9  A    between atoms: O_42  and  C_31 
REMARK   10  A    between atoms: O_44  and  C_32 
ROOT
HETATM    1  C   UNK N   1      25.815  26.065  -6.662  0.00  0.00     0.051 C 
HETATM    2  C   UNK N   1      31.098  20.454  -9.970  0.00  0.00     0.051 C 
HETATM    3  C   UNK N   1      29.782  25.718  -5.935  0.00  0.00     0.012 C 
HETATM    4  C   UNK N   1      34.653  20.979  -3.716  0.00  0.00     0.052 C 
HETATM    5  C   UNK N   1      31.044  22.894  -6.338  0.00  0.00     0.046 C 
HETATM    6  C   UNK N   1      27.519  24.787  -4.717  0.00  0.00     0.027 C 
HETATM    7  C   UNK N   1      31.395  19.744  -7.218  0.00  0.00     0.064 C 
HETATM    8  C   UNK N   1      31.839  22.203  -3.007  0.00  0.00     0.027 C 
HETATM    9  C   UNK N   1      26.817  21.656  -8.085  0.00  0.00     0.064 C 
HETATM   10  C   UNK N   1      26.214  24.620  -6.605  0.00  0.00    -0.025 C 
HETATM   11  C   UNK N   1      29.916  20.346  -9.079  0.00  0.00    -0.025 C 
HETATM   12  C   UNK N   1      29.859  25.060  -4.576  0.00  0.00     0.017 C 
HETATM   13  C   UNK N   1      33.378  20.551  -4.360  0.00  0.00    -0.017 A 
HETATM   14  C   UNK N   1      30.664  22.914  -5.036  0.00  0.00     0.040 A 
HETATM   15  C   UNK N   1      25.908  23.677  -7.525  0.00  0.00    -0.021 C 
HETATM   16  C   UNK N   1      28.649  20.854  -9.296  0.00  0.00    -0.021 C 
HETATM   17  C   UNK N   1      27.029  24.027  -5.685  0.00  0.00     0.061 C 
HETATM   18  C   UNK N   1      30.043  20.146  -7.747  0.00  0.00     0.066 C 
HETATM   19  C   UNK N   1      28.722  24.606  -3.944  0.00  0.00     0.104 C 
HETATM   20  C   UNK N   1      32.124  21.056  -4.038  0.00  0.00     0.062 A 
HETATM   21  C   UNK N   1      26.664  22.592  -7.236  0.00  0.00     0.066 C 
HETATM   22  C   UNK N   1      28.044  20.932  -8.125  0.00  0.00     0.066 C 
HETATM   23  C   UNK N   1      31.909  19.943  -6.013  0.00  0.00     0.074 A 
HETATM   24  C   UNK N   1      30.590  23.536  -3.095  0.00  0.00     0.111 C 
HETATM   25  C   UNK N   1      30.882  24.137  -4.247  0.00  0.00     0.070 C 
HETATM   26  C   UNK N   1      33.252  19.886  -5.631  0.00  0.00     0.046 A 
HETATM   27 Fe   UNK N   1      29.068  21.912  -5.617  0.00  0.00     0.000 Fe
HETATM   28  N   UNK N   1      27.399  22.801  -6.138  0.00  0.00    -0.248 N 
HETATM   29  N   UNK N   1      28.987  20.802  -7.201  0.00  0.00    -0.248 N 
HETATM   30  N   UNK N   1      29.136  23.478  -3.425  0.00  0.00    -0.231 NA
HETATM   31  N   UNK N   1      31.262  20.622  -5.131  0.00  0.00    -0.248 N 
HETATM   32  O   UNK N   1      29.892  21.719  -4.144  0.00  0.00    -0.365 OA
HETATM   33  H   UNK N   1      29.560  20.997  -3.648  0.00  0.00     0.217 HD
ENDROOT
BRANCH  15  34
HETATM   34  C   UNK N   1      24.879  23.841  -8.555  0.00  0.00     0.052 C 
BRANCH  34  35
HETATM   35  C   UNK N   1      25.693  24.571  -9.641  0.00  0.00     0.115 C 
BRANCH  35  36
HETATM   36  C   UNK N   1      24.832  25.349 -10.641  0.00  0.00     0.139 C 
HETATM   37  O   UNK N   1      24.718  26.569 -10.549  0.00  0.00    -0.650 OA
BRANCH  36  38
HETATM   38  O   UNK N   1      24.401  24.734 -11.751  0.00  0.00    -0.776 OA
HETATM   39  H   UNK N   1      24.696  24.814 -12.637  0.00  0.00     0.167 HD
ENDBRANCH  36  38
ENDBRANCH  35  36
ENDBRANCH  34  35
ENDBRANCH  15  34
BRANCH  16  40
HETATM   40  C   UNK N   1      28.157  21.705 -10.422  0.00  0.00     0.052 C 
BRANCH  40  41
HETATM   41  C   UNK N   1      27.638  20.852 -11.506  0.00  0.00     0.115 C 
BRANCH  41  42
HETATM   42  C   UNK N   1      26.285  21.393 -11.722  0.00  0.00     0.139 C 
HETATM   43  O   UNK N   1      26.141  22.403 -12.380  0.00  0.00    -0.650 OA
BRANCH  42  44
HETATM   44  O   UNK N   1      25.253  20.889 -11.014  0.00  0.00    -0.776 OA
HETATM   45  H   UNK N   1      24.890  20.143 -10.580  0.00  0.00     0.167 HD
ENDBRANCH  42  44
ENDBRANCH  41  42
ENDBRANCH  40  41
ENDBRANCH  16  40
BRANCH  26  46
HETATM   46  C   UNK N   1      34.362  19.520  -6.556  0.00  0.00     0.158 C 
HETATM   47  C   UNK N   1      34.769  18.092  -6.757  0.00  0.00     0.097 C 
HETATM   48  O   UNK N   1      34.875  20.374  -7.258  0.00  0.00    -0.293 OA
ENDBRANCH  26  46
TORSDOF 10
ENDMDL
MODEL 6
REMARK VINA RESULT:      -7.7      1.665      1.989
REMARK  10 active torsions:
REMARK  status: ('A' for Active; 'I' for Inactive)
REMARK    1  A    between atoms: C_9  and  C_7 
REMARK    2  A    between atoms: C_21  and  C_7 
REMARK    3  A    between atoms: C_10  and  C_8 
REMARK    4  A    between atoms: C_22  and  C_8 
REMARK    5  A    between atoms: C_31  and  C_9 
REMARK    6  A    between atoms: C_32  and  C_10 
REMARK    7  A    between atoms: C_33  and  C_19 
REMARK    8  A    between atoms: C_34  and  C_20 
REMARK    9  A    between atoms: O_42  and  C_31 
REMARK   10  A    between atoms: O_44  and  C_32 
ROOT
HETATM    1  C   UNK N   1      23.623  16.096   3.659  0.00  0.00     0.051 C 
HETATM    2  C   UNK N   1      30.995  16.360   7.649  0.00  0.00     0.051 C 
HETATM    3  C   UNK N   1      26.098  12.986   4.429  0.00  0.00     0.012 C 
HETATM    4  C   UNK N   1      32.837  10.832   3.397  0.00  0.00     0.052 C 
HETATM    5  C   UNK N   1      29.128  13.651   4.764  0.00  0.00     0.046 C 
HETATM    6  C   UNK N   1      25.730  14.665   2.303  0.00  0.00     0.027 C 
HETATM    7  C   UNK N   1      31.911  15.364   5.133  0.00  0.00     0.064 C 
HETATM    8  C   UNK N   1      30.331  12.031   1.913  0.00  0.00     0.027 C 
HETATM    9  C   UNK N   1      27.784  18.189   4.539  0.00  0.00     0.064 C 
HETATM   10  C   UNK N   1      25.055  16.512   3.498  0.00  0.00    -0.025 C 
HETATM   11  C   UNK N   1      30.499  16.938   6.375  0.00  0.00    -0.025 C 
HETATM   12  C   UNK N   1      26.771  12.704   3.105  0.00  0.00     0.017 C 
HETATM   13  C   UNK N   1      32.470  12.277   3.425  0.00  0.00    -0.017 A 
HETATM   14  C   UNK N   1      28.982  13.389   3.442  0.00  0.00     0.040 A 
HETATM   15  C   UNK N   1      25.628  17.605   4.050  0.00  0.00    -0.021 C 
HETATM   16  C   UNK N   1      29.375  17.721   6.187  0.00  0.00    -0.021 C 
HETATM   17  C   UNK N   1      26.047  15.823   2.862  0.00  0.00     0.061 C 
HETATM   18  C   UNK N   1      30.813  16.394   5.177  0.00  0.00     0.066 C 
HETATM   19  C   UNK N   1      26.576  13.533   2.022  0.00  0.00     0.104 C 
HETATM   20  C   UNK N   1      31.388  12.830   2.751  0.00  0.00     0.062 A 
HETATM   21  C   UNK N   1      26.965  17.474   3.878  0.00  0.00     0.066 C 
HETATM   22  C   UNK N   1      29.052  17.653   4.909  0.00  0.00     0.066 C 
HETATM   23  C   UNK N   1      32.091  14.377   4.266  0.00  0.00     0.074 A 
HETATM   24  C   UNK N   1      28.532  12.325   1.761  0.00  0.00     0.111 C 
HETATM   25  C   UNK N   1      28.118  12.271   3.026  0.00  0.00     0.070 C 
HETATM   26  C   UNK N   1      32.887  13.238   4.415  0.00  0.00     0.046 A 
HETATM   27 Fe   UNK N   1      28.927  15.343   3.190  0.00  0.00     0.000 Fe
HETATM   28  N   UNK N   1      27.249  16.360   3.194  0.00  0.00    -0.248 N 
HETATM   29  N   UNK N   1      29.724  16.628   4.400  0.00  0.00    -0.248 N 
HETATM   30  N   UNK N   1      27.776  13.585   1.503  0.00  0.00    -0.231 NA
HETATM   31  N   UNK N   1      31.223  14.153   3.342  0.00  0.00    -0.248 N 
HETATM   32  O   UNK N   1      29.620  14.214   2.126  0.00  0.00    -0.365 OA
HETATM   33  H   UNK N   1      30.076  14.630   1.421  0.00  0.00     0.217 HD
ENDROOT
BRANCH  15  34
HETATM   34  C   UNK N   1      24.876  18.722   4.628  0.00  0.00     0.052 C 
BRANCH  34  35
HETATM   35  C   UNK N   1      24.769  19.645   3.398  0.00  0.00     0.115 C 
BRANCH  35  36
HETATM   36  C   UNK N   1      23.345  20.136   3.116  0.00  0.00     0.139 C 
HETATM   37  O   UNK N   1      22.374  19.464   3.455  0.00  0.00    -0.650 OA
BRANCH  36  38
HETATM   38  O   UNK N   1      23.156  21.403   2.720  0.00  0.00    -0.776 OA
HETATM   39  H   UNK N   1      23.783  22.065   2.502  0.00  0.00     0.167 HD
ENDBRANCH  36  38
ENDBRANCH  35  36
ENDBRANCH  34  35
ENDBRANCH  15  34
BRANCH  16  40
HETATM   40  C   UNK N   1      28.331  18.119   7.178  0.00  0.00     0.052 C 
BRANCH  40  41
HETATM   41  C   UNK N   1      28.918  19.008   8.196  0.00  0.00     0.115 C 
BRANCH  41  42
HETATM   42  C   UNK N   1      28.609  18.306   9.453  0.00  0.00     0.139 C 
HETATM   43  O   UNK N   1      29.412  18.327  10.364  0.00  0.00    -0.650 OA
BRANCH  42  44
HETATM   44  O   UNK N   1      27.547  17.476   9.501  0.00  0.00    -0.776 OA
HETATM   45  H   UNK N   1      26.949  16.938   9.021  0.00  0.00     0.167 HD
ENDBRANCH  42  44
ENDBRANCH  41  42
ENDBRANCH  40  41
ENDBRANCH  16  40
BRANCH  26  46
HETATM   46  C   UNK N   1      33.740  12.972   5.607  0.00  0.00     0.158 C 
HETATM   47  C   UNK N   1      35.141  13.495   5.694  0.00  0.00     0.097 C 
HETATM   48  O   UNK N   1      33.262  12.425   6.587  0.00  0.00    -0.293 OA
ENDBRANCH  26  46
TORSDOF 10
ENDMDL
MODEL 7
REMARK VINA RESULT:      -7.7      2.726      5.896
REMARK  10 active torsions:
REMARK  status: ('A' for Active; 'I' for Inactive)
REMARK    1  A    between atoms: C_9  and  C_7 
REMARK    2  A    between atoms: C_21  and  C_7 
REMARK    3  A    between atoms: C_10  and  C_8 
REMARK    4  A    between atoms: C_22  and  C_8 
REMARK    5  A    between atoms: C_31  and  C_9 
REMARK    6  A    between atoms: C_32  and  C_10 
REMARK    7  A    between atoms: C_33  and  C_19 
REMARK    8  A    between atoms: C_34  and  C_20 
REMARK    9  A    between atoms: O_42  and  C_31 
REMARK   10  A    between atoms: O_44  and  C_32 
ROOT
HETATM    1  C   UNK N   1      22.676  20.425   3.017  0.00  0.00     0.051 C 
HETATM    2  C   UNK N   1      26.849  13.236   1.896  0.00  0.00     0.051 C 
HETATM    3  C   UNK N   1      26.691  19.910   2.983  0.00  0.00     0.012 C 
HETATM    4  C   UNK N   1      31.860  16.152   6.189  0.00  0.00     0.052 C 
HETATM    5  C   UNK N   1      27.753  17.085   3.774  0.00  0.00     0.046 C 
HETATM    6  C   UNK N   1      24.784  19.994   4.939  0.00  0.00     0.027 C 
HETATM    7  C   UNK N   1      27.808  13.879   4.511  0.00  0.00     0.064 C 
HETATM    8  C   UNK N   1      29.337  17.948   6.766  0.00  0.00     0.027 C 
HETATM    9  C   UNK N   1      23.198  15.776   3.782  0.00  0.00     0.064 C 
HETATM   10  C   UNK N   1      23.047  19.139   3.695  0.00  0.00    -0.025 C 
HETATM   11  C   UNK N   1      25.924  13.731   2.947  0.00  0.00    -0.025 C 
HETATM   12  C   UNK N   1      27.091  19.969   4.440  0.00  0.00     0.017 C 
HETATM   13  C   UNK N   1      30.456  15.655   6.119  0.00  0.00    -0.017 A 
HETATM   14  C   UNK N   1      27.710  17.771   4.943  0.00  0.00     0.040 A 
HETATM   15  C   UNK N   1      22.501  17.927   3.446  0.00  0.00    -0.021 C 
HETATM   16  C   UNK N   1      24.654  14.248   2.774  0.00  0.00    -0.021 C 
HETATM   17  C   UNK N   1      24.052  18.944   4.597  0.00  0.00     0.061 C 
HETATM   18  C   UNK N   1      26.375  14.169   4.145  0.00  0.00     0.066 C 
HETATM   19  C   UNK N   1      26.137  20.032   5.433  0.00  0.00     0.104 C 
HETATM   20  C   UNK N   1      29.332  16.422   6.401  0.00  0.00     0.062 A 
HETATM   21  C   UNK N   1      23.282  17.013   4.069  0.00  0.00     0.066 C 
HETATM   22  C   UNK N   1      24.362  14.955   3.851  0.00  0.00     0.066 C 
HETATM   23  C   UNK N   1      28.610  14.551   5.325  0.00  0.00     0.074 A 
HETATM   24  C   UNK N   1      28.134  19.241   6.292  0.00  0.00     0.111 C 
HETATM   25  C   UNK N   1      28.144  19.178   4.962  0.00  0.00     0.070 C 
HETATM   26  C   UNK N   1      30.004  14.492   5.398  0.00  0.00     0.046 A 
HETATM   27 Fe   UNK N   1      25.999  16.850   5.275  0.00  0.00     0.000 Fe
HETATM   28  N   UNK N   1      24.272  17.611   4.742  0.00  0.00    -0.248 N 
HETATM   29  N   UNK N   1      25.502  15.146   4.501  0.00  0.00    -0.248 N 
HETATM   30  N   UNK N   1      26.643  19.239   6.342  0.00  0.00    -0.231 NA
HETATM   31  N   UNK N   1      28.216  15.649   5.869  0.00  0.00    -0.248 N 
HETATM   32  O   UNK N   1      27.159  17.263   6.446  0.00  0.00    -0.365 OA
HETATM   33  H   UNK N   1      26.946  16.916   7.289  0.00  0.00     0.217 HD
ENDROOT
BRANCH  15  34
HETATM   34  C   UNK N   1      21.251  17.727   2.707  0.00  0.00     0.052 C 
BRANCH  34  35
HETATM   35  C   UNK N   1      20.244  17.711   3.875  0.00  0.00     0.115 C 
BRANCH  35  36
HETATM   36  C   UNK N   1      19.481  16.390   4.014  0.00  0.00     0.139 C 
HETATM   37  O   UNK N   1      18.682  16.224   4.932  0.00  0.00    -0.650 OA
BRANCH  36  38
HETATM   38  O   UNK N   1      19.504  15.512   3.001  0.00  0.00    -0.776 OA
HETATM   39  H   UNK N   1      18.808  15.009   2.624  0.00  0.00     0.167 HD
ENDBRANCH  36  38
ENDBRANCH  35  36
ENDBRANCH  34  35
ENDBRANCH  15  34
BRANCH  16  40
HETATM   40  C   UNK N   1      23.916  14.524   1.505  0.00  0.00     0.052 C 
BRANCH  40  41
HETATM   41  C   UNK N   1      23.268  13.292   1.023  0.00  0.00     0.115 C 
BRANCH  41  42
HETATM   42  C   UNK N   1      21.893  13.739   0.741  0.00  0.00     0.139 C 
HETATM   43  O   UNK N   1      21.647  14.927   0.696  0.00  0.00    -0.650 OA
BRANCH  42  44
HETATM   44  O   UNK N   1      20.891  12.836   0.749  0.00  0.00    -0.776 OA
HETATM   45  H   UNK N   1      20.651  11.932   0.784  0.00  0.00     0.167 HD
ENDBRANCH  42  44
ENDBRANCH  41  42
ENDBRANCH  40  41
ENDBRANCH  16  40
BRANCH  26  46
HETATM   46  C   UNK N   1      30.840  13.580   4.568  0.00  0.00     0.158 C 
HETATM   47  C   UNK N   1      31.338  13.995   3.217  0.00  0.00     0.097 C 
HETATM   48  O   UNK N   1      31.236  12.525   5.035  0.00  0.00    -0.293 OA
ENDBRANCH  26  46
TORSDOF 10
ENDMDL
MODEL 8
REMARK VINA RESULT:      -7.5      1.710      2.178
REMARK  10 active torsions:
REMARK  status: ('A' for Active; 'I' for Inactive)
REMARK    1  A    between atoms: C_9  and  C_7 
REMARK    2  A    between atoms: C_21  and  C_7 
REMARK    3  A    between atoms: C_10  and  C_8 
REMARK    4  A    between atoms: C_22  and  C_8 
REMARK    5  A    between atoms: C_31  and  C_9 
REMARK    6  A    between atoms: C_32  and  C_10 
REMARK    7  A    between atoms: C_33  and  C_19 
REMARK    8  A    between atoms: C_34  and  C_20 
REMARK    9  A    between atoms: O_42  and  C_31 
REMARK   10  A    between atoms: O_44  and  C_32 
ROOT
HETATM    1  C   UNK N   1      21.382  15.348   6.630  0.00  0.00     0.051 C 
HETATM    2  C   UNK N   1      28.999  18.407   4.906  0.00  0.00     0.051 C 
HETATM    3  C   UNK N   1      24.935  13.462   7.091  0.00  0.00     0.012 C 
HETATM    4  C   UNK N   1      30.766  11.575   3.410  0.00  0.00     0.052 C 
HETATM    5  C   UNK N   1      27.273  14.400   5.250  0.00  0.00     0.046 C 
HETATM    6  C   UNK N   1      23.045  13.539   5.118  0.00  0.00     0.027 C 
HETATM    7  C   UNK N   1      29.018  16.185   3.108  0.00  0.00     0.064 C 
HETATM    8  C   UNK N   1      27.619  11.499   3.335  0.00  0.00     0.027 C 
HETATM    9  C   UNK N   1      24.318  17.834   3.861  0.00  0.00     0.064 C 
HETATM   10  C   UNK N   1      22.307  15.685   5.499  0.00  0.00    -0.025 C 
HETATM   11  C   UNK N   1      27.811  18.089   4.075  0.00  0.00    -0.025 C 
HETATM   12  C   UNK N   1      25.005  12.502   5.925  0.00  0.00     0.017 C 
HETATM   13  C   UNK N   1      29.919  12.731   3.000  0.00  0.00    -0.017 A 
HETATM   14  C   UNK N   1      26.674  13.401   4.556  0.00  0.00     0.040 A 
HETATM   15  C   UNK N   1      22.588  16.930   5.050  0.00  0.00    -0.021 C 
HETATM   16  C   UNK N   1      26.514  18.533   4.255  0.00  0.00    -0.021 C 
HETATM   17  C   UNK N   1      23.097  14.823   4.795  0.00  0.00     0.061 C 
HETATM   18  C   UNK N   1      27.748  16.967   3.321  0.00  0.00     0.066 C 
HETATM   19  C   UNK N   1      24.046  12.519   4.936  0.00  0.00     0.104 C 
HETATM   20  C   UNK N   1      28.532  12.708   2.930  0.00  0.00     0.062 A 
HETATM   21  C   UNK N   1      23.644  16.813   4.211  0.00  0.00     0.066 C 
HETATM   22  C   UNK N   1      25.716  17.705   3.609  0.00  0.00     0.066 C 
HETATM   23  C   UNK N   1      29.166  14.892   2.855  0.00  0.00     0.074 A 
HETATM   24  C   UNK N   1      25.983  11.525   4.154  0.00  0.00     0.111 C 
HETATM   25  C   UNK N   1      26.227  12.197   5.277  0.00  0.00     0.070 C 
HETATM   26  C   UNK N   1      30.319  14.116   2.999  0.00  0.00     0.046 A 
HETATM   27 Fe   UNK N   1      25.757  14.824   3.546  0.00  0.00     0.000 Fe
HETATM   28  N   UNK N   1      24.006  15.532   4.077  0.00  0.00    -0.248 N 
HETATM   29  N   UNK N   1      26.434  16.625   3.328  0.00  0.00    -0.248 N 
HETATM   30  N   UNK N   1      24.768  12.337   3.860  0.00  0.00    -0.231 NA
HETATM   31  N   UNK N   1      28.144  14.110   2.837  0.00  0.00    -0.248 N 
HETATM   32  O   UNK N   1      26.288  13.335   2.923  0.00  0.00    -0.365 OA
HETATM   33  H   UNK N   1      26.183  13.286   1.993  0.00  0.00     0.217 HD
ENDROOT
BRANCH  15  34
HETATM   34  C   UNK N   1      21.799  18.119   5.385  0.00  0.00     0.052 C 
BRANCH  34  35
HETATM   35  C   UNK N   1      20.808  18.130   4.204  0.00  0.00     0.115 C 
BRANCH  35  36
HETATM   36  C   UNK N   1      20.830  19.428   3.391  0.00  0.00     0.139 C 
HETATM   37  O   UNK N   1      21.055  19.405   2.183  0.00  0.00    -0.650 OA
BRANCH  36  38
HETATM   38  O   UNK N   1      20.368  20.557   3.948  0.00  0.00    -0.776 OA
HETATM   39  H   UNK N   1      20.830  21.249   4.379  0.00  0.00     0.167 HD
ENDBRANCH  36  38
ENDBRANCH  35  36
ENDBRANCH  34  35
ENDBRANCH  15  34
BRANCH  16  40
HETATM   40  C   UNK N   1      25.951  19.367   5.360  0.00  0.00     0.052 C 
BRANCH  40  41
HETATM   41  C   UNK N   1      26.246  20.790   5.115  0.00  0.00     0.115 C 
BRANCH  41  42
HETATM   42  C   UNK N   1      26.778  21.237   6.414  0.00  0.00     0.139 C 
HETATM   43  O   UNK N   1      27.870  21.766   6.463  0.00  0.00    -0.650 OA
BRANCH  42  44
HETATM   44  O   UNK N   1      26.151  20.863   7.548  0.00  0.00    -0.776 OA
HETATM   45  H   UNK N   1      26.178  20.827   8.483  0.00  0.00     0.167 HD
ENDBRANCH  42  44
ENDBRANCH  41  42
ENDBRANCH  40  41
ENDBRANCH  16  40
BRANCH  26  46
HETATM   46  C   UNK N   1      31.638  14.660   3.427  0.00  0.00     0.158 C 
HETATM   47  C   UNK N   1      32.007  14.756   4.875  0.00  0.00     0.097 C 
HETATM   48  O   UNK N   1      32.487  14.922   2.592  0.00  0.00    -0.293 OA
ENDBRANCH  26  46
TORSDOF 10
ENDMDL
MODEL 9
REMARK VINA RESULT:      -7.5      1.876      2.863
REMARK  10 active torsions:
REMARK  status: ('A' for Active; 'I' for Inactive)
REMARK    1  A    between atoms: C_9  and  C_7 
REMARK    2  A    between atoms: C_21  and  C_7 
REMARK    3  A    between atoms: C_10  and  C_8 
REMARK    4  A    between atoms: C_22  and  C_8 
REMARK    5  A    between atoms: C_31  and  C_9 
REMARK    6  A    between atoms: C_32  and  C_10 
REMARK    7  A    between atoms: C_33  and  C_19 
REMARK    8  A    between atoms: C_34  and  C_20 
REMARK    9  A    between atoms: O_42  and  C_31 
REMARK   10  A    between atoms: O_44  and  C_32 
ROOT
HETATM    1  C   UNK N   1      24.854  15.032   2.827  0.00  0.00     0.051 C 
HETATM    2  C   UNK N   1      30.956  16.924   8.261  0.00  0.00     0.051 C 
HETATM    3  C   UNK N   1      27.659  12.525   4.321  0.00  0.00     0.012 C 
HETATM    4  C   UNK N   1      34.748  11.793   4.895  0.00  0.00     0.052 C 
HETATM    5  C   UNK N   1      30.347  13.813   5.243  0.00  0.00     0.046 C 
HETATM    6  C   UNK N   1      27.448  14.036   2.053  0.00  0.00     0.027 C 
HETATM    7  C   UNK N   1      32.586  16.076   6.072  0.00  0.00     0.064 C 
HETATM    8  C   UNK N   1      32.448  12.407   2.832  0.00  0.00     0.027 C 
HETATM    9  C   UNK N   1      28.219  17.966   4.420  0.00  0.00     0.064 C 
HETATM   10  C   UNK N   1      26.175  15.732   2.945  0.00  0.00    -0.025 C 
HETATM   11  C   UNK N   1      30.651  17.353   6.873  0.00  0.00    -0.025 C 
HETATM   12  C   UNK N   1      28.652  12.356   3.193  0.00  0.00     0.017 C 
HETATM   13  C   UNK N   1      34.107  13.130   4.743  0.00  0.00    -0.017 A 
HETATM   14  C   UNK N   1      30.553  13.493   3.942  0.00  0.00     0.040 A 
HETATM   15  C   UNK N   1      26.384  16.935   3.528  0.00  0.00    -0.021 C 
HETATM   16  C   UNK N   1      29.466  17.880   6.396  0.00  0.00    -0.021 C 
HETATM   17  C   UNK N   1      27.399  15.249   2.584  0.00  0.00     0.061 C 
HETATM   18  C   UNK N   1      31.324  16.856   5.809  0.00  0.00     0.066 C 
HETATM   19  C   UNK N   1      28.542  13.098   2.037  0.00  0.00     0.104 C 
HETATM   20  C   UNK N   1      33.114  13.429   3.818  0.00  0.00     0.062 A 
HETATM   21  C   UNK N   1      27.725  17.079   3.652  0.00  0.00     0.066 C 
HETATM   22  C   UNK N   1      29.454  17.714   5.086  0.00  0.00     0.066 C 
HETATM   23  C   UNK N   1      33.145  15.126   5.335  0.00  0.00     0.074 A 
HETATM   24  C   UNK N   1      30.706  12.316   2.283  0.00  0.00     0.111 C 
HETATM   25  C   UNK N   1      30.040  12.210   3.432  0.00  0.00     0.070 C 
HETATM   26  C   UNK N   1      34.096  14.181   5.728  0.00  0.00     0.046 A 
HETATM   27 Fe   UNK N   1      30.171  15.386   3.547  0.00  0.00     0.000 Fe
HETATM   28  N   UNK N   1      28.368  16.032   3.124  0.00  0.00    -0.248 N 
HETATM   29  N   UNK N   1      30.411  16.839   4.805  0.00  0.00    -0.248 N 
HETATM   30  N   UNK N   1      29.793  13.385   1.783  0.00  0.00    -0.231 NA
HETATM   31  N   UNK N   1      32.565  14.703   4.266  0.00  0.00    -0.248 N 
HETATM   32  O   UNK N   1      31.292  14.399   2.737  0.00  0.00    -0.365 OA
HETATM   33  H   UNK N   1      31.802  14.882   2.117  0.00  0.00     0.217 HD
ENDROOT
BRANCH  15  34
HETATM   34  C   UNK N   1      25.317  17.885   3.853  0.00  0.00     0.052 C 
BRANCH  34  35
HETATM   35  C   UNK N   1      25.303  18.731   2.564  0.00  0.00     0.115 C 
BRANCH  35  36
HETATM   36  C   UNK N   1      25.369  20.241   2.816  0.00  0.00     0.139 C 
HETATM   37  O   UNK N   1      24.516  20.991   2.348  0.00  0.00    -0.650 OA
BRANCH  36  38
HETATM   38  O   UNK N   1      26.216  20.713   3.743  0.00  0.00    -0.776 OA
HETATM   39  H   UNK N   1      26.062  21.301   4.456  0.00  0.00     0.167 HD
ENDBRANCH  36  38
ENDBRANCH  35  36
ENDBRANCH  34  35
ENDBRANCH  15  34
BRANCH  16  40
HETATM   40  C   UNK N   1      28.170  18.078   7.112  0.00  0.00     0.052 C 
BRANCH  40  41
HETATM   41  C   UNK N   1      28.151  19.402   7.759  0.00  0.00     0.115 C 
BRANCH  41  42
HETATM   42  C   UNK N   1      27.396  20.221   6.796  0.00  0.00     0.139 C 
HETATM   43  O   UNK N   1      27.867  21.268   6.400  0.00  0.00    -0.650 OA
BRANCH  42  44
HETATM   44  O   UNK N   1      26.110  19.911   6.532  0.00  0.00    -0.776 OA
HETATM   45  H   UNK N   1      25.253  20.228   6.327  0.00  0.00     0.167 HD
ENDBRANCH  42  44
ENDBRANCH  41  42
ENDBRANCH  40  41
ENDBRANCH  16  40
BRANCH  26  46
HETATM   46  C   UNK N   1      34.698  14.128   7.090  0.00  0.00     0.158 C 
HETATM   47  C   UNK N   1      34.014  13.417   8.217  0.00  0.00     0.097 C 
HETATM   48  O   UNK N   1      35.823  14.562   7.275  0.00  0.00    -0.293 OA
ENDBRANCH  26  46
TORSDOF 10
ENDMDL
