MODEL 1
REMARK VINA RESULT:      -3.6      0.000      0.000
REMARK  3 active torsions:
REMARK  status: ('A' for Active; 'I' for Inactive)
REMARK    1  A    between atoms: C_2  and  C_3 
REMARK    2  A    between atoms: C_3  and  C_4 
REMARK    3  A    between atoms: C_4  and  O_5 
ROOT
HETATM    1  C   UNK N   1      23.866  12.030  11.950  0.00  0.00     0.139 C 
HETATM    2  O   UNK N   1      23.574  12.003  13.141  0.00  0.00    -0.650 OA
ENDROOT
BRANCH   1   3
HETATM    3  C   UNK N   1      22.868  11.654  10.897  0.00  0.00     0.109 C 
BRANCH   3   4
HETATM    4  C   UNK N   1      21.482  12.232  11.124  0.00  0.00     0.006 C 
HETATM    5  C   UNK N   1      21.228  13.299  10.081  0.00  0.00     0.005 C 
ENDBRANCH   3   4
ENDBRANCH   1   3
BRANCH   1   6
HETATM    6  O   UNK N   1      25.103  12.402  11.581  0.00  0.00    -0.776 OA
HETATM    7  H   UNK N   1      25.229  12.895  10.794  0.00  0.00     0.167 HD
ENDBRANCH   1   6
TORSDOF 3
ENDMDL
MODEL 2
REMARK VINA RESULT:      -3.5     11.598     12.513
REMARK  3 active torsions:
REMARK  status: ('A' for Active; 'I' for Inactive)
REMARK    1  A    between atoms: C_2  and  C_3 
REMARK    2  A    between atoms: C_3  and  C_4 
REMARK    3  A    between atoms: C_4  and  O_5 
ROOT
HETATM    1  C   UNK N   1      34.417  18.241   7.891  0.00  0.00     0.139 C 
HETATM    2  O   UNK N   1      34.522  18.051   6.683  0.00  0.00    -0.650 OA
ENDROOT
BRANCH   1   3
HETATM    3  C   UNK N   1      33.407  17.494   8.708  0.00  0.00     0.109 C 
BRANCH   3   4
HETATM    4  C   UNK N   1      31.967  17.884   8.421  0.00  0.00     0.006 C 
HETATM    5  C   UNK N   1      31.289  16.734   7.708  0.00  0.00     0.005 C 
ENDBRANCH   3   4
ENDBRANCH   1   3
BRANCH   1   6
HETATM    6  O   UNK N   1      35.221  19.133   8.492  0.00  0.00    -0.776 OA
HETATM    7  H   UNK N   1      36.081  19.290   8.157  0.00  0.00     0.167 HD
ENDBRANCH   1   6
TORSDOF 3
ENDMDL
MODEL 3
REMARK VINA RESULT:      -3.5     12.895     13.486
REMARK  3 active torsions:
REMARK  status: ('A' for Active; 'I' for Inactive)
REMARK    1  A    between atoms: C_2  and  C_3 
REMARK    2  A    between atoms: C_3  and  C_4 
REMARK    3  A    between atoms: C_4  and  O_5 
ROOT
HETATM    1  C   UNK N   1      34.580  18.264   8.051  0.00  0.00     0.139 C 
HETATM    2  O   UNK N   1      34.464  18.141   6.836  0.00  0.00    -0.650 OA
ENDROOT
BRANCH   1   3
HETATM    3  C   UNK N   1      33.919  17.305   8.994  0.00  0.00     0.109 C 
BRANCH   3   4
HETATM    4  C   UNK N   1      34.821  16.177   9.463  0.00  0.00     0.006 C 
HETATM    5  C   UNK N   1      35.397  16.548  10.813  0.00  0.00     0.005 C 
ENDBRANCH   3   4
ENDBRANCH   1   3
BRANCH   1   6
HETATM    6  O   UNK N   1      35.311  19.276   8.546  0.00  0.00    -0.776 OA
HETATM    7  H   UNK N   1      34.992  20.155   8.494  0.00  0.00     0.167 HD
ENDBRANCH   1   6
TORSDOF 3
ENDMDL
MODEL 4
REMARK VINA RESULT:      -3.4     12.570     13.368
REMARK  3 active torsions:
REMARK  status: ('A' for Active; 'I' for Inactive)
REMARK    1  A    between atoms: C_2  and  C_3 
REMARK    2  A    between atoms: C_3  and  C_4 
REMARK    3  A    between atoms: C_4  and  O_5 
ROOT
HETATM    1  C   UNK N   1      20.783  21.204   0.990  0.00  0.00     0.139 C 
HETATM    2  O   UNK N   1      21.121  20.540   0.015  0.00  0.00    -0.650 OA
ENDROOT
BRANCH   1   3
HETATM    3  C   UNK N   1      20.802  20.622   2.370  0.00  0.00     0.109 C 
BRANCH   3   4
HETATM    4  C   UNK N   1      20.787  19.103   2.401  0.00  0.00     0.006 C 
HETATM    5  C   UNK N   1      19.375  18.641   2.694  0.00  0.00     0.005 C 
ENDBRANCH   3   4
ENDBRANCH   1   3
BRANCH   1   6
HETATM    6  O   UNK N   1      20.388  22.477   0.818  0.00  0.00    -0.776 OA
HETATM    7  H   UNK N   1      19.757  22.854   1.398  0.00  0.00     0.167 HD
ENDBRANCH   1   6
TORSDOF 3
ENDMDL
MODEL 5
REMARK VINA RESULT:      -3.4     12.753     13.260
REMARK  3 active torsions:
REMARK  status: ('A' for Active; 'I' for Inactive)
REMARK    1  A    between atoms: C_2  and  C_3 
REMARK    2  A    between atoms: C_3  and  C_4 
REMARK    3  A    between atoms: C_4  and  O_5 
ROOT
HETATM    1  C   UNK N   1      34.578  18.269   8.498  0.00  0.00     0.139 C 
HETATM    2  O   UNK N   1      35.323  19.241   8.428  0.00  0.00    -0.650 OA
ENDROOT
BRANCH   1   3
HETATM    3  C   UNK N   1      33.532  18.017   7.455  0.00  0.00     0.109 C 
BRANCH   3   4
HETATM    4  C   UNK N   1      33.998  17.129   6.314  0.00  0.00     0.006 C 
HETATM    5  C   UNK N   1      33.190  17.469   5.078  0.00  0.00     0.005 C 
ENDBRANCH   3   4
ENDBRANCH   1   3
BRANCH   1   6
HETATM    6  O   UNK N   1      34.701  17.415   9.527  0.00  0.00    -0.776 OA
HETATM    7  H   UNK N   1      34.300  17.612  10.351  0.00  0.00     0.167 HD
ENDBRANCH   1   6
TORSDOF 3
ENDMDL
MODEL 6
REMARK VINA RESULT:      -3.2      1.846      2.328
REMARK  3 active torsions:
REMARK  status: ('A' for Active; 'I' for Inactive)
REMARK    1  A    between atoms: C_2  and  C_3 
REMARK    2  A    between atoms: C_3  and  C_4 
REMARK    3  A    between atoms: C_4  and  O_5 
ROOT
HETATM    1  C   UNK N   1      23.227  11.918  12.561  0.00  0.00     0.139 C 
HETATM    2  O   UNK N   1      23.632  12.113  13.702  0.00  0.00    -0.650 OA
ENDROOT
BRANCH   1   3
HETATM    3  C   UNK N   1      24.150  12.012  11.384  0.00  0.00     0.109 C 
BRANCH   3   4
HETATM    4  C   UNK N   1      23.559  12.740  10.189  0.00  0.00     0.006 C 
HETATM    5  C   UNK N   1      24.682  13.104   9.242  0.00  0.00     0.005 C 
ENDBRANCH   3   4
ENDBRANCH   1   3
BRANCH   1   6
HETATM    6  O   UNK N   1      21.934  11.615  12.360  0.00  0.00    -0.776 OA
HETATM    7  H   UNK N   1      21.647  11.315  11.521  0.00  0.00     0.167 HD
ENDBRANCH   1   6
TORSDOF 3
ENDMDL
MODEL 7
REMARK VINA RESULT:      -3.1     12.936     13.566
REMARK  3 active torsions:
REMARK  status: ('A' for Active; 'I' for Inactive)
REMARK    1  A    between atoms: C_2  and  C_3 
REMARK    2  A    between atoms: C_3  and  C_4 
REMARK    3  A    between atoms: C_4  and  O_5 
ROOT
HETATM    1  C   UNK N   1      35.953  13.810  14.223  0.00  0.00     0.139 C 
HETATM    2  O   UNK N   1      34.932  13.447  13.647  0.00  0.00    -0.650 OA
ENDROOT
BRANCH   1   3
HETATM    3  C   UNK N   1      36.259  13.358  15.619  0.00  0.00     0.109 C 
BRANCH   3   4
HETATM    4  C   UNK N   1      35.027  13.077  16.462  0.00  0.00     0.006 C 
HETATM    5  C   UNK N   1      35.202  13.750  17.808  0.00  0.00     0.005 C 
ENDBRANCH   3   4
ENDBRANCH   1   3
BRANCH   1   6
HETATM    6  O   UNK N   1      36.813  14.628  13.593  0.00  0.00    -0.776 OA
HETATM    7  H   UNK N   1      37.183  14.375  12.770  0.00  0.00     0.167 HD
ENDBRANCH   1   6
TORSDOF 3
ENDMDL
MODEL 8
REMARK VINA RESULT:      -3.1      8.761      9.631
REMARK  3 active torsions:
REMARK  status: ('A' for Active; 'I' for Inactive)
REMARK    1  A    between atoms: C_2  and  C_3 
REMARK    2  A    between atoms: C_3  and  C_4 
REMARK    3  A    between atoms: C_4  and  O_5 
ROOT
HETATM    1  C   UNK N   1      28.919  18.338   9.344  0.00  0.00     0.139 C 
HETATM    2  O   UNK N   1      29.531  18.810  10.298  0.00  0.00    -0.650 OA
ENDROOT
BRANCH   1   3
HETATM    3  C   UNK N   1      29.630  17.936   8.089  0.00  0.00     0.109 C 
BRANCH   3   4
HETATM    4  C   UNK N   1      30.772  16.959   8.309  0.00  0.00     0.006 C 
HETATM    5  C   UNK N   1      32.079  17.719   8.228  0.00  0.00     0.005 C 
ENDBRANCH   3   4
ENDBRANCH   1   3
BRANCH   1   6
HETATM    6  O   UNK N   1      27.588  18.180   9.426  0.00  0.00    -0.776 OA
HETATM    7  H   UNK N   1      27.015  18.824   9.061  0.00  0.00     0.167 HD
ENDBRANCH   1   6
TORSDOF 3
ENDMDL
MODEL 9
REMARK VINA RESULT:      -3.0     19.153     19.669
REMARK  3 active torsions:
REMARK  status: ('A' for Active; 'I' for Inactive)
REMARK    1  A    between atoms: C_2  and  C_3 
REMARK    2  A    between atoms: C_3  and  C_4 
REMARK    3  A    between atoms: C_4  and  O_5 
ROOT
HETATM    1  C   UNK N   1      31.509  22.271  -2.626  0.00  0.00     0.139 C 
HETATM    2  O   UNK N   1      30.829  22.928  -1.844  0.00  0.00    -0.650 OA
ENDROOT
BRANCH   1   3
HETATM    3  C   UNK N   1      31.436  22.507  -4.104  0.00  0.00     0.109 C 
BRANCH   3   4
HETATM    4  C   UNK N   1      30.268  21.815  -4.785  0.00  0.00     0.006 C 
HETATM    5  C   UNK N   1      29.267  22.868  -5.213  0.00  0.00     0.005 C 
ENDBRANCH   3   4
ENDBRANCH   1   3
BRANCH   1   6
HETATM    6  O   UNK N   1      32.334  21.324  -2.151  0.00  0.00    -0.776 OA
HETATM    7  H   UNK N   1      33.250  21.501  -2.063  0.00  0.00     0.167 HD
ENDBRANCH   1   6
TORSDOF 3
ENDMDL
