REMARK  12 active torsions:
REMARK  status: ('A' for Active; 'I' for Inactive)
REMARK    1  A    between atoms: C_4  and  C_1 
REMARK    2  A    between atoms: O_26  and  C_1 
REMARK    3  A    between atoms: C_6  and  O_18 
REMARK    4  A    between atoms: C_7  and  O_19 
REMARK    5  A    between atoms: O_28  and  C_9 
REMARK    6  A    between atoms: C_10  and  N_17 
REMARK    7  A    between atoms: P_29  and  O_20 
REMARK    8  A    between atoms: P_29  and  O_21 
REMARK    9  A    between atoms: P_30  and  O_23 
REMARK   10  A    between atoms: P_30  and  O_24 
REMARK   11  A    between atoms: P_29  and  O_26 
REMARK   12  A    between atoms: P_30  and  O_28 
ROOT
HETATM    1  C   UNK N   1       4.674   0.903   0.254  0.00  0.00     0.184 A 
HETATM    2  C   UNK N   1       0.455  -0.412   0.603  0.00  0.00     0.188 A 
HETATM    3  C   UNK N   1       2.521  -0.764   0.166  0.00  0.00     0.130 A 
HETATM    4  C   UNK N   1       2.379   0.528   0.495  0.00  0.00     0.143 A 
HETATM    5  C   UNK N   1       3.772  -1.269  -0.137  0.00  0.00     0.185 A 
HETATM    6  N   UNK N   1       3.428   1.386   0.542  0.00  0.00    -0.336 N 
ATOM      7  HN  UNK N   1       3.291   2.367   0.785  1.00  0.00     0.168 HD
HETATM    8  N   UNK N   1       4.844  -0.419  -0.077  0.00  0.00    -0.331 N 
ATOM      9  HN  UNK N   1       5.779  -0.772  -0.280  1.00  0.00     0.168 HD
HETATM   10  N   UNK N   1       1.330  -1.387   0.221  0.00  0.00    -0.346 N 
ATOM     11  HN  UNK N   1       1.126  -2.367   0.022  1.00  0.00     0.167 HD
HETATM   12  N   UNK N   1       1.086   0.780   0.764  0.00  0.00    -0.297 N 
ENDROOT
BRANCH  12  13
HETATM   13  C   UNK N   1       0.485   2.075   1.119  0.00  0.00     0.262 C 
HETATM   14  C   UNK N   1      -0.653   2.482   0.141  0.00  0.00     0.198 C 
HETATM   15  C   UNK N   1      -0.250   3.898  -0.195  0.00  0.00     0.182 C 
HETATM   16  C   UNK N   1       1.249   3.717  -0.180  0.00  0.00     0.180 C 
HETATM   17  O   UNK N   1       1.486   3.078   1.046  0.00  0.00    -0.353 OA
BRANCH  14  18
HETATM   18  O   UNK N   1      -0.610   1.706  -1.026  0.00  0.00    -0.388 OA
HETATM   19  H   UNK N   1      -1.061   1.411  -1.833  0.00  0.00     0.210 HD
ENDBRANCH  14  18
BRANCH  15  20
HETATM   20  O   UNK N   1      -0.745   4.332  -1.428  0.00  0.00    -0.390 OA
HETATM   21  H   UNK N   1      -0.656   4.779  -2.284  0.00  0.00     0.210 HD
ENDBRANCH  15  20
BRANCH  16  22
HETATM   22  C   UNK N   1       2.073   4.987  -0.312  0.00  0.00     0.215 C 
BRANCH  22  23
HETATM   23  O   UNK N   1       1.867   5.854   0.760  0.00  0.00    -0.294 OA
BRANCH  23  24
HETATM   24  P   UNK N   1       1.331   7.346   0.043  0.00  0.00     0.390 P 
HETATM   25  O   UNK N   1       2.145   7.601  -1.257  0.00  0.00    -0.632 OA
BRANCH  24  26
HETATM   26  O   UNK N   1       1.658   8.681   1.100  0.00  0.00    -0.307 OA
HETATM   27  H   UNK N   1       2.396   8.897   1.691  0.00  0.00     0.222 HD
ENDBRANCH  24  26
BRANCH  24  28
HETATM   28  O   UNK N   1      -0.348   7.283  -0.387  0.00  0.00    -0.307 OA
HETATM   29  H   UNK N   1      -0.848   8.079  -0.627  0.00  0.00     0.222 HD
ENDBRANCH  24  28
ENDBRANCH  23  24
ENDBRANCH  22  23
ENDBRANCH  16  22
ENDBRANCH  12  13
BRANCH   5  30
HETATM   30  O   UNK N   1       3.922  -2.563  -0.471  0.00  0.00    -0.235 OA
BRANCH  30  31
HETATM   31  P   UNK N   1       5.101  -3.549   0.284  0.00  0.00     0.397 P 
HETATM   32  O   UNK N   1       5.770  -3.379  -1.104  0.00  0.00    -0.631 OA
BRANCH  31  33
HETATM   33  O   UNK N   1       5.286  -5.208  -0.187  0.00  0.00    -0.307 OA
HETATM   34  H   UNK N   1       4.535  -5.761  -0.451  0.00  0.00     0.222 HD
ENDBRANCH  31  33
BRANCH  31  35
HETATM   35  O   UNK N   1       3.579  -4.360   0.064  0.00  0.00    -0.307 OA
HETATM   36  H   UNK N   1       2.763  -3.850  -0.058  0.00  0.00     0.222 HD
ENDBRANCH  31  35
ENDBRANCH  30  31
ENDBRANCH   5  30
TORSDOF 12
