MODEL 1
REMARK VINA RESULT:      -5.6      0.000      0.000
REMARK  6 active torsions:
REMARK  status: ('A' for Active; 'I' for Inactive)
REMARK    1  A    between atoms: C_2  and  N_1 
REMARK    2  A    between atoms: C_2  and  C_3 
REMARK    3  A    between atoms: C_2  and  C_11 
REMARK    4  A    between atoms: C_3  and  C_4 
REMARK    5  A    between atoms: C_8  and  O_9 
REMARK    6  A    between atoms: C_11  and  O_12 
ROOT
HETATM    1  C   UNK N   1      35.162  13.204  15.673  0.00  0.00     0.074 C 
ENDROOT
BRANCH   1   2
HETATM    2  C   UNK N   1      36.442  13.404  14.844  0.00  0.00     0.177 C 
BRANCH   2   3
HETATM    3  N   UNK N   1      37.240  14.496  15.374  0.00  0.00    -0.417 N 
HETATM    4  H   UNK N   1      37.524  15.410  15.022  0.00  0.00     0.150 HD
HETATM    5  H   UNK N   1      37.595  14.306  16.311  0.00  0.00     0.150 HD
ENDBRANCH   2   3
BRANCH   2   6
HETATM    6  C   UNK N   1      36.117  13.694  13.400  0.00  0.00     0.163 C 
HETATM    7  O   UNK N   1      34.963  13.845  13.033  0.00  0.00    -0.648 OA
BRANCH   6   8
HETATM    8  O   UNK N   1      37.118  13.804  12.505  0.00  0.00    -0.775 OA
HETATM    9  H   UNK N   1      37.895  13.286  12.585  0.00  0.00     0.167 HD
ENDBRANCH   6   8
ENDBRANCH   2   6
ENDBRANCH   1   2
BRANCH   1  10
HETATM   10  C   UNK N   1      35.313  12.594  17.040  0.00  0.00    -0.053 A 
HETATM   11  C   UNK N   1      35.696  11.250  17.127  0.00  0.00     0.007 A 
HETATM   12  C   UNK N   1      35.835  10.633  18.373  0.00  0.00     0.003 A 
HETATM   13  C   UNK N   1      35.578  11.354  19.542  0.00  0.00     0.036 A 
HETATM   14  C   UNK N   1      35.187  12.693  19.464  0.00  0.00     0.066 A 
HETATM   15  C   UNK N   1      35.060  13.312  18.218  0.00  0.00     0.043 A 
BRANCH  14  16
HETATM   16  O   UNK N   1      34.928  13.382  20.587  0.00  0.00    -0.361 OA
HETATM   17  H   UNK N   1      35.487  13.288  21.334  0.00  0.00     0.217 HD
ENDBRANCH  14  16
ENDBRANCH   1  10
TORSDOF 6
ENDMDL
MODEL 2
REMARK VINA RESULT:      -5.4      9.294     10.980
REMARK  6 active torsions:
REMARK  status: ('A' for Active; 'I' for Inactive)
REMARK    1  A    between atoms: C_2  and  N_1 
REMARK    2  A    between atoms: C_2  and  C_3 
REMARK    3  A    between atoms: C_2  and  C_11 
REMARK    4  A    between atoms: C_3  and  C_4 
REMARK    5  A    between atoms: C_8  and  O_9 
REMARK    6  A    between atoms: C_11  and  O_12 
ROOT
HETATM    1  C   UNK N   1      30.599  17.430   8.013  0.00  0.00     0.074 C 
ENDROOT
BRANCH   1   2
HETATM    2  C   UNK N   1      29.852  18.516   8.807  0.00  0.00     0.177 C 
BRANCH   2   3
HETATM    3  N   UNK N   1      29.928  18.261  10.235  0.00  0.00    -0.417 N 
HETATM    4  H   UNK N   1      30.188  18.819  11.048  0.00  0.00     0.150 HD
HETATM    5  H   UNK N   1      29.661  17.307  10.480  0.00  0.00     0.150 HD
ENDBRANCH   2   3
BRANCH   2   6
HETATM    6  C   UNK N   1      28.402  18.588   8.401  0.00  0.00     0.163 C 
HETATM    7  O   UNK N   1      28.081  18.889   7.263  0.00  0.00    -0.648 OA
BRANCH   6   8
HETATM    8  O   UNK N   1      27.447  18.300   9.306  0.00  0.00    -0.775 OA
HETATM    9  H   UNK N   1      26.539  18.419   9.103  0.00  0.00     0.167 HD
ENDBRANCH   6   8
ENDBRANCH   2   6
ENDBRANCH   1   2
BRANCH   1  10
HETATM   10  C   UNK N   1      32.061  17.240   8.311  0.00  0.00    -0.053 A 
HETATM   11  C   UNK N   1      32.489  15.984   8.758  0.00  0.00     0.007 A 
HETATM   12  C   UNK N   1      33.834  15.761   9.063  0.00  0.00     0.003 A 
HETATM   13  C   UNK N   1      34.760  16.800   8.936  0.00  0.00     0.036 A 
HETATM   14  C   UNK N   1      34.342  18.059   8.499  0.00  0.00     0.066 A 
HETATM   15  C   UNK N   1      32.998  18.277   8.183  0.00  0.00     0.043 A 
BRANCH  14  16
HETATM   16  O   UNK N   1      35.230  19.060   8.389  0.00  0.00    -0.361 OA
HETATM   17  H   UNK N   1      35.988  18.956   7.847  0.00  0.00     0.217 HD
ENDBRANCH  14  16
ENDBRANCH   1  10
TORSDOF 6
ENDMDL
MODEL 3
REMARK VINA RESULT:      -5.4      3.429      4.427
REMARK  6 active torsions:
REMARK  status: ('A' for Active; 'I' for Inactive)
REMARK    1  A    between atoms: C_2  and  N_1 
REMARK    2  A    between atoms: C_2  and  C_3 
REMARK    3  A    between atoms: C_2  and  C_11 
REMARK    4  A    between atoms: C_3  and  C_4 
REMARK    5  A    between atoms: C_8  and  O_9 
REMARK    6  A    between atoms: C_11  and  O_12 
ROOT
HETATM    1  C   UNK N   1      35.265  13.983  11.704  0.00  0.00     0.074 C 
ENDROOT
BRANCH   1   2
HETATM    2  C   UNK N   1      34.554  15.314  11.405  0.00  0.00     0.177 C 
BRANCH   2   3
HETATM    3  N   UNK N   1      33.414  15.108  10.529  0.00  0.00    -0.417 N 
HETATM    4  H   UNK N   1      33.253  15.217   9.528  0.00  0.00     0.150 HD
HETATM    5  H   UNK N   1      32.587  14.781  11.028  0.00  0.00     0.150 HD
ENDBRANCH   2   3
BRANCH   2   6
HETATM    6  C   UNK N   1      35.493  16.300  10.759  0.00  0.00     0.163 C 
HETATM    7  O   UNK N   1      35.070  17.295  10.192  0.00  0.00    -0.648 OA
BRANCH   6   8
HETATM    8  O   UNK N   1      36.822  16.088  10.821  0.00  0.00    -0.775 OA
HETATM    9  H   UNK N   1      37.430  16.779  10.643  0.00  0.00     0.167 HD
ENDBRANCH   6   8
ENDBRANCH   2   6
ENDBRANCH   1   2
BRANCH   1  10
HETATM   10  C   UNK N   1      35.608  13.691  13.139  0.00  0.00    -0.053 A 
HETATM   11  C   UNK N   1      34.948  12.633  13.776  0.00  0.00     0.007 A 
HETATM   12  C   UNK N   1      35.220  12.331  15.113  0.00  0.00     0.003 A 
HETATM   13  C   UNK N   1      36.146  13.097  15.828  0.00  0.00     0.036 A 
HETATM   14  C   UNK N   1      36.803  14.159  15.203  0.00  0.00     0.066 A 
HETATM   15  C   UNK N   1      36.539  14.453  13.862  0.00  0.00     0.043 A 
BRANCH  14  16
HETATM   16  O   UNK N   1      37.683  14.903  15.893  0.00  0.00    -0.361 OA
HETATM   17  H   UNK N   1      38.117  14.540  16.641  0.00  0.00     0.217 HD
ENDBRANCH  14  16
ENDBRANCH   1  10
TORSDOF 6
ENDMDL
MODEL 4
REMARK VINA RESULT:      -5.2     10.064     11.553
REMARK  6 active torsions:
REMARK  status: ('A' for Active; 'I' for Inactive)
REMARK    1  A    between atoms: C_2  and  N_1 
REMARK    2  A    between atoms: C_2  and  C_3 
REMARK    3  A    between atoms: C_2  and  C_11 
REMARK    4  A    between atoms: C_3  and  C_4 
REMARK    5  A    between atoms: C_8  and  O_9 
REMARK    6  A    between atoms: C_11  and  O_12 
ROOT
HETATM    1  C   UNK N   1      32.131  16.861   7.971  0.00  0.00     0.074 C 
ENDROOT
BRANCH   1   2
HETATM    2  C   UNK N   1      33.159  17.878   7.449  0.00  0.00     0.177 C 
BRANCH   2   3
HETATM    3  N   UNK N   1      33.798  17.395   6.237  0.00  0.00    -0.417 N 
HETATM    4  H   UNK N   1      33.557  16.701   5.529  0.00  0.00     0.150 HD
HETATM    5  H   UNK N   1      34.690  17.855   6.050  0.00  0.00     0.150 HD
ENDBRANCH   2   3
BRANCH   2   6
HETATM    6  C   UNK N   1      34.222  18.159   8.481  0.00  0.00     0.163 C 
HETATM    7  O   UNK N   1      35.029  19.060   8.325  0.00  0.00    -0.648 OA
BRANCH   6   8
HETATM    8  O   UNK N   1      34.271  17.411   9.600  0.00  0.00    -0.775 OA
HETATM    9  H   UNK N   1      34.242  17.810  10.448  0.00  0.00     0.167 HD
ENDBRANCH   6   8
ENDBRANCH   2   6
ENDBRANCH   1   2
BRANCH   1  10
HETATM   10  C   UNK N   1      30.679  17.147   7.702  0.00  0.00    -0.053 A 
HETATM   11  C   UNK N   1      30.216  17.046   6.385  0.00  0.00     0.007 A 
HETATM   12  C   UNK N   1      28.880  17.316   6.081  0.00  0.00     0.003 A 
HETATM   13  C   UNK N   1      27.998  17.705   7.093  0.00  0.00     0.036 A 
HETATM   14  C   UNK N   1      28.452  17.816   8.409  0.00  0.00     0.066 A 
HETATM   15  C   UNK N   1      29.787  17.534   8.714  0.00  0.00     0.043 A 
BRANCH  14  16
HETATM   16  O   UNK N   1      27.608  18.202   9.380  0.00  0.00    -0.361 OA
HETATM   17  H   UNK N   1      27.819  18.939   9.919  0.00  0.00     0.217 HD
ENDBRANCH  14  16
ENDBRANCH   1  10
TORSDOF 6
ENDMDL
MODEL 5
REMARK VINA RESULT:      -5.2     11.372     12.786
REMARK  6 active torsions:
REMARK  status: ('A' for Active; 'I' for Inactive)
REMARK    1  A    between atoms: C_2  and  N_1 
REMARK    2  A    between atoms: C_2  and  C_3 
REMARK    3  A    between atoms: C_2  and  C_11 
REMARK    4  A    between atoms: C_3  and  C_4 
REMARK    5  A    between atoms: C_8  and  O_9 
REMARK    6  A    between atoms: C_11  and  O_12 
ROOT
HETATM    1  C   UNK N   1      29.843  16.980   7.304  0.00  0.00     0.074 C 
ENDROOT
BRANCH   1   2
HETATM    2  C   UNK N   1      29.676  17.959   8.479  0.00  0.00     0.177 C 
BRANCH   2   3
HETATM    3  N   UNK N   1      29.915  17.293   9.748  0.00  0.00    -0.417 N 
HETATM    4  H   UNK N   1      29.790  16.341  10.090  0.00  0.00     0.150 HD
HETATM    5  H   UNK N   1      30.294  17.920  10.457  0.00  0.00     0.150 HD
ENDBRANCH   2   3
BRANCH   2   6
HETATM    6  C   UNK N   1      28.292  18.557   8.496  0.00  0.00     0.163 C 
HETATM    7  O   UNK N   1      27.953  19.384   7.666  0.00  0.00    -0.648 OA
BRANCH   6   8
HETATM    8  O   UNK N   1      27.411  18.161   9.435  0.00  0.00    -0.775 OA
HETATM    9  H   UNK N   1      27.051  18.772  10.048  0.00  0.00     0.167 HD
ENDBRANCH   6   8
ENDBRANCH   2   6
ENDBRANCH   1   2
BRANCH   1  10
HETATM   10  C   UNK N   1      31.017  17.197   6.388  0.00  0.00    -0.053 A 
HETATM   11  C   UNK N   1      30.778  17.271   5.010  0.00  0.00     0.007 A 
HETATM   12  C   UNK N   1      31.836  17.455   4.117  0.00  0.00     0.003 A 
HETATM   13  C   UNK N   1      33.145  17.553   4.595  0.00  0.00     0.036 A 
HETATM   14  C   UNK N   1      33.395  17.472   5.967  0.00  0.00     0.066 A 
HETATM   15  C   UNK N   1      32.334  17.299   6.861  0.00  0.00     0.043 A 
BRANCH  14  16
HETATM   16  O   UNK N   1      34.654  17.553   6.426  0.00  0.00    -0.361 OA
HETATM   17  H   UNK N   1      35.372  17.334   5.864  0.00  0.00     0.217 HD
ENDBRANCH  14  16
ENDBRANCH   1  10
TORSDOF 6
ENDMDL
MODEL 6
REMARK VINA RESULT:      -5.2      9.783     11.126
REMARK  6 active torsions:
REMARK  status: ('A' for Active; 'I' for Inactive)
REMARK    1  A    between atoms: C_2  and  N_1 
REMARK    2  A    between atoms: C_2  and  C_3 
REMARK    3  A    between atoms: C_2  and  C_11 
REMARK    4  A    between atoms: C_3  and  C_4 
REMARK    5  A    between atoms: C_8  and  O_9 
REMARK    6  A    between atoms: C_11  and  O_12 
ROOT
HETATM    1  C   UNK N   1      32.339  18.114   8.461  0.00  0.00     0.074 C 
ENDROOT
BRANCH   1   2
HETATM    2  C   UNK N   1      33.344  16.953   8.554  0.00  0.00     0.177 C 
BRANCH   2   3
HETATM    3  N   UNK N   1      34.131  17.043   9.772  0.00  0.00    -0.417 N 
HETATM    4  H   UNK N   1      34.226  17.738  10.512  0.00  0.00     0.150 HD
HETATM    5  H   UNK N   1      34.723  16.226   9.920  0.00  0.00     0.150 HD
ENDBRANCH   2   3
BRANCH   2   6
HETATM    6  C   UNK N   1      34.277  16.944   7.370  0.00  0.00     0.163 C 
HETATM    7  O   UNK N   1      34.889  15.936   7.058  0.00  0.00    -0.648 OA
BRANCH   6   8
HETATM    8  O   UNK N   1      34.426  18.064   6.636  0.00  0.00    -0.775 OA
HETATM    9  H   UNK N   1      35.171  18.179   6.078  0.00  0.00     0.167 HD
ENDBRANCH   6   8
ENDBRANCH   2   6
ENDBRANCH   1   2
BRANCH   1  10
HETATM   10  C   UNK N   1      30.910  17.766   8.146  0.00  0.00    -0.053 A 
HETATM   11  C   UNK N   1      30.645  17.051   6.972  0.00  0.00     0.007 A 
HETATM   12  C   UNK N   1      29.333  16.718   6.627  0.00  0.00     0.003 A 
HETATM   13  C   UNK N   1      28.273  17.110   7.449  0.00  0.00     0.036 A 
HETATM   14  C   UNK N   1      28.527  17.831   8.619  0.00  0.00     0.066 A 
HETATM   15  C   UNK N   1      29.841  18.153   8.969  0.00  0.00     0.043 A 
BRANCH  14  16
HETATM   16  O   UNK N   1      27.508  18.218   9.402  0.00  0.00    -0.361 OA
HETATM   17  H   UNK N   1      26.771  17.652   9.527  0.00  0.00     0.217 HD
ENDBRANCH  14  16
ENDBRANCH   1  10
TORSDOF 6
ENDMDL
MODEL 7
REMARK VINA RESULT:      -5.2      6.054      7.876
REMARK  6 active torsions:
REMARK  status: ('A' for Active; 'I' for Inactive)
REMARK    1  A    between atoms: C_2  and  N_1 
REMARK    2  A    between atoms: C_2  and  C_3 
REMARK    3  A    between atoms: C_2  and  C_11 
REMARK    4  A    between atoms: C_3  and  C_4 
REMARK    5  A    between atoms: C_8  and  O_9 
REMARK    6  A    between atoms: C_11  and  O_12 
ROOT
HETATM    1  C   UNK N   1      34.782  15.822   8.786  0.00  0.00     0.074 C 
ENDROOT
BRANCH   1   2
HETATM    2  C   UNK N   1      34.173  17.199   9.099  0.00  0.00     0.177 C 
BRANCH   2   3
HETATM    3  N   UNK N   1      32.722  17.149   9.045  0.00  0.00    -0.417 N 
HETATM    4  H   UNK N   1      32.000  17.761   8.666  0.00  0.00     0.150 HD
HETATM    5  H   UNK N   1      32.339  16.313   9.487  0.00  0.00     0.150 HD
ENDBRANCH   2   3
BRANCH   2   6
HETATM    6  C   UNK N   1      34.661  18.244   8.127  0.00  0.00     0.163 C 
HETATM    7  O   UNK N   1      34.434  18.147   6.932  0.00  0.00    -0.648 OA
BRANCH   6   8
HETATM    8  O   UNK N   1      35.344  19.309   8.589  0.00  0.00    -0.775 OA
HETATM    9  H   UNK N   1      35.774  19.282   9.421  0.00  0.00     0.167 HD
ENDBRANCH   6   8
ENDBRANCH   2   6
ENDBRANCH   1   2
BRANCH   1  10
HETATM   10  C   UNK N   1      35.392  15.060   9.932  0.00  0.00    -0.053 A 
HETATM   11  C   UNK N   1      34.628  14.884  11.092  0.00  0.00     0.007 A 
HETATM   12  C   UNK N   1      35.154  14.198  12.189  0.00  0.00     0.003 A 
HETATM   13  C   UNK N   1      36.457  13.694  12.138  0.00  0.00     0.036 A 
HETATM   14  C   UNK N   1      37.230  13.873  10.988  0.00  0.00     0.066 A 
HETATM   15  C   UNK N   1      36.698  14.549   9.887  0.00  0.00     0.043 A 
BRANCH  14  16
HETATM   16  O   UNK N   1      38.486  13.400  10.944  0.00  0.00    -0.361 OA
HETATM   17  H   UNK N   1      39.149  13.874  10.482  0.00  0.00     0.217 HD
ENDBRANCH  14  16
ENDBRANCH   1  10
TORSDOF 6
ENDMDL
MODEL 8
REMARK VINA RESULT:      -5.0     14.718     16.272
REMARK  6 active torsions:
REMARK  status: ('A' for Active; 'I' for Inactive)
REMARK    1  A    between atoms: C_2  and  N_1 
REMARK    2  A    between atoms: C_2  and  C_3 
REMARK    3  A    between atoms: C_2  and  C_11 
REMARK    4  A    between atoms: C_3  and  C_4 
REMARK    5  A    between atoms: C_8  and  O_9 
REMARK    6  A    between atoms: C_11  and  O_12 
ROOT
HETATM    1  C   UNK N   1      22.612  13.235  10.167  0.00  0.00     0.074 C 
ENDROOT
BRANCH   1   2
HETATM    2  C   UNK N   1      22.657  11.987  11.065  0.00  0.00     0.177 C 
BRANCH   2   3
HETATM    3  N   UNK N   1      21.399  11.807  11.768  0.00  0.00    -0.417 N 
HETATM    4  H   UNK N   1      20.602  11.180  11.658  0.00  0.00     0.150 HD
HETATM    5  H   UNK N   1      21.287  12.453  12.549  0.00  0.00     0.150 HD
ENDBRANCH   2   3
BRANCH   2   6
HETATM    6  C   UNK N   1      23.771  12.082  12.076  0.00  0.00     0.163 C 
HETATM    7  O   UNK N   1      23.547  11.984  13.272  0.00  0.00    -0.648 OA
BRANCH   6   8
HETATM    8  O   UNK N   1      25.037  12.264  11.652  0.00  0.00    -0.775 OA
HETATM    9  H   UNK N   1      25.350  13.117  11.421  0.00  0.00     0.167 HD
ENDBRANCH   6   8
ENDBRANCH   2   6
ENDBRANCH   1   2
BRANCH   1  10
HETATM   10  C   UNK N   1      21.960  13.093   8.819  0.00  0.00    -0.053 A 
HETATM   11  C   UNK N   1      22.262  11.961   8.052  0.00  0.00     0.007 A 
HETATM   12  C   UNK N   1      21.694  11.790   6.787  0.00  0.00     0.003 A 
HETATM   13  C   UNK N   1      20.829  12.760   6.274  0.00  0.00     0.036 A 
HETATM   14  C   UNK N   1      20.528  13.897   7.028  0.00  0.00     0.066 A 
HETATM   15  C   UNK N   1      21.088  14.061   8.298  0.00  0.00     0.043 A 
BRANCH  14  16
HETATM   16  O   UNK N   1      19.706  14.835   6.529  0.00  0.00    -0.361 OA
HETATM   17  H   UNK N   1      19.757  15.066   5.622  0.00  0.00     0.217 HD
ENDBRANCH  14  16
ENDBRANCH   1  10
TORSDOF 6
ENDMDL
MODEL 9
REMARK VINA RESULT:      -5.0      2.007      2.330
REMARK  6 active torsions:
REMARK  status: ('A' for Active; 'I' for Inactive)
REMARK    1  A    between atoms: C_2  and  N_1 
REMARK    2  A    between atoms: C_2  and  C_3 
REMARK    3  A    between atoms: C_2  and  C_11 
REMARK    4  A    between atoms: C_3  and  C_4 
REMARK    5  A    between atoms: C_8  and  O_9 
REMARK    6  A    between atoms: C_11  and  O_12 
ROOT
HETATM    1  C   UNK N   1      35.379  11.209  15.388  0.00  0.00     0.074 C 
ENDROOT
BRANCH   1   2
HETATM    2  C   UNK N   1      34.376  11.782  14.372  0.00  0.00     0.177 C 
BRANCH   2   3
HETATM    3  N   UNK N   1      33.579  10.724  13.776  0.00  0.00    -0.417 N 
HETATM    4  H   UNK N   1      32.667  10.687  13.320  0.00  0.00     0.150 HD
HETATM    5  H   UNK N   1      34.034   9.813  13.822  0.00  0.00     0.150 HD
ENDBRANCH   2   3
BRANCH   2   6
HETATM    6  C   UNK N   1      35.083  12.536  13.275  0.00  0.00     0.163 C 
HETATM    7  O   UNK N   1      36.252  12.311  13.007  0.00  0.00    -0.648 OA
BRANCH   6   8
HETATM    8  O   UNK N   1      34.409  13.464  12.569  0.00  0.00    -0.775 OA
HETATM    9  H   UNK N   1      33.537  13.300  12.265  0.00  0.00     0.167 HD
ENDBRANCH   6   8
ENDBRANCH   2   6
ENDBRANCH   1   2
BRANCH   1  10
HETATM   10  C   UNK N   1      35.352  11.778  16.780  0.00  0.00    -0.053 A 
HETATM   11  C   UNK N   1      35.349  10.887  17.861  0.00  0.00     0.007 A 
HETATM   12  C   UNK N   1      35.309  11.366  19.173  0.00  0.00     0.003 A 
HETATM   13  C   UNK N   1      35.258  12.742  19.413  0.00  0.00     0.036 A 
HETATM   14  C   UNK N   1      35.252  13.638  18.341  0.00  0.00     0.066 A 
HETATM   15  C   UNK N   1      35.304  13.158  17.029  0.00  0.00     0.043 A 
BRANCH  14  16
HETATM   16  O   UNK N   1      35.190  14.959  18.572  0.00  0.00    -0.361 OA
HETATM   17  H   UNK N   1      34.360  15.394  18.582  0.00  0.00     0.217 HD
ENDBRANCH  14  16
ENDBRANCH   1  10
TORSDOF 6
ENDMDL
