REMARK  14 active torsions:
REMARK  status: ('A' for Active; 'I' for Inactive)
REMARK    1  A    between atoms: C_7  and  C_5 
REMARK    2  A    between atoms: C_17  and  C_5 
REMARK    3  A    between atoms: C_8  and  C_6 
REMARK    4  A    between atoms: C_18  and  C_6 
REMARK    5  A    between atoms: C_27  and  C_7 
REMARK    6  A    between atoms: C_28  and  C_8 
REMARK    7  A    between atoms: C_29  and  C_13 
REMARK    8  A    between atoms: C_33  and  C_13 
REMARK    9  A    between atoms: C_30  and  C_14 
REMARK   10  A    between atoms: O_40  and  C_27 
REMARK   11  A    between atoms: O_42  and  C_28 
REMARK   12  A    between atoms: O_44  and  C_29 
REMARK   13  A    between atoms: O_46  and  C_30 
REMARK   14  A    between atoms: O_48  and  C_31 
ROOT
HETATM    1  C   UNK N   1      -1.284   1.187   0.267  0.00  0.00     0.051 C 
HETATM    2  C   UNK N   1       6.081  -5.059   0.297  0.00  0.00     0.051 C 
HETATM    3  C   UNK N   1       9.080  -1.014   1.772  0.00  0.00     0.031 C 
HETATM    4  C   UNK N   1       5.684   1.633   2.007  0.00  0.00     0.020 C 
HETATM    5  C   UNK N   1       1.510   2.380   0.248  0.00  0.00     0.029 C 
HETATM    6  C   UNK N   1       2.015  -2.295   0.189  0.00  0.00     0.064 A 
HETATM    7  C   UNK N   1       6.860  -2.127   0.251  0.00  0.00     0.060 A 
HETATM    8  C   UNK N   1       6.626   2.857  -0.134  0.00  0.00     0.030 C 
HETATM    9  C   UNK N   1       5.094   1.304  -1.430  0.00  0.00     0.123 A 
HETATM   10  C   UNK N   1       0.016   0.493   0.063  0.00  0.00    -0.025 A 
HETATM   11  C   UNK N   1       5.162  -3.883   0.346  0.00  0.00    -0.025 A 
HETATM   12  C   UNK N   1       0.224  -0.866   0.000  0.00  0.00    -0.021 A 
HETATM   13  C   UNK N   1       3.815  -3.929   0.440  0.00  0.00    -0.021 A 
HETATM   14  C   UNK N   1       1.265   1.063   0.044  0.00  0.00     0.062 A 
HETATM   15  C   UNK N   1       5.495  -2.552   0.272  0.00  0.00     0.066 A 
HETATM   16  C   UNK N   1       1.541  -1.079   0.038  0.00  0.00     0.066 A 
HETATM   17  C   UNK N   1       3.372  -2.639   0.309  0.00  0.00     0.066 A 
HETATM   18  C   UNK N   1       2.895   2.800   0.523  0.00  0.00     0.130 C 
HETATM   19  C   UNK N   1       7.297   1.344  -0.063  0.00  0.00     0.102 A 
HETATM   20  C   UNK N   1       7.309  -0.888   0.170  0.00  0.00     0.054 A 
HETATM   21  C   UNK N   1       5.208   3.114   0.154  0.00  0.00     0.112 C 
HETATM   22  C   UNK N   1       3.523   2.129   1.344  0.00  0.00     0.151 C 
HETATM   23  C   UNK N   1       8.679   0.928   0.158  0.00  0.00     0.192 A 
HETATM   24  C   UNK N   1       8.730  -0.584   0.336  0.00  0.00     0.077 A 
HETATM   25  C   UNK N   1       4.941   1.931   0.631  0.00  0.00     0.014 A 
HETATM   26 Fe   UNK N   1       4.218   0.250  -0.011  0.00  0.00     0.000 Fe
HETATM   27  N   UNK N   1       2.214   0.078  -0.018  0.00  0.00    -0.248 N 
HETATM   28  N   UNK N   1       4.387  -1.776   0.239  0.00  0.00    -0.248 N 
HETATM   29  N   UNK N   1       3.887   2.745  -0.314  0.00  0.00    -0.229 NA
HETATM   30  N   UNK N   1       6.538   0.254   0.015  0.00  0.00    -0.249 N 
HETATM   31  O   UNK N   1       9.626   1.677   0.318  0.00  0.00    -0.289 OA
ENDROOT
BRANCH  12  32
HETATM   32  C   UNK N   1      -0.716  -1.977  -0.050  0.00  0.00     0.052 C 
BRANCH  32  33
HETATM   33  C   UNK N   1      -1.598  -1.758  -1.226  0.00  0.00     0.115 C 
BRANCH  33  34
HETATM   34  C   UNK N   1      -2.886  -1.786  -0.544  0.00  0.00     0.139 C 
HETATM   35  O   UNK N   1      -3.293  -2.847  -0.103  0.00  0.00    -0.650 OA
BRANCH  34  36
HETATM   36  O   UNK N   1      -3.450  -0.633  -0.151  0.00  0.00    -0.776 OA
HETATM   37  H   UNK N   1      -2.949   0.110   0.124  0.00  0.00     0.167 HD
ENDBRANCH  34  36
ENDBRANCH  33  34
ENDBRANCH  32  33
ENDBRANCH  12  32
BRANCH  13  38
HETATM   38  C   UNK N   1       3.015  -5.150   0.676  0.00  0.00     0.052 C 
BRANCH  38  39
HETATM   39  C   UNK N   1       2.176  -5.559  -0.497  0.00  0.00     0.115 C 
BRANCH  39  40
HETATM   40  C   UNK N   1       1.687  -6.926  -0.183  0.00  0.00     0.139 C 
HETATM   41  O   UNK N   1       2.484  -7.818   0.069  0.00  0.00    -0.650 OA
BRANCH  40  42
HETATM   42  O   UNK N   1       0.368  -7.173  -0.135  0.00  0.00    -0.776 OA
HETATM   43  H   UNK N   1      -0.241  -6.461  -0.101  0.00  0.00     0.167 HD
ENDBRANCH  40  42
ENDBRANCH  39  40
ENDBRANCH  38  39
ENDBRANCH  13  38
BRANCH   9  44
HETATM   44  C   UNK N   1       5.237   0.058  -2.285  0.00  0.00     0.140 C 
HETATM   45  O   UNK N   1       4.482  -0.885  -2.161  0.00  0.00    -0.650 OA
BRANCH  44  46
HETATM   46  O   UNK N   1       6.157   0.044  -3.269  0.00  0.00    -0.776 OA
HETATM   47  H   UNK N   1       6.468  -0.515  -3.953  0.00  0.00     0.167 HD
ENDBRANCH  44  46
ENDBRANCH   9  44
BRANCH  22  48
HETATM   48  O   UNK N   1       2.991   1.410   2.360  0.00  0.00    -0.393 OA
ATOM     49  HO  UNK N   1       3.476   0.893   2.993  1.00  0.00     0.210 HD
ENDBRANCH  22  48
BRANCH  24  50
HETATM   50  C   UNK N   1       9.475  -1.322  -0.767  0.00  0.00     0.133 C 
BRANCH  50  51
HETATM   51  C   UNK N   1      10.819  -1.704  -0.305  0.00  0.00     0.140 C 
HETATM   52  O   UNK N   1      11.064  -2.876  -0.075  0.00  0.00    -0.650 OA
BRANCH  51  53
HETATM   53  O   UNK N   1      11.710  -0.748   0.005  0.00  0.00    -0.776 OA
HETATM   54  H   UNK N   1      12.598  -0.953   0.222  0.00  0.00     0.167 HD
ENDBRANCH  51  53
ENDBRANCH  50  51
ENDBRANCH  24  50
TORSDOF 14
