MODEL 1
REMARK VINA RESULT:      -4.3      0.000      0.000
REMARK  2 active torsions:
REMARK  status: ('A' for Active; 'I' for Inactive)
REMARK    1  A    between atoms: C_2  and  N_5 
REMARK    2  A    between atoms: O_8  and  C_3 
ROOT
HETATM    1  C   UNK N   1      20.483  18.690   1.113  0.00  0.00     0.118 A 
HETATM    2  C   UNK N   1      20.494  18.408   2.631  0.00  0.00     0.175 A 
HETATM    3  C   UNK N   1      20.710  20.175   1.081  0.00  0.00     0.120 A 
HETATM    4  C   UNK N   1      20.650  19.787   3.178  0.00  0.00     0.246 A 
HETATM    5  N   UNK N   1      20.780  20.714   2.229  0.00  0.00    -0.309 N 
ATOM      6  HN  UNK N   1      20.916  21.710   2.400  1.00  0.00     0.170 HD
HETATM    7  O   UNK N   1      20.690  20.056   4.368  0.00  0.00    -0.271 OA
ENDROOT
BRANCH   2   8
HETATM    8  N   UNK N   1      19.238  17.815   3.059  0.00  0.00    -0.418 N 
HETATM    9  H   UNK N   1      18.697  17.809   3.925  0.00  0.00     0.150 HD
HETATM   10  H   UNK N   1      18.789  17.279   2.318  0.00  0.00     0.150 HD
ENDBRANCH   2   8
BRANCH   3  11
HETATM   11  O   UNK N   1      20.839  20.885  -0.054  0.00  0.00    -0.349 OA
HETATM   12  H   UNK N   1      21.161  21.764  -0.042  0.00  0.00     0.219 HD
ENDBRANCH   3  11
TORSDOF 2
ENDMDL
MODEL 2
REMARK VINA RESULT:      -4.2      1.655      2.019
REMARK  2 active torsions:
REMARK  status: ('A' for Active; 'I' for Inactive)
REMARK    1  A    between atoms: C_2  and  N_5 
REMARK    2  A    between atoms: O_8  and  C_3 
ROOT
HETATM    1  C   UNK N   1      21.600  20.705   2.405  0.00  0.00     0.118 A 
HETATM    2  C   UNK N   1      21.093  19.736   3.495  0.00  0.00     0.175 A 
HETATM    3  C   UNK N   1      20.798  20.264   1.214  0.00  0.00     0.120 A 
HETATM    4  C   UNK N   1      20.157  18.882   2.707  0.00  0.00     0.246 A 
HETATM    5  N   UNK N   1      20.044  19.266   1.436  0.00  0.00    -0.309 N 
ATOM      6  HN  UNK N   1      19.441  18.823   0.744  1.00  0.00     0.170 HD
HETATM    7  O   UNK N   1      19.525  17.946   3.169  0.00  0.00    -0.271 OA
ENDROOT
BRANCH   2   8
HETATM    8  N   UNK N   1      22.185  18.949   4.041  0.00  0.00    -0.418 N 
HETATM    9  H   UNK N   1      23.199  19.050   4.087  0.00  0.00     0.150 HD
HETATM   10  H   UNK N   1      21.861  18.090   4.484  0.00  0.00     0.150 HD
ENDBRANCH   2   8
BRANCH   3  11
HETATM   11  O   UNK N   1      20.855  20.866   0.012  0.00  0.00    -0.349 OA
HETATM   12  H   UNK N   1      21.498  21.522  -0.171  0.00  0.00     0.219 HD
ENDBRANCH   3  11
TORSDOF 2
ENDMDL
MODEL 3
REMARK VINA RESULT:      -4.1     14.534     15.071
REMARK  2 active torsions:
REMARK  status: ('A' for Active; 'I' for Inactive)
REMARK    1  A    between atoms: C_2  and  N_5 
REMARK    2  A    between atoms: O_8  and  C_3 
ROOT
HETATM    1  C   UNK N   1      33.378  16.245   8.888  0.00  0.00     0.118 A 
HETATM    2  C   UNK N   1      34.732  16.944   9.140  0.00  0.00     0.175 A 
HETATM    3  C   UNK N   1      32.656  17.276   8.067  0.00  0.00     0.120 A 
HETATM    4  C   UNK N   1      34.500  18.263   8.483  0.00  0.00     0.246 A 
HETATM    5  N   UNK N   1      33.309  18.351   7.893  0.00  0.00    -0.309 N 
ATOM      6  HN  UNK N   1      32.972  19.163   7.376  1.00  0.00     0.170 HD
HETATM    7  O   UNK N   1      35.318  19.169   8.451  0.00  0.00    -0.271 OA
ENDROOT
BRANCH   2   8
HETATM    8  N   UNK N   1      34.977  17.104  10.563  0.00  0.00    -0.418 N 
HETATM    9  H   UNK N   1      35.022  16.476  11.366  0.00  0.00     0.150 HD
HETATM   10  H   UNK N   1      35.145  18.076  10.821  0.00  0.00     0.150 HD
ENDBRANCH   2   8
BRANCH   3  11
HETATM   11  O   UNK N   1      31.428  17.090   7.549  0.00  0.00    -0.349 OA
HETATM   12  H   UNK N   1      30.918  17.812   7.241  0.00  0.00     0.219 HD
ENDBRANCH   3  11
TORSDOF 2
ENDMDL
MODEL 4
REMARK VINA RESULT:      -4.1     10.885     11.792
REMARK  2 active torsions:
REMARK  status: ('A' for Active; 'I' for Inactive)
REMARK    1  A    between atoms: C_2  and  N_5 
REMARK    2  A    between atoms: O_8  and  C_3 
ROOT
HETATM    1  C   UNK N   1      23.303  12.811  10.029  0.00  0.00     0.118 A 
HETATM    2  C   UNK N   1      21.762  12.723  10.010  0.00  0.00     0.175 A 
HETATM    3  C   UNK N   1      23.622  12.221  11.373  0.00  0.00     0.120 A 
HETATM    4  C   UNK N   1      21.489  12.171  11.369  0.00  0.00     0.246 A 
HETATM    5  N   UNK N   1      22.599  11.906  12.057  0.00  0.00    -0.309 N 
ATOM      6  HN  UNK N   1      22.623  11.507  12.995  1.00  0.00     0.170 HD
HETATM    7  O   UNK N   1      20.374  11.949  11.811  0.00  0.00    -0.271 OA
ENDROOT
BRANCH   2   8
HETATM    8  N   UNK N   1      21.167  14.039   9.851  0.00  0.00    -0.418 N 
HETATM    9  H   UNK N   1      20.699  14.702  10.469  0.00  0.00     0.150 HD
HETATM   10  H   UNK N   1      21.234  14.382   8.893  0.00  0.00     0.150 HD
ENDBRANCH   2   8
BRANCH   3  11
HETATM   11  O   UNK N   1      24.874  12.030  11.826  0.00  0.00    -0.349 OA
HETATM   12  H   UNK N   1      25.052  11.425  12.518  0.00  0.00     0.219 HD
ENDBRANCH   3  11
TORSDOF 2
ENDMDL
MODEL 5
REMARK VINA RESULT:      -4.0      9.990     10.898
REMARK  2 active torsions:
REMARK  status: ('A' for Active; 'I' for Inactive)
REMARK    1  A    between atoms: C_2  and  N_5 
REMARK    2  A    between atoms: O_8  and  C_3 
ROOT
HETATM    1  C   UNK N   1      21.090  12.254  11.125  0.00  0.00     0.118 A 
HETATM    2  C   UNK N   1      22.610  12.034  10.972  0.00  0.00     0.175 A 
HETATM    3  C   UNK N   1      20.848  13.372  10.151  0.00  0.00     0.120 A 
HETATM    4  C   UNK N   1      22.960  13.112  10.001  0.00  0.00     0.246 A 
HETATM    5  N   UNK N   1      21.900  13.802   9.583  0.00  0.00    -0.309 N 
ATOM      6  HN  UNK N   1      21.929  14.565   8.907  1.00  0.00     0.170 HD
HETATM    7  O   UNK N   1      24.089  13.332   9.594  0.00  0.00    -0.271 OA
ENDROOT
BRANCH   2   8
HETATM    8  N   UNK N   1      23.294  12.230  12.238  0.00  0.00    -0.418 N 
HETATM    9  H   UNK N   1      24.110  12.760  12.547  0.00  0.00     0.150 HD
HETATM   10  H   UNK N   1      22.855  11.715  13.001  0.00  0.00     0.150 HD
ENDBRANCH   2   8
BRANCH   3  11
HETATM   11  O   UNK N   1      19.631  13.881   9.887  0.00  0.00    -0.349 OA
HETATM   12  H   UNK N   1      18.854  13.375  10.021  0.00  0.00     0.219 HD
ENDBRANCH   3  11
TORSDOF 2
ENDMDL
MODEL 6
REMARK VINA RESULT:      -4.0     11.235     12.005
REMARK  2 active torsions:
REMARK  status: ('A' for Active; 'I' for Inactive)
REMARK    1  A    between atoms: C_2  and  N_5 
REMARK    2  A    between atoms: O_8  and  C_3 
ROOT
HETATM    1  C   UNK N   1      21.703  12.797  10.160  0.00  0.00     0.118 A 
HETATM    2  C   UNK N   1      23.245  12.886  10.162  0.00  0.00     0.175 A 
HETATM    3  C   UNK N   1      21.442  12.069  11.448  0.00  0.00     0.120 A 
HETATM    4  C   UNK N   1      23.574  12.131  11.406  0.00  0.00     0.246 A 
HETATM    5  N   UNK N   1      22.494  11.724  12.071  0.00  0.00    -0.309 N 
ATOM      6  HN  UNK N   1      22.509  11.210  12.952  1.00  0.00     0.170 HD
HETATM    7  O   UNK N   1      24.708  11.926  11.807  0.00  0.00    -0.271 OA
ENDROOT
BRANCH   2   8
HETATM    8  N   UNK N   1      23.805  12.233   8.991  0.00  0.00    -0.418 N 
HETATM    9  H   UNK N   1      24.495  12.484   8.282  0.00  0.00     0.150 HD
HETATM   10  H   UNK N   1      23.417  11.302   8.842  0.00  0.00     0.150 HD
ENDBRANCH   2   8
BRANCH   3  11
HETATM   11  O   UNK N   1      20.210  11.804  11.918  0.00  0.00    -0.349 OA
HETATM   12  H   UNK N   1      19.501  11.611  11.337  0.00  0.00     0.219 HD
ENDBRANCH   3  11
TORSDOF 2
ENDMDL
MODEL 7
REMARK VINA RESULT:      -3.9     14.716     15.212
REMARK  2 active torsions:
REMARK  status: ('A' for Active; 'I' for Inactive)
REMARK    1  A    between atoms: C_2  and  N_5 
REMARK    2  A    between atoms: O_8  and  C_3 
ROOT
HETATM    1  C   UNK N   1      33.337  18.021   7.849  0.00  0.00     0.118 A 
HETATM    2  C   UNK N   1      32.893  16.641   8.379  0.00  0.00     0.175 A 
HETATM    3  C   UNK N   1      34.606  18.246   8.621  0.00  0.00     0.120 A 
HETATM    4  C   UNK N   1      33.946  16.374   9.402  0.00  0.00     0.246 A 
HETATM    5  N   UNK N   1      34.876  17.327   9.455  0.00  0.00    -0.309 N 
ATOM      6  HN  UNK N   1      35.686  17.318  10.074  1.00  0.00     0.170 HD
HETATM    7  O   UNK N   1      33.987  15.377  10.105  0.00  0.00    -0.271 OA
ENDROOT
BRANCH   2   8
HETATM    8  N   UNK N   1      31.577  16.717   8.992  0.00  0.00    -0.418 N 
HETATM    9  H   UNK N   1      30.947  17.472   9.262  0.00  0.00     0.150 HD
HETATM   10  H   UNK N   1      31.192  15.797   9.200  0.00  0.00     0.150 HD
ENDBRANCH   2   8
BRANCH   3  11
HETATM   11  O   UNK N   1      35.401  19.318   8.452  0.00  0.00    -0.349 OA
HETATM   12  H   UNK N   1      35.074  20.188   8.570  0.00  0.00     0.219 HD
ENDBRANCH   3  11
TORSDOF 2
ENDMDL
MODEL 8
REMARK VINA RESULT:      -3.9     14.659     15.348
REMARK  2 active torsions:
REMARK  status: ('A' for Active; 'I' for Inactive)
REMARK    1  A    between atoms: C_2  and  N_5 
REMARK    2  A    between atoms: O_8  and  C_3 
ROOT
HETATM    1  C   UNK N   1      32.834  16.543   8.252  0.00  0.00     0.118 A 
HETATM    2  C   UNK N   1      33.378  17.829   7.595  0.00  0.00     0.175 A 
HETATM    3  C   UNK N   1      33.701  16.440   9.475  0.00  0.00     0.120 A 
HETATM    4  C   UNK N   1      34.496  18.175   8.521  0.00  0.00     0.246 A 
HETATM    5  N   UNK N   1      34.589  17.344   9.559  0.00  0.00    -0.309 N 
ATOM      6  HN  UNK N   1      35.273  17.423  10.311  1.00  0.00     0.170 HD
HETATM    7  O   UNK N   1      35.237  19.133   8.379  0.00  0.00    -0.271 OA
ENDROOT
BRANCH   2   8
HETATM    8  N   UNK N   1      33.875  17.559   6.256  0.00  0.00    -0.418 N 
HETATM    9  H   UNK N   1      33.607  17.842   5.313  0.00  0.00     0.150 HD
HETATM   10  H   UNK N   1      34.684  16.940   6.260  0.00  0.00     0.150 HD
ENDBRANCH   2   8
BRANCH   3  11
HETATM   11  O   UNK N   1      33.558  15.485  10.412  0.00  0.00    -0.349 OA
HETATM   12  H   UNK N   1      33.033  15.629  11.175  0.00  0.00     0.219 HD
ENDBRANCH   3  11
TORSDOF 2
ENDMDL
MODEL 9
REMARK VINA RESULT:      -3.8     10.548     11.362
REMARK  2 active torsions:
REMARK  status: ('A' for Active; 'I' for Inactive)
REMARK    1  A    between atoms: C_2  and  N_5 
REMARK    2  A    between atoms: O_8  and  C_3 
ROOT
HETATM    1  C   UNK N   1      25.913  27.815  -5.187  0.00  0.00     0.118 A 
HETATM    2  C   UNK N   1      26.200  26.303  -5.066  0.00  0.00     0.175 A 
HETATM    3  C   UNK N   1      25.973  28.249  -3.750  0.00  0.00     0.120 A 
HETATM    4  C   UNK N   1      26.294  26.146  -3.585  0.00  0.00     0.246 A 
HETATM    5  N   UNK N   1      26.169  27.299  -2.929  0.00  0.00    -0.309 N 
ATOM      6  HN  UNK N   1      26.224  27.404  -1.917  1.00  0.00     0.170 HD
HETATM    7  O   UNK N   1      26.498  25.086  -3.017  0.00  0.00    -0.271 OA
ENDROOT
BRANCH   2   8
HETATM    8  N   UNK N   1      25.101  25.520  -5.606  0.00  0.00    -0.418 N 
HETATM    9  H   UNK N   1      24.472  25.609  -6.404  0.00  0.00     0.150 HD
HETATM   10  H   UNK N   1      24.914  24.683  -5.055  0.00  0.00     0.150 HD
ENDBRANCH   2   8
BRANCH   3  11
HETATM   11  O   UNK N   1      25.838  29.526  -3.350  0.00  0.00    -0.349 OA
HETATM   12  H   UNK N   1      26.586  30.050  -3.141  0.00  0.00     0.219 HD
ENDBRANCH   3  11
TORSDOF 2
ENDMDL
