MODEL 1
REMARK VINA RESULT:      -3.3      0.000      0.000
REMARK  0 active torsions:
REMARK  status: ('A' for Active; 'I' for Inactive)
ROOT
HETATM    1  C   UNK N   1      24.433  12.631   9.385  0.00  0.00     0.069 C 
HETATM    2  C   UNK N   1      22.287  12.016  10.596  0.00  0.00     0.113 A 
HETATM    3  C   UNK N   1      23.059  11.898  12.603  0.00  0.00     0.180 A 
HETATM    4  C   UNK N   1      23.628  12.296  10.588  0.00  0.00     0.021 A 
HETATM    5  N   UNK N   1      21.933  11.765  11.870  0.00  0.00    -0.360 N 
ATOM      6  HN  UNK N   1      21.003  11.524  12.213  1.00  0.00     0.166 HD
HETATM    7  N   UNK N   1      24.118  12.225  11.834  0.00  0.00    -0.355 N 
HETATM    8  H   UNK N   1      25.047  12.378  12.124  0.00  0.00     0.166 HD
ENDROOT
TORSDOF 0
ENDMDL
MODEL 2
REMARK VINA RESULT:      -3.3      1.324      2.460
REMARK  0 active torsions:
REMARK  status: ('A' for Active; 'I' for Inactive)
ROOT
HETATM    1  C   UNK N   1      23.269  11.876  13.179  0.00  0.00     0.069 C 
HETATM    2  C   UNK N   1      22.729  11.760  10.700  0.00  0.00     0.113 A 
HETATM    3  C   UNK N   1      24.640  12.366   9.914  0.00  0.00     0.180 A 
HETATM    4  C   UNK N   1      23.593  12.005  11.734  0.00  0.00     0.021 A 
HETATM    5  N   UNK N   1      23.395  11.989   9.553  0.00  0.00    -0.360 N 
ATOM      6  HN  UNK N   1      23.033  11.896   8.604  1.00  0.00     0.166 HD
HETATM    7  N   UNK N   1      24.786  12.383  11.255  0.00  0.00    -0.355 N 
HETATM    8  H   UNK N   1      25.592  12.622  11.769  0.00  0.00     0.166 HD
ENDROOT
TORSDOF 0
ENDMDL
MODEL 3
REMARK VINA RESULT:      -3.2      0.696      1.972
REMARK  0 active torsions:
REMARK  status: ('A' for Active; 'I' for Inactive)
ROOT
HETATM    1  C   UNK N   1      21.394  12.689   9.468  0.00  0.00     0.069 C 
HETATM    2  C   UNK N   1      23.708  12.603  10.510  0.00  0.00     0.113 A 
HETATM    3  C   UNK N   1      23.171  11.847  12.453  0.00  0.00     0.180 A 
HETATM    4  C   UNK N   1      22.353  12.415  10.570  0.00  0.00     0.021 A 
HETATM    5  N   UNK N   1      24.220  12.242  11.701  0.00  0.00    -0.360 N 
ATOM      6  HN  UNK N   1      25.201  12.263  11.980  1.00  0.00     0.166 HD
HETATM    7  N   UNK N   1      22.008  11.945  11.776  0.00  0.00    -0.355 N 
HETATM    8  H   UNK N   1      21.104  11.720  12.098  0.00  0.00     0.166 HD
ENDROOT
TORSDOF 0
ENDMDL
MODEL 4
REMARK VINA RESULT:      -2.9     12.855     13.714
REMARK  0 active torsions:
REMARK  status: ('A' for Active; 'I' for Inactive)
ROOT
HETATM    1  C   UNK N   1      35.337  12.899  17.015  0.00  0.00     0.069 C 
HETATM    2  C   UNK N   1      36.848  14.230  15.467  0.00  0.00     0.113 A 
HETATM    3  C   UNK N   1      35.881  13.785  13.594  0.00  0.00     0.180 A 
HETATM    4  C   UNK N   1      35.774  13.409  15.689  0.00  0.00     0.021 A 
HETATM    5  N   UNK N   1      36.911  14.464  14.143  0.00  0.00    -0.360 N 
ATOM      6  HN  UNK N   1      37.597  15.038  13.653  1.00  0.00     0.166 HD
HETATM    7  N   UNK N   1      35.165  13.126  14.529  0.00  0.00    -0.355 N 
HETATM    8  H   UNK N   1      34.369  12.562  14.390  0.00  0.00     0.166 HD
ENDROOT
TORSDOF 0
ENDMDL
MODEL 5
REMARK VINA RESULT:      -2.8     20.350     21.209
REMARK  0 active torsions:
REMARK  status: ('A' for Active; 'I' for Inactive)
ROOT
HETATM    1  C   UNK N   1      24.880  27.100  -5.770  0.00  0.00     0.069 C 
HETATM    2  C   UNK N   1      26.162  25.452  -4.325  0.00  0.00     0.113 A 
HETATM    3  C   UNK N   1      25.970  23.702  -5.565  0.00  0.00     0.180 A 
HETATM    4  C   UNK N   1      25.444  25.763  -5.449  0.00  0.00     0.021 A 
HETATM    5  N   UNK N   1      26.492  24.149  -4.403  0.00  0.00    -0.360 N 
ATOM      6  HN  UNK N   1      27.028  23.610  -3.724  1.00  0.00     0.166 HD
HETATM    7  N   UNK N   1      25.318  24.680  -6.228  0.00  0.00    -0.355 N 
HETATM    8  H   UNK N   1      24.853  24.613  -7.094  0.00  0.00     0.166 HD
ENDROOT
TORSDOF 0
ENDMDL
MODEL 6
REMARK VINA RESULT:      -2.8     23.530     24.524
REMARK  0 active torsions:
REMARK  status: ('A' for Active; 'I' for Inactive)
ROOT
HETATM    1  C   UNK N   1      41.990  23.053   2.091  0.00  0.00     0.069 C 
HETATM    2  C   UNK N   1      44.451  23.352   2.641  0.00  0.00     0.113 A 
HETATM    3  C   UNK N   1      44.640  21.837   4.159  0.00  0.00     0.180 A 
HETATM    4  C   UNK N   1      43.243  22.734   2.824  0.00  0.00     0.021 A 
HETATM    5  N   UNK N   1      45.330  22.783   3.486  0.00  0.00    -0.360 N 
ATOM      6  HN  UNK N   1      46.316  23.017   3.596  1.00  0.00     0.166 HD
HETATM    7  N   UNK N   1      43.350  21.789   3.768  0.00  0.00    -0.355 N 
HETATM    8  H   UNK N   1      42.642  21.190   4.102  0.00  0.00     0.166 HD
ENDROOT
TORSDOF 0
ENDMDL
MODEL 7
REMARK VINA RESULT:      -2.7     12.461     12.717
REMARK  0 active torsions:
REMARK  status: ('A' for Active; 'I' for Inactive)
ROOT
HETATM    1  C   UNK N   1      33.683  17.371   5.868  0.00  0.00     0.069 C 
HETATM    2  C   UNK N   1      34.412  18.275   8.126  0.00  0.00     0.113 A 
HETATM    3  C   UNK N   1      34.750  16.406   9.140  0.00  0.00     0.180 A 
HETATM    4  C   UNK N   1      34.141  17.237   7.275  0.00  0.00     0.021 A 
HETATM    5  N   UNK N   1      34.796  17.746   9.303  0.00  0.00    -0.360 N 
ATOM      6  HN  UNK N   1      35.067  18.252  10.145  1.00  0.00     0.166 HD
HETATM    7  N   UNK N   1      34.348  16.068   7.897  0.00  0.00    -0.355 N 
HETATM    8  H   UNK N   1      34.233  15.162   7.528  0.00  0.00     0.166 HD
ENDROOT
TORSDOF 0
ENDMDL
MODEL 8
REMARK VINA RESULT:      -2.7     11.378     12.183
REMARK  0 active torsions:
REMARK  status: ('A' for Active; 'I' for Inactive)
ROOT
HETATM    1  C   UNK N   1      33.756  10.777  14.615  0.00  0.00     0.069 C 
HETATM    2  C   UNK N   1      35.196  12.864  14.753  0.00  0.00     0.113 A 
HETATM    3  C   UNK N   1      35.285  13.347  12.656  0.00  0.00     0.180 A 
HETATM    4  C   UNK N   1      34.482  11.938  14.039  0.00  0.00     0.021 A 
HETATM    5  N   UNK N   1      35.701  13.752  13.876  0.00  0.00    -0.360 N 
ATOM      6  HN  UNK N   1      36.279  14.564  14.088  1.00  0.00     0.166 HD
HETATM    7  N   UNK N   1      34.531  12.230  12.732  0.00  0.00    -0.355 N 
HETATM    8  H   UNK N   1      34.110  11.738  11.990  0.00  0.00     0.166 HD
ENDROOT
TORSDOF 0
ENDMDL
MODEL 9
REMARK VINA RESULT:      -2.7      2.370      2.967
REMARK  0 active torsions:
REMARK  status: ('A' for Active; 'I' for Inactive)
ROOT
HETATM    1  C   UNK N   1      22.970  11.597  10.549  0.00  0.00     0.069 C 
HETATM    2  C   UNK N   1      20.710  12.755  10.598  0.00  0.00     0.113 A 
HETATM    3  C   UNK N   1      21.191  14.475   9.395  0.00  0.00     0.180 A 
HETATM    4  C   UNK N   1      22.020  12.687  10.204  0.00  0.00     0.021 A 
HETATM    5  N   UNK N   1      20.191  13.885  10.084  0.00  0.00    -0.360 N 
ATOM      6  HN  UNK N   1      19.236  14.228  10.194  1.00  0.00     0.166 HD
HETATM    7  N   UNK N   1      22.330  13.754   9.454  0.00  0.00    -0.355 N 
HETATM    8  H   UNK N   1      23.197  13.965   9.038  0.00  0.00     0.166 HD
ENDROOT
TORSDOF 0
ENDMDL
