MODEL 1
REMARK VINA RESULT:      -2.3      0.000      0.000
REMARK  0 active torsions:
REMARK  status: ('A' for Active; 'I' for Inactive)
ROOT
HETATM    1  C   UNK N   1      23.238  11.903  13.119  0.00  0.00     0.042 C 
HETATM    2  C   UNK N   1      23.389  11.910  11.613  0.00  0.00     0.224 C 
HETATM    3  N   UNK N   1      22.171  12.315  11.032  0.00  0.00    -0.422 NA
HETATM    4  C   UNK N   1      21.167  12.649  10.570  0.00  0.00     0.157 C 
ENDROOT
TORSDOF 0
ENDMDL
MODEL 2
REMARK VINA RESULT:      -2.3     13.112     13.718
REMARK  0 active torsions:
REMARK  status: ('A' for Active; 'I' for Inactive)
ROOT
HETATM    1  C   UNK N   1      33.221  18.108   8.017  0.00  0.00     0.042 C 
HETATM    2  C   UNK N   1      34.686  18.288   8.355  0.00  0.00     0.224 C 
HETATM    3  N   UNK N   1      35.007  17.473   9.457  0.00  0.00    -0.422 NA
HETATM    4  C   UNK N   1      35.254  16.799  10.362  0.00  0.00     0.157 C 
ENDROOT
TORSDOF 0
ENDMDL
MODEL 3
REMARK VINA RESULT:      -2.2     12.261     12.806
REMARK  0 active torsions:
REMARK  status: ('A' for Active; 'I' for Inactive)
ROOT
HETATM    1  C   UNK N   1      20.941  20.472   1.131  0.00  0.00     0.042 C 
HETATM    2  C   UNK N   1      21.250  20.793   2.578  0.00  0.00     0.224 C 
HETATM    3  N   UNK N   1      22.642  20.720   2.777  0.00  0.00    -0.422 NA
HETATM    4  C   UNK N   1      23.785  20.655   2.925  0.00  0.00     0.157 C 
ENDROOT
TORSDOF 0
ENDMDL
MODEL 4
REMARK VINA RESULT:      -2.2      0.920      2.552
REMARK  0 active torsions:
REMARK  status: ('A' for Active; 'I' for Inactive)
ROOT
HETATM    1  C   UNK N   1      21.130  12.628  10.623  0.00  0.00     0.042 C 
HETATM    2  C   UNK N   1      22.481  11.947  10.685  0.00  0.00     0.224 C 
HETATM    3  N   UNK N   1      22.925  11.932  12.022  0.00  0.00    -0.422 NA
HETATM    4  C   UNK N   1      23.276  11.927  13.122  0.00  0.00     0.157 C 
ENDROOT
TORSDOF 0
ENDMDL
MODEL 5
REMARK VINA RESULT:      -2.2      1.421      1.999
REMARK  0 active torsions:
REMARK  status: ('A' for Active; 'I' for Inactive)
ROOT
HETATM    1  C   UNK N   1      23.168  11.863  12.925  0.00  0.00     0.042 C 
HETATM    2  C   UNK N   1      22.695  12.017  11.494  0.00  0.00     0.224 C 
HETATM    3  N   UNK N   1      23.786  12.396  10.689  0.00  0.00    -0.422 NA
HETATM    4  C   UNK N   1      24.690  12.707  10.041  0.00  0.00     0.157 C 
ENDROOT
TORSDOF 0
ENDMDL
MODEL 6
REMARK VINA RESULT:      -2.1      1.401      1.972
REMARK  0 active torsions:
REMARK  status: ('A' for Active; 'I' for Inactive)
ROOT
HETATM    1  C   UNK N   1      22.830  12.055  11.215  0.00  0.00     0.042 C 
HETATM    2  C   UNK N   1      21.354  12.269  10.952  0.00  0.00     0.224 C 
HETATM    3  N   UNK N   1      21.191  13.426  10.167  0.00  0.00    -0.422 NA
HETATM    4  C   UNK N   1      21.073  14.378   9.523  0.00  0.00     0.157 C 
ENDROOT
TORSDOF 0
ENDMDL
MODEL 7
REMARK VINA RESULT:      -2.0     12.826     13.194
REMARK  0 active torsions:
REMARK  status: ('A' for Active; 'I' for Inactive)
ROOT
HETATM    1  C   UNK N   1      34.986  13.128  16.890  0.00  0.00     0.042 C 
HETATM    2  C   UNK N   1      34.516  12.557  15.569  0.00  0.00     0.224 C 
HETATM    3  N   UNK N   1      35.145  13.253  14.519  0.00  0.00    -0.422 NA
HETATM    4  C   UNK N   1      35.669  13.833  13.669  0.00  0.00     0.157 C 
ENDROOT
TORSDOF 0
ENDMDL
MODEL 8
REMARK VINA RESULT:      -1.9     13.059     13.515
REMARK  0 active torsions:
REMARK  status: ('A' for Active; 'I' for Inactive)
ROOT
HETATM    1  C   UNK N   1      34.757  15.414  10.302  0.00  0.00     0.042 C 
HETATM    2  C   UNK N   1      35.322  16.813  10.436  0.00  0.00     0.224 C 
HETATM    3  N   UNK N   1      34.939  17.571   9.313  0.00  0.00    -0.422 NA
HETATM    4  C   UNK N   1      34.617  18.180   8.387  0.00  0.00     0.157 C 
ENDROOT
TORSDOF 0
ENDMDL
MODEL 9
REMARK VINA RESULT:      -1.9     10.408     10.789
REMARK  0 active torsions:
REMARK  status: ('A' for Active; 'I' for Inactive)
ROOT
HETATM    1  C   UNK N   1      27.042  21.537   6.341  0.00  0.00     0.042 C 
HETATM    2  C   UNK N   1      27.469  20.143   5.930  0.00  0.00     0.224 C 
HETATM    3  N   UNK N   1      27.918  19.447   7.069  0.00  0.00    -0.422 NA
HETATM    4  C   UNK N   1      28.282  18.889   8.012  0.00  0.00     0.157 C 
ENDROOT
TORSDOF 0
ENDMDL
