REMARK  6 active torsions:
REMARK  status: ('A' for Active; 'I' for Inactive)
REMARK    1  A    between atoms: C_2  and  O_1 
REMARK    2  A    between atoms: C_2  and  C_3 
REMARK    3  A    between atoms: C_2  and  C_7 
REMARK    4  A    between atoms: C_3  and  C_4 
REMARK    5  A    between atoms: C_4  and  O_5 
REMARK    6  A    between atoms: C_7  and  O_8 
ROOT
HETATM    1  C   UNK N   1       2.278   1.183   0.000  0.00  0.00     0.225 C 
ENDROOT
BRANCH   1   2
HETATM    2  O   UNK N   1       2.224   2.579  -0.000  0.00  0.00    -0.384 OA
HETATM    3  H   UNK N   1       3.045   3.096  -0.000  0.00  0.00     0.210 HD
ENDBRANCH   1   2
BRANCH   1   4
HETATM    4  C   UNK N   1       0.988   0.345  -0.000  0.00  0.00     0.152 C 
BRANCH   4   5
HETATM    5  C   UNK N   1      -0.335   1.073   0.000  0.00  0.00     0.142 C 
HETATM    6  O   UNK N   1      -0.394   2.292   0.000  0.00  0.00    -0.650 OA
BRANCH   5   7
HETATM    7  O   UNK N   1      -1.474   0.356  -0.000  0.00  0.00    -0.776 OA
HETATM    8  H   UNK N   1      -2.303   0.794  -0.000  0.00  0.00     0.167 HD
ENDBRANCH   5   7
ENDBRANCH   4   5
ENDBRANCH   1   4
BRANCH   1   9
HETATM    9  C   UNK N   1       3.635   0.541   0.000  0.00  0.00     0.170 C 
HETATM   10  O   UNK N   1       3.738  -0.677  -0.000  0.00  0.00    -0.648 OA
BRANCH   9  11
HETATM   11  O   UNK N   1       4.745   1.303  -0.000  0.00  0.00    -0.774 OA
HETATM   12  H   UNK N   1       5.590   0.899  -0.000  0.00  0.00     0.167 HD
ENDBRANCH   9  11
ENDBRANCH   1   9
TORSDOF 6
