MODEL 1
REMARK VINA RESULT:      -5.9      0.000      0.000
REMARK  6 active torsions:
REMARK  status: ('A' for Active; 'I' for Inactive)
REMARK    1  A    between atoms: C_2  and  C_1 
REMARK    2  A    between atoms: C_3  and  C_1 
REMARK    3  A    between atoms: C_4  and  C_2 
REMARK    4  A    between atoms: C_7  and  C_3 
REMARK    5  A    between atoms: C_8  and  C_4 
REMARK    6  A    between atoms: O_16  and  C_8 
ROOT
HETATM    1  C   UNK N   1      24.999  13.397   9.063  0.00  0.00     0.102 C 
HETATM    2  C   UNK N   1      24.332  12.426  10.003  0.00  0.00     0.133 C 
HETATM    3  C   UNK N   1      22.386  12.801   8.660  0.00  0.00     0.072 C 
HETATM    4  C   UNK N   1      22.908  12.951  10.067  0.00  0.00     0.137 C 
HETATM    5  C   UNK N   1      23.458  12.053  12.052  0.00  0.00     0.668 C 
HETATM    6  N   UNK N   1      23.358  11.881  13.319  0.00  0.00    -0.235 N 
ATOM      7  HN  UNK N   1      24.098  11.397  13.827  1.00  0.00     0.174 HD
HETATM    8  N   UNK N   1      24.675  12.322  11.399  0.00  0.00    -0.219 N 
HETATM    9  N   UNK N   1      22.357  12.281  11.214  0.00  0.00    -0.219 N 
HETATM   10  S   UNK N   1      23.777  13.516   7.663  0.00  0.00    -0.160 SA
HETATM   11  H   UNK N   1      22.567  12.212  13.803  0.00  0.00     0.174 HD
HETATM   12  H   UNK N   1      25.566  12.419  11.808  0.00  0.00     0.178 HD
HETATM   13  H   UNK N   1      21.416  12.035  11.375  0.00  0.00     0.178 HD
ENDROOT
BRANCH   3  14
HETATM   14  C   UNK N   1      21.049  13.508   8.416  0.00  0.00     0.017 C 
BRANCH  14  15
HETATM   15  C   UNK N   1      20.741  14.692   9.342  0.00  0.00     0.002 C 
BRANCH  15  16
HETATM   16  C   UNK N   1      20.708  16.037   8.608  0.00  0.00     0.010 C 
BRANCH  16  17
HETATM   17  C   UNK N   1      19.310  16.646   8.519  0.00  0.00     0.110 C 
BRANCH  17  18
HETATM   18  C   UNK N   1      19.253  18.016   9.109  0.00  0.00     0.139 C 
HETATM   19  O   UNK N   1      20.151  18.808   8.883  0.00  0.00    -0.650 OA
BRANCH  18  20
HETATM   20  O   UNK N   1      18.233  18.369   9.914  0.00  0.00    -0.776 OA
HETATM   21  H   UNK N   1      18.202  18.211  10.837  0.00  0.00     0.167 HD
ENDBRANCH  18  20
ENDBRANCH  17  18
ENDBRANCH  16  17
ENDBRANCH  15  16
ENDBRANCH  14  15
ENDBRANCH   3  14
TORSDOF 6
ENDMDL
MODEL 2
REMARK VINA RESULT:      -5.5      1.360      1.795
REMARK  6 active torsions:
REMARK  status: ('A' for Active; 'I' for Inactive)
REMARK    1  A    between atoms: C_2  and  C_1 
REMARK    2  A    between atoms: C_3  and  C_1 
REMARK    3  A    between atoms: C_4  and  C_2 
REMARK    4  A    between atoms: C_7  and  C_3 
REMARK    5  A    between atoms: C_8  and  C_4 
REMARK    6  A    between atoms: O_16  and  C_8 
ROOT
HETATM    1  C   UNK N   1      24.934  13.442   9.060  0.00  0.00     0.102 C 
HETATM    2  C   UNK N   1      24.142  12.441   9.861  0.00  0.00     0.133 C 
HETATM    3  C   UNK N   1      22.321  13.078   8.444  0.00  0.00     0.072 C 
HETATM    4  C   UNK N   1      22.756  13.061   9.888  0.00  0.00     0.137 C 
HETATM    5  C   UNK N   1      23.109  11.949  11.808  0.00  0.00     0.668 C 
HETATM    6  N   UNK N   1      22.911  11.669  13.045  0.00  0.00    -0.235 N 
ATOM      7  HN  UNK N   1      23.582  11.089  13.549  1.00  0.00     0.174 HD
HETATM    8  N   UNK N   1      24.382  12.185  11.259  0.00  0.00    -0.219 N 
HETATM    9  N   UNK N   1      22.084  12.331  10.930  0.00  0.00    -0.219 N 
HETATM   10  S   UNK N   1      23.820  13.776   7.607  0.00  0.00    -0.160 SA
HETATM   11  H   UNK N   1      22.114  12.013  13.508  0.00  0.00     0.174 HD
HETATM   12  H   UNK N   1      25.247  12.179  11.728  0.00  0.00     0.178 HD
HETATM   13  H   UNK N   1      21.120  12.142  11.009  0.00  0.00     0.178 HD
ENDROOT
BRANCH   3  14
HETATM   14  C   UNK N   1      21.054  13.900   8.188  0.00  0.00     0.017 C 
BRANCH  14  15
HETATM   15  C   UNK N   1      20.812  15.071   9.149  0.00  0.00     0.002 C 
BRANCH  15  16
HETATM   16  C   UNK N   1      20.440  16.373   8.431  0.00  0.00     0.010 C 
BRANCH  16  17
HETATM   17  C   UNK N   1      21.107  16.524   7.065  0.00  0.00     0.110 C 
BRANCH  17  18
HETATM   18  C   UNK N   1      21.183  17.950   6.630  0.00  0.00     0.139 C 
HETATM   19  O   UNK N   1      20.832  18.834   7.392  0.00  0.00    -0.650 OA
BRANCH  18  20
HETATM   20  O   UNK N   1      21.610  18.263   5.391  0.00  0.00    -0.776 OA
HETATM   21  H   UNK N   1      22.196  18.965   5.191  0.00  0.00     0.167 HD
ENDBRANCH  18  20
ENDBRANCH  17  18
ENDBRANCH  16  17
ENDBRANCH  15  16
ENDBRANCH  14  15
ENDBRANCH   3  14
TORSDOF 6
ENDMDL
MODEL 3
REMARK VINA RESULT:      -5.3     13.267     14.055
REMARK  6 active torsions:
REMARK  status: ('A' for Active; 'I' for Inactive)
REMARK    1  A    between atoms: C_2  and  C_1 
REMARK    2  A    between atoms: C_3  and  C_1 
REMARK    3  A    between atoms: C_4  and  C_2 
REMARK    4  A    between atoms: C_7  and  C_3 
REMARK    5  A    between atoms: C_8  and  C_4 
REMARK    6  A    between atoms: O_16  and  C_8 
ROOT
HETATM    1  C   UNK N   1      35.776  11.601  13.350  0.00  0.00     0.102 C 
HETATM    2  C   UNK N   1      35.729  12.933  14.053  0.00  0.00     0.133 C 
HETATM    3  C   UNK N   1      35.273  13.818  11.875  0.00  0.00     0.072 C 
HETATM    4  C   UNK N   1      36.275  13.882  13.000  0.00  0.00     0.137 C 
HETATM    5  C   UNK N   1      36.878  14.608  15.040  0.00  0.00     0.668 C 
HETATM    6  N   UNK N   1      37.597  15.263  15.877  0.00  0.00    -0.235 N 
ATOM      7  HN  UNK N   1      37.515  15.074  16.876  1.00  0.00     0.174 HD
HETATM    8  N   UNK N   1      36.549  13.249  15.196  0.00  0.00    -0.219 N 
HETATM    9  N   UNK N   1      36.580  15.072  13.750  0.00  0.00    -0.219 N 
HETATM   10  S   UNK N   1      35.034  11.989  11.688  0.00  0.00    -0.160 SA
HETATM   11  H   UNK N   1      38.227  15.949  15.557  0.00  0.00     0.174 HD
HETATM   12  H   UNK N   1      36.821  12.647  15.925  0.00  0.00     0.178 HD
HETATM   13  H   UNK N   1      36.579  16.004  13.429  0.00  0.00     0.178 HD
ENDROOT
BRANCH   3  14
HETATM   14  C   UNK N   1      35.744  14.496  10.586  0.00  0.00     0.017 C 
BRANCH  14  15
HETATM   15  C   UNK N   1      34.706  14.586   9.460  0.00  0.00     0.002 C 
BRANCH  15  16
HETATM   16  C   UNK N   1      34.959  15.753   8.499  0.00  0.00     0.010 C 
BRANCH  16  17
HETATM   17  C   UNK N   1      34.191  17.021   8.869  0.00  0.00     0.110 C 
BRANCH  17  18
HETATM   18  C   UNK N   1      34.592  18.188   8.028  0.00  0.00     0.139 C 
HETATM   19  O   UNK N   1      34.328  18.194   6.838  0.00  0.00    -0.650 OA
BRANCH  18  20
HETATM   20  O   UNK N   1      35.269  19.218   8.571  0.00  0.00    -0.776 OA
HETATM   21  H   UNK N   1      35.272  19.432   9.483  0.00  0.00     0.167 HD
ENDBRANCH  18  20
ENDBRANCH  17  18
ENDBRANCH  16  17
ENDBRANCH  15  16
ENDBRANCH  14  15
ENDBRANCH   3  14
TORSDOF 6
ENDMDL
MODEL 4
REMARK VINA RESULT:      -5.2      8.828     10.991
REMARK  6 active torsions:
REMARK  status: ('A' for Active; 'I' for Inactive)
REMARK    1  A    between atoms: C_2  and  C_1 
REMARK    2  A    between atoms: C_3  and  C_1 
REMARK    3  A    between atoms: C_4  and  C_2 
REMARK    4  A    between atoms: C_7  and  C_3 
REMARK    5  A    between atoms: C_8  and  C_4 
REMARK    6  A    between atoms: O_16  and  C_8 
ROOT
HETATM    1  C   UNK N   1      27.280  16.777   6.488  0.00  0.00     0.102 C 
HETATM    2  C   UNK N   1      28.110  17.765   7.265  0.00  0.00     0.133 C 
HETATM    3  C   UNK N   1      29.784  17.327   5.611  0.00  0.00     0.072 C 
HETATM    4  C   UNK N   1      29.518  17.223   7.092  0.00  0.00     0.137 C 
HETATM    5  C   UNK N   1      29.336  18.184   9.115  0.00  0.00     0.668 C 
HETATM    6  N   UNK N   1      29.661  18.390  10.339  0.00  0.00    -0.235 N 
ATOM      7  HN  UNK N   1      29.026  18.897  10.955  1.00  0.00     0.174 HD
HETATM    8  N   UNK N   1      28.021  17.913   8.697  0.00  0.00    -0.219 N 
HETATM    9  N   UNK N   1      30.270  17.918   8.102  0.00  0.00    -0.219 N 
HETATM   10  S   UNK N   1      28.233  16.603   4.898  0.00  0.00    -0.160 SA
HETATM   11  H   UNK N   1      30.523  18.062  10.684  0.00  0.00     0.174 HD
HETATM   12  H   UNK N   1      27.216  17.839   9.259  0.00  0.00     0.178 HD
HETATM   13  H   UNK N   1      31.227  18.156   8.087  0.00  0.00     0.178 HD
ENDROOT
BRANCH   3  14
HETATM   14  C   UNK N   1      31.051  16.596   5.156  0.00  0.00     0.017 C 
BRANCH  14  15
HETATM   15  C   UNK N   1      32.378  17.290   5.488  0.00  0.00     0.002 C 
BRANCH  15  16
HETATM   16  C   UNK N   1      33.195  16.548   6.552  0.00  0.00     0.010 C 
BRANCH  16  17
HETATM   17  C   UNK N   1      34.461  17.293   6.973  0.00  0.00     0.110 C 
BRANCH  17  18
HETATM   18  C   UNK N   1      34.231  18.166   8.162  0.00  0.00     0.139 C 
HETATM   19  O   UNK N   1      34.958  19.125   8.356  0.00  0.00    -0.650 OA
BRANCH  18  20
HETATM   20  O   UNK N   1      33.247  17.882   9.036  0.00  0.00    -0.776 OA
HETATM   21  H   UNK N   1      33.361  17.810   9.963  0.00  0.00     0.167 HD
ENDBRANCH  18  20
ENDBRANCH  17  18
ENDBRANCH  16  17
ENDBRANCH  15  16
ENDBRANCH  14  15
ENDBRANCH   3  14
TORSDOF 6
ENDMDL
MODEL 5
REMARK VINA RESULT:      -5.2     23.166     24.696
REMARK  6 active torsions:
REMARK  status: ('A' for Active; 'I' for Inactive)
REMARK    1  A    between atoms: C_2  and  C_1 
REMARK    2  A    between atoms: C_3  and  C_1 
REMARK    3  A    between atoms: C_4  and  C_2 
REMARK    4  A    between atoms: C_7  and  C_3 
REMARK    5  A    between atoms: C_8  and  C_4 
REMARK    6  A    between atoms: O_16  and  C_8 
ROOT
HETATM    1  C   UNK N   1      41.644  20.609   1.567  0.00  0.00     0.102 C 
HETATM    2  C   UNK N   1      41.986  21.400   2.802  0.00  0.00     0.133 C 
HETATM    3  C   UNK N   1      41.215  23.284   1.543  0.00  0.00     0.072 C 
HETATM    4  C   UNK N   1      42.439  22.732   2.228  0.00  0.00     0.137 C 
HETATM    5  C   UNK N   1      43.600  22.298   4.103  0.00  0.00     0.668 C 
HETATM    6  N   UNK N   1      44.590  22.410   4.911  0.00  0.00    -0.235 N 
ATOM      7  HN  UNK N   1      44.702  21.743   5.674  1.00  0.00     0.174 HD
HETATM    8  N   UNK N   1      43.084  21.062   3.674  0.00  0.00    -0.219 N 
HETATM    9  N   UNK N   1      43.105  23.364   3.336  0.00  0.00    -0.219 N 
HETATM   10  S   UNK N   1      40.627  21.814   0.577  0.00  0.00    -0.160 SA
HETATM   11  H   UNK N   1      45.242  23.139   4.797  0.00  0.00     0.174 HD
HETATM   12  H   UNK N   1      43.403  20.163   3.916  0.00  0.00     0.178 HD
HETATM   13  H   UNK N   1      43.194  24.328   3.516  0.00  0.00     0.178 HD
ENDROOT
BRANCH   3  14
HETATM   14  C   UNK N   1      41.496  24.506   0.663  0.00  0.00     0.017 C 
BRANCH  14  15
HETATM   15  C   UNK N   1      42.729  24.407  -0.244  0.00  0.00     0.002 C 
BRANCH  15  16
HETATM   16  C   UNK N   1      43.847  25.378   0.151  0.00  0.00     0.010 C 
BRANCH  16  17
HETATM   17  C   UNK N   1      45.098  24.679   0.680  0.00  0.00     0.110 C 
BRANCH  17  18
HETATM   18  C   UNK N   1      45.610  25.311   1.932  0.00  0.00     0.139 C 
HETATM   19  O   UNK N   1      45.252  26.438   2.230  0.00  0.00    -0.650 OA
BRANCH  18  20
HETATM   20  O   UNK N   1      46.488  24.657   2.717  0.00  0.00    -0.776 OA
HETATM   21  H   UNK N   1      46.806  23.791   2.553  0.00  0.00     0.167 HD
ENDBRANCH  18  20
ENDBRANCH  17  18
ENDBRANCH  16  17
ENDBRANCH  15  16
ENDBRANCH  14  15
ENDBRANCH   3  14
TORSDOF 6
ENDMDL
MODEL 6
REMARK VINA RESULT:      -5.2      7.542      8.377
REMARK  6 active torsions:
REMARK  status: ('A' for Active; 'I' for Inactive)
REMARK    1  A    between atoms: C_2  and  C_1 
REMARK    2  A    between atoms: C_3  and  C_1 
REMARK    3  A    between atoms: C_4  and  C_2 
REMARK    4  A    between atoms: C_7  and  C_3 
REMARK    5  A    between atoms: C_8  and  C_4 
REMARK    6  A    between atoms: O_16  and  C_8 
ROOT
HETATM    1  C   UNK N   1      26.568  20.499   3.482  0.00  0.00     0.102 C 
HETATM    2  C   UNK N   1      26.916  19.130   4.003  0.00  0.00     0.133 C 
HETATM    3  C   UNK N   1      24.559  18.727   3.887  0.00  0.00     0.072 C 
HETATM    4  C   UNK N   1      25.710  18.785   4.859  0.00  0.00     0.137 C 
HETATM    5  C   UNK N   1      27.550  17.866   5.764  0.00  0.00     0.668 C 
HETATM    6  N   UNK N   1      28.256  17.365   6.712  0.00  0.00    -0.235 N 
ATOM      7  HN  UNK N   1      29.261  17.242   6.588  1.00  0.00     0.174 HD
HETATM    8  N   UNK N   1      28.008  18.888   4.913  0.00  0.00    -0.219 N 
HETATM    9  N   UNK N   1      26.167  17.669   5.645  0.00  0.00    -0.219 N 
HETATM   10  S   UNK N   1      24.807  20.287   2.916  0.00  0.00    -0.160 SA
HETATM   11  H   UNK N   1      27.829  17.097   7.558  0.00  0.00     0.174 HD
HETATM   12  H   UNK N   1      28.882  19.340   4.935  0.00  0.00     0.178 HD
HETATM   13  H   UNK N   1      25.628  16.932   6.016  0.00  0.00     0.178 HD
ENDROOT
BRANCH   3  14
HETATM   14  C   UNK N   1      23.184  18.651   4.557  0.00  0.00     0.017 C 
BRANCH  14  15
HETATM   15  C   UNK N   1      22.065  18.021   3.718  0.00  0.00     0.002 C 
BRANCH  15  16
HETATM   16  C   UNK N   1      20.860  18.949   3.528  0.00  0.00     0.010 C 
BRANCH  16  17
HETATM   17  C   UNK N   1      20.545  19.243   2.062  0.00  0.00     0.110 C 
BRANCH  17  18
HETATM   18  C   UNK N   1      21.098  20.558   1.621  0.00  0.00     0.139 C 
HETATM   19  O   UNK N   1      21.303  20.759   0.437  0.00  0.00    -0.650 OA
BRANCH  18  20
HETATM   20  O   UNK N   1      21.399  21.509   2.526  0.00  0.00    -0.776 OA
HETATM   21  H   UNK N   1      21.250  22.426   2.405  0.00  0.00     0.167 HD
ENDBRANCH  18  20
ENDBRANCH  17  18
ENDBRANCH  16  17
ENDBRANCH  15  16
ENDBRANCH  14  15
ENDBRANCH   3  14
TORSDOF 6
ENDMDL
MODEL 7
REMARK VINA RESULT:      -5.1      9.722     11.737
REMARK  6 active torsions:
REMARK  status: ('A' for Active; 'I' for Inactive)
REMARK    1  A    between atoms: C_2  and  C_1 
REMARK    2  A    between atoms: C_3  and  C_1 
REMARK    3  A    between atoms: C_4  and  C_2 
REMARK    4  A    between atoms: C_7  and  C_3 
REMARK    5  A    between atoms: C_8  and  C_4 
REMARK    6  A    between atoms: O_16  and  C_8 
ROOT
HETATM    1  C   UNK N   1      28.039  18.971   7.803  0.00  0.00     0.102 C 
HETATM    2  C   UNK N   1      27.538  18.743   6.401  0.00  0.00     0.133 C 
HETATM    3  C   UNK N   1      29.422  17.280   6.201  0.00  0.00     0.072 C 
HETATM    4  C   UNK N   1      28.825  18.536   5.619  0.00  0.00     0.137 C 
HETATM    5  C   UNK N   1      27.312  19.552   4.304  0.00  0.00     0.668 C 
HETATM    6  N   UNK N   1      26.927  20.266   3.309  0.00  0.00    -0.235 N 
ATOM      7  HN  UNK N   1      25.968  20.611   3.272  1.00  0.00     0.174 HD
HETATM    8  N   UNK N   1      26.879  19.765   5.625  0.00  0.00    -0.219 N 
HETATM    9  N   UNK N   1      28.410  18.680   4.249  0.00  0.00    -0.219 N 
HETATM   10  S   UNK N   1      29.282  17.603   8.021  0.00  0.00    -0.160 SA
HETATM   11  H   UNK N   1      27.554  20.479   2.581  0.00  0.00     0.174 HD
HETATM   12  H   UNK N   1      26.261  20.459   5.949  0.00  0.00     0.178 HD
HETATM   13  H   UNK N   1      28.807  18.260   3.451  0.00  0.00     0.178 HD
ENDROOT
BRANCH   3  14
HETATM   14  C   UNK N   1      30.861  17.011   5.748  0.00  0.00     0.017 C 
BRANCH  14  15
HETATM   15  C   UNK N   1      31.945  17.210   6.816  0.00  0.00     0.002 C 
BRANCH  15  16
HETATM   16  C   UNK N   1      33.335  17.466   6.222  0.00  0.00     0.010 C 
BRANCH  16  17
HETATM   17  C   UNK N   1      34.476  17.093   7.166  0.00  0.00     0.110 C 
BRANCH  17  18
HETATM   18  C   UNK N   1      34.495  17.947   8.391  0.00  0.00     0.139 C 
HETATM   19  O   UNK N   1      34.914  19.089   8.325  0.00  0.00    -0.650 OA
BRANCH  18  20
HETATM   20  O   UNK N   1      34.080  17.451   9.573  0.00  0.00    -0.776 OA
HETATM   21  H   UNK N   1      33.301  16.945   9.695  0.00  0.00     0.167 HD
ENDBRANCH  18  20
ENDBRANCH  17  18
ENDBRANCH  16  17
ENDBRANCH  15  16
ENDBRANCH  14  15
ENDBRANCH   3  14
TORSDOF 6
ENDMDL
MODEL 8
REMARK VINA RESULT:      -5.1     13.975     14.941
REMARK  6 active torsions:
REMARK  status: ('A' for Active; 'I' for Inactive)
REMARK    1  A    between atoms: C_2  and  C_1 
REMARK    2  A    between atoms: C_3  and  C_1 
REMARK    3  A    between atoms: C_4  and  C_2 
REMARK    4  A    between atoms: C_7  and  C_3 
REMARK    5  A    between atoms: C_8  and  C_4 
REMARK    6  A    between atoms: O_16  and  C_8 
ROOT
HETATM    1  C   UNK N   1      34.586  11.199  10.931  0.00  0.00     0.102 C 
HETATM    2  C   UNK N   1      35.567  12.121  11.606  0.00  0.00     0.133 C 
HETATM    3  C   UNK N   1      34.817  11.083  13.628  0.00  0.00     0.072 C 
HETATM    4  C   UNK N   1      34.886  12.418  12.931  0.00  0.00     0.137 C 
HETATM    5  C   UNK N   1      36.056  14.221  12.277  0.00  0.00     0.668 C 
HETATM    6  N   UNK N   1      36.354  15.469  12.252  0.00  0.00    -0.235 N 
ATOM      7  HN  UNK N   1      36.976  15.829  11.527  1.00  0.00     0.174 HD
HETATM    8  N   UNK N   1      35.865  13.445  11.119  0.00  0.00    -0.219 N 
HETATM    9  N   UNK N   1      35.608  13.558  13.429  0.00  0.00    -0.219 N 
HETATM   10  S   UNK N   1      34.169   9.986  12.280  0.00  0.00    -0.160 SA
HETATM   11  H   UNK N   1      35.985  16.080  12.930  0.00  0.00     0.174 HD
HETATM   12  H   UNK N   1      35.921  13.742  10.183  0.00  0.00     0.178 HD
HETATM   13  H   UNK N   1      35.755  13.816  14.369  0.00  0.00     0.178 HD
ENDROOT
BRANCH   3  14
HETATM   14  C   UNK N   1      33.932  11.082  14.879  0.00  0.00     0.017 C 
BRANCH  14  15
HETATM   15  C   UNK N   1      34.633  10.712  16.192  0.00  0.00     0.002 C 
BRANCH  15  16
HETATM   16  C   UNK N   1      35.555  11.819  16.715  0.00  0.00     0.010 C 
BRANCH  16  17
HETATM   17  C   UNK N   1      34.825  13.128  17.010  0.00  0.00     0.110 C 
BRANCH  17  18
HETATM   18  C   UNK N   1      35.251  13.732  18.307  0.00  0.00     0.139 C 
HETATM   19  O   UNK N   1      35.520  14.919  18.362  0.00  0.00    -0.650 OA
BRANCH  18  20
HETATM   20  O   UNK N   1      35.370  12.965  19.409  0.00  0.00    -0.776 OA
HETATM   21  H   UNK N   1      34.882  13.089  20.199  0.00  0.00     0.167 HD
ENDBRANCH  18  20
ENDBRANCH  17  18
ENDBRANCH  16  17
ENDBRANCH  15  16
ENDBRANCH  14  15
ENDBRANCH   3  14
TORSDOF 6
ENDMDL
MODEL 9
REMARK VINA RESULT:      -5.1      8.817     10.097
REMARK  6 active torsions:
REMARK  status: ('A' for Active; 'I' for Inactive)
REMARK    1  A    between atoms: C_2  and  C_1 
REMARK    2  A    between atoms: C_3  and  C_1 
REMARK    3  A    between atoms: C_4  and  C_2 
REMARK    4  A    between atoms: C_7  and  C_3 
REMARK    5  A    between atoms: C_8  and  C_4 
REMARK    6  A    between atoms: O_16  and  C_8 
ROOT
HETATM    1  C   UNK N   1      33.232  17.587   5.686  0.00  0.00     0.102 C 
HETATM    2  C   UNK N   1      33.539  16.858   6.969  0.00  0.00     0.133 C 
HETATM    3  C   UNK N   1      31.173  16.510   7.079  0.00  0.00     0.072 C 
HETATM    4  C   UNK N   1      32.316  17.157   7.820  0.00  0.00     0.137 C 
HETATM    5  C   UNK N   1      34.123  16.998   9.146  0.00  0.00     0.668 C 
HETATM    6  N   UNK N   1      34.806  17.205  10.212  0.00  0.00    -0.235 N 
ATOM      7  HN  UNK N   1      35.809  17.016  10.219  1.00  0.00     0.174 HD
HETATM    8  N   UNK N   1      34.616  17.236   7.850  0.00  0.00    -0.219 N 
HETATM    9  N   UNK N   1      32.736  16.791   9.147  0.00  0.00    -0.219 N 
HETATM   10  S   UNK N   1      31.471  17.089   5.344  0.00  0.00    -0.160 SA
HETATM   11  H   UNK N   1      34.365  17.544  11.025  0.00  0.00     0.174 HD
HETATM   12  H   UNK N   1      35.501  17.585   7.600  0.00  0.00     0.178 HD
HETATM   13  H   UNK N   1      32.174  16.467   9.889  0.00  0.00     0.178 HD
ENDROOT
BRANCH   3  14
HETATM   14  C   UNK N   1      29.790  16.899   7.612  0.00  0.00     0.017 C 
BRANCH  14  15
HETATM   15  C   UNK N   1      29.752  18.116   8.545  0.00  0.00     0.002 C 
BRANCH  15  16
HETATM   16  C   UNK N   1      28.505  18.986   8.349  0.00  0.00     0.010 C 
BRANCH  16  17
HETATM   17  C   UNK N   1      28.061  19.090   6.891  0.00  0.00     0.110 C 
BRANCH  17  18
HETATM   18  C   UNK N   1      27.228  20.303   6.641  0.00  0.00     0.139 C 
HETATM   19  O   UNK N   1      27.501  21.043   5.712  0.00  0.00    -0.650 OA
BRANCH  18  20
HETATM   20  O   UNK N   1      26.196  20.600   7.454  0.00  0.00    -0.776 OA
HETATM   21  H   UNK N   1      25.622  21.332   7.341  0.00  0.00     0.167 HD
ENDBRANCH  18  20
ENDBRANCH  17  18
ENDBRANCH  16  17
ENDBRANCH  15  16
ENDBRANCH  14  15
ENDBRANCH   3  14
TORSDOF 6
ENDMDL
