MODEL 1
REMARK VINA RESULT:      -4.9      0.000      0.000
REMARK  10 active torsions:
REMARK  status: ('A' for Active; 'I' for Inactive)
REMARK    1  A    between atoms: C_2  and  N_1 
REMARK    2  A    between atoms: C_2  and  C_3 
REMARK    3  A    between atoms: C_2  and  C_11 
REMARK    4  A    between atoms: C_3  and  C_4 
REMARK    5  A    between atoms: C_4  and  C_5 
REMARK    6  A    between atoms: C_5  and  C_6 
REMARK    7  A    between atoms: C_6  and  N_7 
REMARK    8  A    between atoms: C_6  and  C_8 
REMARK    9  A    between atoms: C_8  and  O_9 
REMARK   10  A    between atoms: C_11  and  O_12 
ROOT
HETATM    1  C   UNK N   1      34.882  15.108   9.397  0.00  0.00     0.005 C 
ENDROOT
BRANCH   1   2
HETATM    2  C   UNK N   1      33.906  15.811   8.463  0.00  0.00     0.035 C 
BRANCH   2   3
HETATM    3  C   UNK N   1      33.720  17.267   8.877  0.00  0.00     0.173 C 
BRANCH   3   4
HETATM    4  N   UNK N   1      32.305  17.601   8.831  0.00  0.00    -0.418 N 
HETATM    5  H   UNK N   1      31.801  17.850   9.682  0.00  0.00     0.150 HD
HETATM    6  H   UNK N   1      31.812  17.586   7.939  0.00  0.00     0.150 HD
ENDBRANCH   3   4
BRANCH   3   7
HETATM    7  C   UNK N   1      34.506  18.201   7.992  0.00  0.00     0.163 C 
HETATM    8  O   UNK N   1      34.494  18.050   6.782  0.00  0.00    -0.648 OA
BRANCH   7   9
HETATM    9  O   UNK N   1      35.246  19.193   8.529  0.00  0.00    -0.775 OA
HETATM   10  H   UNK N   1      35.886  19.034   9.195  0.00  0.00     0.167 HD
ENDBRANCH   7   9
ENDBRANCH   3   7
ENDBRANCH   2   3
ENDBRANCH   1   2
BRANCH   1  11
HETATM   11  C   UNK N   1      34.417  15.260  10.837  0.00  0.00     0.035 C 
BRANCH  11  12
HETATM   12  C   UNK N   1      35.608  15.454  11.766  0.00  0.00     0.173 C 
BRANCH  12  13
HETATM   13  N   UNK N   1      36.805  15.668  10.970  0.00  0.00    -0.418 N 
HETATM   14  H   UNK N   1      37.719  15.731  11.418  0.00  0.00     0.150 HD
HETATM   15  H   UNK N   1      36.731  15.755   9.957  0.00  0.00     0.150 HD
ENDBRANCH  12  13
BRANCH  12  16
HETATM   16  C   UNK N   1      35.787  14.267  12.676  0.00  0.00     0.163 C 
HETATM   17  O   UNK N   1      34.811  13.688  13.126  0.00  0.00    -0.648 OA
BRANCH  16  18
HETATM   18  O   UNK N   1      37.022  13.845  13.017  0.00  0.00    -0.775 OA
HETATM   19  H   UNK N   1      37.357  13.020  12.727  0.00  0.00     0.167 HD
ENDBRANCH  16  18
ENDBRANCH  12  16
ENDBRANCH  11  12
ENDBRANCH   1  11
TORSDOF 10
ENDMDL
MODEL 2
REMARK VINA RESULT:      -4.8      3.749      6.107
REMARK  10 active torsions:
REMARK  status: ('A' for Active; 'I' for Inactive)
REMARK    1  A    between atoms: C_2  and  N_1 
REMARK    2  A    between atoms: C_2  and  C_3 
REMARK    3  A    between atoms: C_2  and  C_11 
REMARK    4  A    between atoms: C_3  and  C_4 
REMARK    5  A    between atoms: C_4  and  C_5 
REMARK    6  A    between atoms: C_5  and  C_6 
REMARK    7  A    between atoms: C_6  and  N_7 
REMARK    8  A    between atoms: C_6  and  C_8 
REMARK    9  A    between atoms: C_8  and  O_9 
REMARK   10  A    between atoms: C_11  and  O_12 
ROOT
HETATM    1  C   UNK N   1      31.526  17.374   7.273  0.00  0.00     0.005 C 
ENDROOT
BRANCH   1   2
HETATM    2  C   UNK N   1      32.434  18.003   8.321  0.00  0.00     0.035 C 
BRANCH   2   3
HETATM    3  C   UNK N   1      33.641  17.111   8.592  0.00  0.00     0.173 C 
BRANCH   3   4
HETATM    4  N   UNK N   1      33.290  16.125   9.603  0.00  0.00    -0.418 N 
HETATM    5  H   UNK N   1      34.002  15.521  10.011  0.00  0.00     0.150 HD
HETATM    6  H   UNK N   1      32.320  16.039   9.907  0.00  0.00     0.150 HD
ENDBRANCH   3   4
BRANCH   3   7
HETATM    7  C   UNK N   1      34.837  17.913   9.037  0.00  0.00     0.163 C 
HETATM    8  O   UNK N   1      35.491  17.550  10.000  0.00  0.00    -0.648 OA
BRANCH   7   9
HETATM    9  O   UNK N   1      35.180  19.046   8.392  0.00  0.00    -0.775 OA
HETATM   10  H   UNK N   1      35.079  19.893   8.781  0.00  0.00     0.167 HD
ENDBRANCH   7   9
ENDBRANCH   3   7
ENDBRANCH   2   3
ENDBRANCH   1   2
BRANCH   1  11
HETATM   11  C   UNK N   1      30.267  16.839   7.938  0.00  0.00     0.035 C 
BRANCH  11  12
HETATM   12  C   UNK N   1      29.801  17.783   9.039  0.00  0.00     0.173 C 
BRANCH  12  13
HETATM   13  N   UNK N   1      29.650  17.036  10.277  0.00  0.00    -0.418 N 
HETATM   14  H   UNK N   1      29.487  16.030  10.256  0.00  0.00     0.150 HD
HETATM   15  H   UNK N   1      29.709  17.522  11.171  0.00  0.00     0.150 HD
ENDBRANCH  12  13
BRANCH  12  16
HETATM   16  C   UNK N   1      28.504  18.454   8.669  0.00  0.00     0.163 C 
HETATM   17  O   UNK N   1      28.459  19.211   7.712  0.00  0.00    -0.648 OA
BRANCH  16  18
HETATM   18  O   UNK N   1      27.390  18.240   9.396  0.00  0.00    -0.775 OA
HETATM   19  H   UNK N   1      27.356  18.431  10.313  0.00  0.00     0.167 HD
ENDBRANCH  16  18
ENDBRANCH  12  16
ENDBRANCH  11  12
ENDBRANCH   1  11
TORSDOF 10
ENDMDL
MODEL 3
REMARK VINA RESULT:      -4.8      3.836      6.110
REMARK  10 active torsions:
REMARK  status: ('A' for Active; 'I' for Inactive)
REMARK    1  A    between atoms: C_2  and  N_1 
REMARK    2  A    between atoms: C_2  and  C_3 
REMARK    3  A    between atoms: C_2  and  C_11 
REMARK    4  A    between atoms: C_3  and  C_4 
REMARK    5  A    between atoms: C_4  and  C_5 
REMARK    6  A    between atoms: C_5  and  C_6 
REMARK    7  A    between atoms: C_6  and  N_7 
REMARK    8  A    between atoms: C_6  and  C_8 
REMARK    9  A    between atoms: C_8  and  O_9 
REMARK   10  A    between atoms: C_11  and  O_12 
ROOT
HETATM    1  C   UNK N   1      31.544  16.656   7.892  0.00  0.00     0.005 C 
ENDROOT
BRANCH   1   2
HETATM    2  C   UNK N   1      32.376  17.372   8.948  0.00  0.00     0.035 C 
BRANCH   2   3
HETATM    3  C   UNK N   1      33.862  17.106   8.733  0.00  0.00     0.173 C 
BRANCH   3   4
HETATM    4  N   UNK N   1      34.527  17.040  10.025  0.00  0.00    -0.418 N 
HETATM    5  H   UNK N   1      35.527  17.220  10.106  0.00  0.00     0.150 HD
HETATM    6  H   UNK N   1      33.987  16.811  10.859  0.00  0.00     0.150 HD
ENDBRANCH   3   4
BRANCH   3   7
HETATM    7  C   UNK N   1      34.498  18.166   7.871  0.00  0.00     0.163 C 
HETATM    8  O   UNK N   1      34.451  18.073   6.655  0.00  0.00    -0.648 OA
BRANCH   7   9
HETATM    9  O   UNK N   1      35.142  19.209   8.432  0.00  0.00    -0.775 OA
HETATM   10  H   UNK N   1      35.942  19.104   8.909  0.00  0.00     0.167 HD
ENDBRANCH   7   9
ENDBRANCH   3   7
ENDBRANCH   2   3
ENDBRANCH   1   2
BRANCH   1  11
HETATM   11  C   UNK N   1      30.408  17.558   7.434  0.00  0.00     0.035 C 
BRANCH  11  12
HETATM   12  C   UNK N   1      29.091  17.116   8.057  0.00  0.00     0.173 C 
BRANCH  12  13
HETATM   13  N   UNK N   1      28.093  16.965   7.011  0.00  0.00    -0.418 N 
HETATM   14  H   UNK N   1      28.269  17.326   6.073  0.00  0.00     0.150 HD
HETATM   15  H   UNK N   1      27.212  16.494   7.215  0.00  0.00     0.150 HD
ENDBRANCH  12  13
BRANCH  12  16
HETATM   16  C   UNK N   1      28.619  18.103   9.093  0.00  0.00     0.163 C 
HETATM   17  O   UNK N   1      29.429  18.791   9.695  0.00  0.00    -0.648 OA
BRANCH  16  18
HETATM   18  O   UNK N   1      27.307  18.225   9.377  0.00  0.00    -0.775 OA
HETATM   19  H   UNK N   1      26.832  17.543   9.809  0.00  0.00     0.167 HD
ENDBRANCH  16  18
ENDBRANCH  12  16
ENDBRANCH  11  12
ENDBRANCH   1  11
TORSDOF 10
ENDMDL
MODEL 4
REMARK VINA RESULT:      -4.7     12.740     14.546
REMARK  10 active torsions:
REMARK  status: ('A' for Active; 'I' for Inactive)
REMARK    1  A    between atoms: C_2  and  N_1 
REMARK    2  A    between atoms: C_2  and  C_3 
REMARK    3  A    between atoms: C_2  and  C_11 
REMARK    4  A    between atoms: C_3  and  C_4 
REMARK    5  A    between atoms: C_4  and  C_5 
REMARK    6  A    between atoms: C_5  and  C_6 
REMARK    7  A    between atoms: C_6  and  N_7 
REMARK    8  A    between atoms: C_6  and  C_8 
REMARK    9  A    between atoms: C_8  and  O_9 
REMARK   10  A    between atoms: C_11  and  O_12 
ROOT
HETATM    1  C   UNK N   1      21.308  13.158   9.387  0.00  0.00     0.005 C 
ENDROOT
BRANCH   1   2
HETATM    2  C   UNK N   1      22.654  13.093  10.096  0.00  0.00     0.035 C 
BRANCH   2   3
HETATM    3  C   UNK N   1      22.698  11.913  11.060  0.00  0.00     0.173 C 
BRANCH   3   4
HETATM    4  N   UNK N   1      21.411  11.793  11.729  0.00  0.00    -0.418 N 
HETATM    5  H   UNK N   1      20.864  12.622  11.958  0.00  0.00     0.150 HD
HETATM    6  H   UNK N   1      21.054  10.869  11.972  0.00  0.00     0.150 HD
ENDBRANCH   3   4
BRANCH   3   7
HETATM    7  C   UNK N   1      23.803  12.064  12.075  0.00  0.00     0.163 C 
HETATM    8  O   UNK N   1      23.548  12.006  13.267  0.00  0.00    -0.648 OA
BRANCH   7   9
HETATM    9  O   UNK N   1      25.072  12.286  11.678  0.00  0.00    -0.775 OA
HETATM   10  H   UNK N   1      25.809  12.063  12.212  0.00  0.00     0.167 HD
ENDBRANCH   7   9
ENDBRANCH   3   7
ENDBRANCH   2   3
ENDBRANCH   1   2
BRANCH   1  11
HETATM   11  C   UNK N   1      20.711  14.547   9.542  0.00  0.00     0.035 C 
BRANCH  11  12
HETATM   12  C   UNK N   1      20.447  15.172   8.178  0.00  0.00     0.173 C 
BRANCH  12  13
HETATM   13  N   UNK N   1      21.715  15.398   7.503  0.00  0.00    -0.418 N 
HETATM   14  H   UNK N   1      21.838  16.206   6.893  0.00  0.00     0.150 HD
HETATM   15  H   UNK N   1      22.486  14.746   7.642  0.00  0.00     0.150 HD
ENDBRANCH  12  13
BRANCH  12  16
HETATM   16  C   UNK N   1      19.684  16.464   8.309  0.00  0.00     0.163 C 
HETATM   17  O   UNK N   1      20.273  17.497   8.587  0.00  0.00    -0.648 OA
BRANCH  16  18
HETATM   18  O   UNK N   1      18.347  16.490   8.138  0.00  0.00    -0.775 OA
HETATM   19  H   UNK N   1      17.960  16.519   7.284  0.00  0.00     0.167 HD
ENDBRANCH  16  18
ENDBRANCH  12  16
ENDBRANCH  11  12
ENDBRANCH   1  11
TORSDOF 10
ENDMDL
MODEL 5
REMARK VINA RESULT:      -4.7      1.751      5.005
REMARK  10 active torsions:
REMARK  status: ('A' for Active; 'I' for Inactive)
REMARK    1  A    between atoms: C_2  and  N_1 
REMARK    2  A    between atoms: C_2  and  C_3 
REMARK    3  A    between atoms: C_2  and  C_11 
REMARK    4  A    between atoms: C_3  and  C_4 
REMARK    5  A    between atoms: C_4  and  C_5 
REMARK    6  A    between atoms: C_5  and  C_6 
REMARK    7  A    between atoms: C_6  and  N_7 
REMARK    8  A    between atoms: C_6  and  C_8 
REMARK    9  A    between atoms: C_8  and  O_9 
REMARK   10  A    between atoms: C_11  and  O_12 
ROOT
HETATM    1  C   UNK N   1      34.142  15.005   8.518  0.00  0.00     0.005 C 
ENDROOT
BRANCH   1   2
HETATM    2  C   UNK N   1      33.824  14.739   9.983  0.00  0.00     0.035 C 
BRANCH   2   3
HETATM    3  C   UNK N   1      35.107  14.546  10.785  0.00  0.00     0.173 C 
BRANCH   3   4
HETATM    4  N   UNK N   1      34.781  13.959  12.075  0.00  0.00    -0.418 N 
HETATM    5  H   UNK N   1      35.209  14.310  12.931  0.00  0.00     0.150 HD
HETATM    6  H   UNK N   1      34.116  13.186  12.123  0.00  0.00     0.150 HD
ENDBRANCH   3   4
BRANCH   3   7
HETATM    7  C   UNK N   1      35.846  15.847  10.974  0.00  0.00     0.163 C 
HETATM    8  O   UNK N   1      35.232  16.860  11.264  0.00  0.00    -0.648 OA
BRANCH   7   9
HETATM    9  O   UNK N   1      37.182  15.906  10.804  0.00  0.00    -0.775 OA
HETATM   10  H   UNK N   1      37.577  15.915   9.954  0.00  0.00     0.167 HD
ENDBRANCH   7   9
ENDBRANCH   3   7
ENDBRANCH   2   3
ENDBRANCH   1   2
BRANCH   1  11
HETATM   11  C   UNK N   1      33.133  15.986   7.942  0.00  0.00     0.035 C 
BRANCH  11  12
HETATM   12  C   UNK N   1      33.303  17.361   8.574  0.00  0.00     0.173 C 
BRANCH  12  13
HETATM   13  N   UNK N   1      32.009  18.019   8.644  0.00  0.00    -0.418 N 
HETATM   14  H   UNK N   1      31.329  17.902   7.893  0.00  0.00     0.150 HD
HETATM   15  H   UNK N   1      31.779  18.601   9.449  0.00  0.00     0.150 HD
ENDBRANCH  12  13
BRANCH  12  16
HETATM   16  C   UNK N   1      34.279  18.203   7.794  0.00  0.00     0.163 C 
HETATM   17  O   UNK N   1      34.391  18.049   6.588  0.00  0.00    -0.648 OA
BRANCH  16  18
HETATM   18  O   UNK N   1      35.047  19.119   8.418  0.00  0.00    -0.775 OA
HETATM   19  H   UNK N   1      35.708  18.869   9.033  0.00  0.00     0.167 HD
ENDBRANCH  16  18
ENDBRANCH  12  16
ENDBRANCH  11  12
ENDBRANCH   1  11
TORSDOF 10
ENDMDL
MODEL 6
REMARK VINA RESULT:      -4.6      1.076      5.902
REMARK  10 active torsions:
REMARK  status: ('A' for Active; 'I' for Inactive)
REMARK    1  A    between atoms: C_2  and  N_1 
REMARK    2  A    between atoms: C_2  and  C_3 
REMARK    3  A    between atoms: C_2  and  C_11 
REMARK    4  A    between atoms: C_3  and  C_4 
REMARK    5  A    between atoms: C_4  and  C_5 
REMARK    6  A    between atoms: C_5  and  C_6 
REMARK    7  A    between atoms: C_6  and  N_7 
REMARK    8  A    between atoms: C_6  and  C_8 
REMARK    9  A    between atoms: C_8  and  O_9 
REMARK   10  A    between atoms: C_11  and  O_12 
ROOT
HETATM    1  C   UNK N   1      34.988  15.223  10.029  0.00  0.00     0.005 C 
ENDROOT
BRANCH   1   2
HETATM    2  C   UNK N   1      34.786  14.701  11.445  0.00  0.00     0.035 C 
BRANCH   2   3
HETATM    3  C   UNK N   1      36.098  14.728  12.221  0.00  0.00     0.173 C 
BRANCH   3   4
HETATM    4  N   UNK N   1      37.128  14.058  11.443  0.00  0.00    -0.418 N 
HETATM    5  H   UNK N   1      37.539  14.507  10.626  0.00  0.00     0.150 HD
HETATM    6  H   UNK N   1      37.442  13.127  11.719  0.00  0.00     0.150 HD
ENDBRANCH   3   4
BRANCH   3   7
HETATM    7  C   UNK N   1      35.958  14.077  13.574  0.00  0.00     0.163 C 
HETATM    8  O   UNK N   1      34.919  13.514  13.875  0.00  0.00    -0.648 OA
BRANCH   7   9
HETATM    9  O   UNK N   1      36.966  14.133  14.468  0.00  0.00    -0.775 OA
HETATM   10  H   UNK N   1      37.782  14.551  14.275  0.00  0.00     0.167 HD
ENDBRANCH   7   9
ENDBRANCH   3   7
ENDBRANCH   2   3
ENDBRANCH   1   2
BRANCH   1  11
HETATM   11  C   UNK N   1      34.975  16.744  10.034  0.00  0.00     0.035 C 
BRANCH  11  12
HETATM   12  C   UNK N   1      33.956  17.273   9.035  0.00  0.00     0.173 C 
BRANCH  12  13
HETATM   13  N   UNK N   1      33.373  16.157   8.308  0.00  0.00    -0.418 N 
HETATM   14  H   UNK N   1      33.907  15.679   7.583  0.00  0.00     0.150 HD
HETATM   15  H   UNK N   1      32.426  15.850   8.527  0.00  0.00     0.150 HD
ENDBRANCH  12  13
BRANCH  12  16
HETATM   16  C   UNK N   1      34.588  18.250   8.078  0.00  0.00     0.163 C 
HETATM   17  O   UNK N   1      35.267  19.171   8.504  0.00  0.00    -0.648 OA
BRANCH  16  18
HETATM   18  O   UNK N   1      34.396  18.130   6.749  0.00  0.00    -0.775 OA
HETATM   19  H   UNK N   1      33.716  17.588   6.397  0.00  0.00     0.167 HD
ENDBRANCH  16  18
ENDBRANCH  12  16
ENDBRANCH  11  12
ENDBRANCH   1  11
TORSDOF 10
ENDMDL
MODEL 7
REMARK VINA RESULT:      -4.6     10.420     12.367
REMARK  10 active torsions:
REMARK  status: ('A' for Active; 'I' for Inactive)
REMARK    1  A    between atoms: C_2  and  N_1 
REMARK    2  A    between atoms: C_2  and  C_3 
REMARK    3  A    between atoms: C_2  and  C_11 
REMARK    4  A    between atoms: C_3  and  C_4 
REMARK    5  A    between atoms: C_4  and  C_5 
REMARK    6  A    between atoms: C_5  and  C_6 
REMARK    7  A    between atoms: C_6  and  N_7 
REMARK    8  A    between atoms: C_6  and  C_8 
REMARK    9  A    between atoms: C_8  and  O_9 
REMARK   10  A    between atoms: C_11  and  O_12 
ROOT
HETATM    1  C   UNK N   1      42.521  22.176   1.234  0.00  0.00     0.005 C 
ENDROOT
BRANCH   1   2
HETATM    2  C   UNK N   1      43.508  23.065   1.978  0.00  0.00     0.035 C 
BRANCH   2   3
HETATM    3  C   UNK N   1      43.537  22.711   3.461  0.00  0.00     0.173 C 
BRANCH   3   4
HETATM    4  N   UNK N   1      43.588  23.936   4.244  0.00  0.00    -0.418 N 
HETATM    5  H   UNK N   1      42.777  24.247   4.778  0.00  0.00     0.150 HD
HETATM    6  H   UNK N   1      44.444  24.489   4.259  0.00  0.00     0.150 HD
ENDBRANCH   3   4
BRANCH   3   7
HETATM    7  C   UNK N   1      44.710  21.825   3.799  0.00  0.00     0.163 C 
HETATM    8  O   UNK N   1      44.617  20.616   3.673  0.00  0.00    -0.648 OA
BRANCH   7   9
HETATM    9  O   UNK N   1      45.858  22.358   4.264  0.00  0.00    -0.775 OA
HETATM   10  H   UNK N   1      46.412  21.902   4.867  0.00  0.00     0.167 HD
ENDBRANCH   7   9
ENDBRANCH   3   7
ENDBRANCH   2   3
ENDBRANCH   1   2
BRANCH   1  11
HETATM   11  C   UNK N   1      41.227  22.068   2.026  0.00  0.00     0.035 C 
BRANCH  11  12
HETATM   12  C   UNK N   1      40.679  20.648   1.964  0.00  0.00     0.173 C 
BRANCH  12  13
HETATM   13  N   UNK N   1      39.227  20.697   1.944  0.00  0.00    -0.418 N 
HETATM   14  H   UNK N   1      38.679  19.885   2.229  0.00  0.00     0.150 HD
HETATM   15  H   UNK N   1      38.753  21.549   1.644  0.00  0.00     0.150 HD
ENDBRANCH  12  13
BRANCH  12  16
HETATM   16  C   UNK N   1      41.162  19.827   3.131  0.00  0.00     0.163 C 
HETATM   17  O   UNK N   1      40.547  19.844   4.186  0.00  0.00    -0.648 OA
BRANCH  16  18
HETATM   18  O   UNK N   1      42.280  19.081   3.029  0.00  0.00    -0.775 OA
HETATM   19  H   UNK N   1      42.735  18.986   2.216  0.00  0.00     0.167 HD
ENDBRANCH  16  18
ENDBRANCH  12  16
ENDBRANCH  11  12
ENDBRANCH   1  11
TORSDOF 10
ENDMDL
MODEL 8
REMARK VINA RESULT:      -4.6      4.242      5.762
REMARK  10 active torsions:
REMARK  status: ('A' for Active; 'I' for Inactive)
REMARK    1  A    between atoms: C_2  and  N_1 
REMARK    2  A    between atoms: C_2  and  C_3 
REMARK    3  A    between atoms: C_2  and  C_11 
REMARK    4  A    between atoms: C_3  and  C_4 
REMARK    5  A    between atoms: C_4  and  C_5 
REMARK    6  A    between atoms: C_5  and  C_6 
REMARK    7  A    between atoms: C_6  and  N_7 
REMARK    8  A    between atoms: C_6  and  C_8 
REMARK    9  A    between atoms: C_8  and  O_9 
REMARK   10  A    between atoms: C_11  and  O_12 
ROOT
HETATM    1  C   UNK N   1      30.602  17.263   8.803  0.00  0.00     0.005 C 
ENDROOT
BRANCH   1   2
HETATM    2  C   UNK N   1      29.510  17.481   7.763  0.00  0.00     0.035 C 
BRANCH   2   3
HETATM    3  C   UNK N   1      28.675  18.709   8.110  0.00  0.00     0.173 C 
BRANCH   3   4
HETATM    4  N   UNK N   1      27.745  18.370   9.175  0.00  0.00    -0.418 N 
HETATM    5  H   UNK N   1      27.368  19.093   9.787  0.00  0.00     0.150 HD
HETATM    6  H   UNK N   1      27.468  17.398   9.311  0.00  0.00     0.150 HD
ENDBRANCH   3   4
BRANCH   3   7
HETATM    7  C   UNK N   1      27.927  19.230   6.909  0.00  0.00     0.163 C 
HETATM    8  O   UNK N   1      28.288  18.923   5.785  0.00  0.00    -0.648 OA
BRANCH   7   9
HETATM    9  O   UNK N   1      26.872  20.055   7.064  0.00  0.00    -0.775 OA
HETATM   10  H   UNK N   1      26.959  20.914   7.429  0.00  0.00     0.167 HD
ENDBRANCH   7   9
ENDBRANCH   3   7
ENDBRANCH   2   3
ENDBRANCH   1   2
BRANCH   1  11
HETATM   11  C   UNK N   1      31.867  17.994   8.382  0.00  0.00     0.035 C 
BRANCH  11  12
HETATM   12  C   UNK N   1      33.054  17.041   8.362  0.00  0.00     0.173 C 
BRANCH  12  13
HETATM   13  N   UNK N   1      32.966  16.143   9.502  0.00  0.00    -0.418 N 
HETATM   14  H   UNK N   1      32.060  15.917   9.911  0.00  0.00     0.150 HD
HETATM   15  H   UNK N   1      33.815  15.738   9.894  0.00  0.00     0.150 HD
ENDBRANCH  12  13
BRANCH  12  16
HETATM   16  C   UNK N   1      34.359  17.795   8.387  0.00  0.00     0.163 C 
HETATM   17  O   UNK N   1      34.724  18.417   7.401  0.00  0.00    -0.648 OA
BRANCH  16  18
HETATM   18  O   UNK N   1      35.140  17.776   9.485  0.00  0.00    -0.775 OA
HETATM   19  H   UNK N   1      35.766  17.094   9.632  0.00  0.00     0.167 HD
ENDBRANCH  16  18
ENDBRANCH  12  16
ENDBRANCH  11  12
ENDBRANCH   1  11
TORSDOF 10
ENDMDL
MODEL 9
REMARK VINA RESULT:      -4.5     12.669     13.464
REMARK  10 active torsions:
REMARK  status: ('A' for Active; 'I' for Inactive)
REMARK    1  A    between atoms: C_2  and  N_1 
REMARK    2  A    between atoms: C_2  and  C_3 
REMARK    3  A    between atoms: C_2  and  C_11 
REMARK    4  A    between atoms: C_3  and  C_4 
REMARK    5  A    between atoms: C_4  and  C_5 
REMARK    6  A    between atoms: C_5  and  C_6 
REMARK    7  A    between atoms: C_6  and  N_7 
REMARK    8  A    between atoms: C_6  and  C_8 
REMARK    9  A    between atoms: C_8  and  O_9 
REMARK   10  A    between atoms: C_11  and  O_12 
ROOT
HETATM    1  C   UNK N   1      21.608  12.746   9.047  0.00  0.00     0.005 C 
ENDROOT
BRANCH   1   2
HETATM    2  C   UNK N   1      21.400  14.050   8.290  0.00  0.00     0.035 C 
BRANCH   2   3
HETATM    3  C   UNK N   1      20.652  15.060   9.154  0.00  0.00     0.173 C 
BRANCH   3   4
HETATM    4  N   UNK N   1      19.612  14.371   9.902  0.00  0.00    -0.418 N 
HETATM    5  H   UNK N   1      18.943  14.894  10.467  0.00  0.00     0.150 HD
HETATM    6  H   UNK N   1      19.551  13.354   9.862  0.00  0.00     0.150 HD
ENDBRANCH   3   4
BRANCH   3   7
HETATM    7  C   UNK N   1      20.053  16.167   8.324  0.00  0.00     0.163 C 
HETATM    8  O   UNK N   1      19.202  15.911   7.488  0.00  0.00    -0.648 OA
BRANCH   7   9
HETATM    9  O   UNK N   1      20.467  17.441   8.480  0.00  0.00    -0.775 OA
HETATM   10  H   UNK N   1      21.284  17.654   8.887  0.00  0.00     0.167 HD
ENDBRANCH   7   9
ENDBRANCH   3   7
ENDBRANCH   2   3
ENDBRANCH   1   2
BRANCH   1  11
HETATM   11  C   UNK N   1      22.817  12.870   9.962  0.00  0.00     0.035 C 
BRANCH  11  12
HETATM   12  C   UNK N   1      22.770  11.814  11.058  0.00  0.00     0.173 C 
BRANCH  12  13
HETATM   13  N   UNK N   1      21.458  11.833  11.684  0.00  0.00    -0.418 N 
HETATM   14  H   UNK N   1      20.773  12.543  11.426  0.00  0.00     0.150 HD
HETATM   15  H   UNK N   1      21.220  11.131  12.384  0.00  0.00     0.150 HD
ENDBRANCH  12  13
BRANCH  12  16
HETATM   16  C   UNK N   1      23.846  12.046  12.086  0.00  0.00     0.163 C 
HETATM   17  O   UNK N   1      23.567  12.038  13.275  0.00  0.00    -0.648 OA
BRANCH  16  18
HETATM   18  O   UNK N   1      25.117  12.283  11.706  0.00  0.00    -0.775 OA
HETATM   19  H   UNK N   1      25.344  13.027  11.184  0.00  0.00     0.167 HD
ENDBRANCH  16  18
ENDBRANCH  12  16
ENDBRANCH  11  12
ENDBRANCH   1  11
TORSDOF 10
ENDMDL
