MODEL 1
REMARK VINA RESULT:      -7.7      0.000      0.000
REMARK  18 active torsions:
REMARK  status: ('A' for Active; 'I' for Inactive)
REMARK    1  A    between atoms: C_5  and  C_1 
REMARK    2  A    between atoms: O_31  and  C_1 
REMARK    3  A    between atoms: P_35  and  C_4 
REMARK    4  A    between atoms: P_36  and  C_4 
REMARK    5  A    between atoms: C_7  and  O_20 
REMARK    6  A    between atoms: C_8  and  O_21 
REMARK    7  A    between atoms: N_12  and  C_9 
REMARK    8  A    between atoms: C_11  and  N_19 
REMARK    9  A    between atoms: P_35  and  O_22 
REMARK   10  A    between atoms: P_36  and  O_24 
REMARK   11  A    between atoms: P_37  and  O_26 
REMARK   12  A    between atoms: P_37  and  O_27 
REMARK   13  A    between atoms: P_38  and  O_29 
REMARK   14  A    between atoms: P_38  and  O_31 
REMARK   15  A    between atoms: P_35  and  O_33 
REMARK   16  A    between atoms: P_37  and  O_33 
REMARK   17  A    between atoms: P_36  and  O_34 
REMARK   18  A    between atoms: P_38  and  O_34 
ROOT
HETATM    1  C   UNK N   1      30.253  17.701   7.263  0.00  0.00     0.180 C 
HETATM    2  C   UNK N   1      29.589  17.834   8.617  0.00  0.00     0.182 C 
HETATM    3  C   UNK N   1      28.130  17.806   8.223  0.00  0.00     0.198 C 
HETATM    4  C   UNK N   1      28.155  17.115   6.831  0.00  0.00     0.262 C 
HETATM    5  O   UNK N   1      29.495  16.711   6.605  0.00  0.00    -0.353 OA
ENDROOT
BRANCH   1   6
HETATM    6  C   UNK N   1      31.727  17.332   7.392  0.00  0.00     0.215 C 
BRANCH   6   7
HETATM    7  O   UNK N   1      32.278  17.760   8.599  0.00  0.00    -0.294 OA
BRANCH   7   8
HETATM    8  P   UNK N   1      33.921  17.170   8.573  0.00  0.00     0.400 P 
HETATM    9  O   UNK N   1      34.802  18.156   7.756  0.00  0.00    -0.631 OA
BRANCH   8  10
HETATM   10  O   UNK N   1      34.561  17.233  10.185  0.00  0.00    -0.307 OA
HETATM   11  H   UNK N   1      34.728  16.645  10.937  0.00  0.00     0.222 HD
ENDBRANCH   8  10
BRANCH   8  12
HETATM   12  O   UNK N   1      34.074  15.532   7.958  0.00  0.00    -0.218 OA
BRANCH  12  13
HETATM   13  P   UNK N   1      33.319  14.402   9.068  0.00  0.00     0.258 P 
HETATM   14  O   UNK N   1      32.213  13.672   8.266  0.00  0.00    -0.653 OA
BRANCH  13  15
HETATM   15  C   UNK N   1      34.424  13.145   9.995  0.00  0.00     0.250 C 
BRANCH  15  16
HETATM   16  P   UNK N   1      35.879  13.860  10.993  0.00  0.00     0.258 P 
HETATM   17  O   UNK N   1      36.233  12.737   9.981  0.00  0.00    -0.653 OA
BRANCH  16  18
HETATM   18  O   UNK N   1      34.320  13.871  11.753  0.00  0.00    -0.328 OA
HETATM   19  H   UNK N   1      34.038  14.554  12.383  0.00  0.00     0.220 HD
ENDBRANCH  16  18
BRANCH  16  20
HETATM   20  O   UNK N   1      36.263  12.697  12.236  0.00  0.00    -0.218 OA
BRANCH  20  21
HETATM   21  P   UNK N   1      36.280  13.555  13.754  0.00  0.00     0.398 P 
HETATM   22  O   UNK N   1      34.918  13.330  14.463  0.00  0.00    -0.631 OA
BRANCH  21  23
HETATM   23  O   UNK N   1      36.508  15.265  13.548  0.00  0.00    -0.307 OA
HETATM   24  H   UNK N   1      36.009  15.933  13.054  0.00  0.00     0.222 HD
ENDBRANCH  21  23
BRANCH  21  25
HETATM   25  O   UNK N   1      37.503  12.903  14.798  0.00  0.00    -0.307 OA
HETATM   26  H   UNK N   1      38.146  12.227  14.534  0.00  0.00     0.222 HD
ENDBRANCH  21  25
ENDBRANCH  20  21
ENDBRANCH  16  20
ENDBRANCH  15  16
ENDBRANCH  13  15
BRANCH  13  27
HETATM   27  O   UNK N   1      32.373  15.377  10.149  0.00  0.00    -0.328 OA
HETATM   28  H   UNK N   1      31.701  15.195  10.824  0.00  0.00     0.220 HD
ENDBRANCH  13  27
ENDBRANCH  12  13
ENDBRANCH   8  12
ENDBRANCH   7   8
ENDBRANCH   6   7
ENDBRANCH   1   6
BRANCH   2  29
HETATM   29  O   UNK N   1      29.863  16.691   9.377  0.00  0.00    -0.390 OA
HETATM   30  H   UNK N   1      29.295  16.250  10.027  0.00  0.00     0.210 HD
ENDBRANCH   2  29
BRANCH   3  31
HETATM   31  O   UNK N   1      27.633  19.109   8.159  0.00  0.00    -0.388 OA
HETATM   32  H   UNK N   1      26.745  19.501   8.130  0.00  0.00     0.210 HD
ENDBRANCH   3  31
BRANCH   4  33
HETATM   33  N   UNK N   1      27.729  17.997   5.727  0.00  0.00    -0.297 N 
HETATM   34  C   UNK N   1      28.533  18.817   4.994  0.00  0.00     0.188 A 
HETATM   35  N   UNK N   1      27.829  19.501   4.053  0.00  0.00    -0.346 N 
HETATM   36  C   UNK N   1      26.561  19.085   4.219  0.00  0.00     0.122 A 
ATOM     37  HN  UNK N   1      28.182  20.177   3.375  1.00  0.00     0.167 HD
HETATM   38  C   UNK N   1      25.412  19.457   3.545  0.00  0.00     0.131 A 
HETATM   39  C   UNK N   1      26.502  18.180   5.216  0.00  0.00     0.142 A 
HETATM   40  N   UNK N   1      24.233  18.883   3.928  0.00  0.00    -0.337 N 
HETATM   41  C   UNK N   1      24.193  17.963   4.947  0.00  0.00     0.183 A 
ATOM     42  HN  UNK N   1      23.370  19.142   3.450  1.00  0.00     0.168 HD
HETATM   43  N   UNK N   1      25.340  17.599   5.602  0.00  0.00    -0.336 N 
ATOM     44  HN  UNK N   1      25.320  16.913   6.357  1.00  0.00     0.168 HD
BRANCH  38  45
HETATM   45  N   UNK N   1      25.449  20.399   2.497  0.00  0.00    -0.383 N 
HETATM   46  H   UNK N   1      25.612  20.138   1.561  0.00  0.00     0.157 HD
HETATM   47  H   UNK N   1      25.308  21.350   2.708  0.00  0.00     0.157 HD
ENDBRANCH  38  45
ENDBRANCH   4  33
TORSDOF 18
ENDMDL
MODEL 2
REMARK VINA RESULT:      -7.3      2.132      3.160
REMARK  18 active torsions:
REMARK  status: ('A' for Active; 'I' for Inactive)
REMARK    1  A    between atoms: C_5  and  C_1 
REMARK    2  A    between atoms: O_31  and  C_1 
REMARK    3  A    between atoms: P_35  and  C_4 
REMARK    4  A    between atoms: P_36  and  C_4 
REMARK    5  A    between atoms: C_7  and  O_20 
REMARK    6  A    between atoms: C_8  and  O_21 
REMARK    7  A    between atoms: N_12  and  C_9 
REMARK    8  A    between atoms: C_11  and  N_19 
REMARK    9  A    between atoms: P_35  and  O_22 
REMARK   10  A    between atoms: P_36  and  O_24 
REMARK   11  A    between atoms: P_37  and  O_26 
REMARK   12  A    between atoms: P_37  and  O_27 
REMARK   13  A    between atoms: P_38  and  O_29 
REMARK   14  A    between atoms: P_38  and  O_31 
REMARK   15  A    between atoms: P_35  and  O_33 
REMARK   16  A    between atoms: P_37  and  O_33 
REMARK   17  A    between atoms: P_36  and  O_34 
REMARK   18  A    between atoms: P_38  and  O_34 
ROOT
HETATM    1  C   UNK N   1      31.081  15.979   6.838  0.00  0.00     0.180 C 
HETATM    2  C   UNK N   1      30.505  14.962   5.876  0.00  0.00     0.182 C 
HETATM    3  C   UNK N   1      29.493  15.809   5.138  0.00  0.00     0.198 C 
HETATM    4  C   UNK N   1      30.011  17.256   5.371  0.00  0.00     0.262 C 
HETATM    5  O   UNK N   1      31.247  17.138   6.054  0.00  0.00    -0.353 OA
ENDROOT
BRANCH   1   6
HETATM    6  C   UNK N   1      32.385  15.490   7.460  0.00  0.00     0.215 C 
BRANCH   6   7
HETATM    7  O   UNK N   1      32.786  16.275   8.539  0.00  0.00    -0.294 OA
BRANCH   7   8
HETATM    8  P   UNK N   1      34.501  16.507   8.308  0.00  0.00     0.400 P 
HETATM    9  O   UNK N   1      34.762  16.941   6.839  0.00  0.00    -0.631 OA
BRANCH   8  10
HETATM   10  O   UNK N   1      35.016  17.857   9.269  0.00  0.00    -0.307 OA
HETATM   11  H   UNK N   1      34.893  18.817   9.320  0.00  0.00     0.222 HD
ENDBRANCH   8  10
BRANCH   8  12
HETATM   12  O   UNK N   1      35.467  15.101   8.731  0.00  0.00    -0.218 OA
BRANCH  12  13
HETATM   13  P   UNK N   1      35.678  15.019  10.470  0.00  0.00     0.258 P 
HETATM   14  O   UNK N   1      34.519  15.837  11.092  0.00  0.00    -0.653 OA
BRANCH  13  15
HETATM   15  C   UNK N   1      35.816  13.300  11.301  0.00  0.00     0.250 C 
BRANCH  15  16
HETATM   16  P   UNK N   1      36.063  13.281  13.189  0.00  0.00     0.258 P 
HETATM   17  O   UNK N   1      37.275  12.817  12.338  0.00  0.00    -0.653 OA
BRANCH  16  18
HETATM   18  O   UNK N   1      34.451  13.022  12.600  0.00  0.00    -0.328 OA
HETATM   19  H   UNK N   1      33.784  12.506  13.081  0.00  0.00     0.220 HD
ENDBRANCH  16  18
BRANCH  16  20
HETATM   20  O   UNK N   1      35.935  11.618  13.700  0.00  0.00    -0.218 OA
BRANCH  20  21
HETATM   21  P   UNK N   1      34.579  11.519  14.791  0.00  0.00     0.398 P 
HETATM   22  O   UNK N   1      34.969  10.604  15.983  0.00  0.00    -0.631 OA
BRANCH  21  23
HETATM   23  O   UNK N   1      33.166  10.849  14.034  0.00  0.00    -0.307 OA
HETATM   24  H   UNK N   1      32.844  10.873  13.119  0.00  0.00     0.222 HD
ENDBRANCH  21  23
BRANCH  21  25
HETATM   25  O   UNK N   1      34.225  13.083  15.454  0.00  0.00    -0.307 OA
HETATM   26  H   UNK N   1      34.813  13.570  16.051  0.00  0.00     0.222 HD
ENDBRANCH  21  25
ENDBRANCH  20  21
ENDBRANCH  16  20
ENDBRANCH  15  16
ENDBRANCH  13  15
BRANCH  13  27
HETATM   27  O   UNK N   1      37.041  16.035  10.819  0.00  0.00    -0.328 OA
HETATM   28  H   UNK N   1      37.948  15.882  11.126  0.00  0.00     0.220 HD
ENDBRANCH  13  27
ENDBRANCH  12  13
ENDBRANCH   8  12
ENDBRANCH   7   8
ENDBRANCH   6   7
ENDBRANCH   1   6
BRANCH   2  29
HETATM   29  O   UNK N   1      31.499  14.572   4.971  0.00  0.00    -0.390 OA
HETATM   30  H   UNK N   1      32.325  14.097   5.151  0.00  0.00     0.210 HD
ENDBRANCH   2  29
BRANCH   3  31
HETATM   31  O   UNK N   1      28.223  15.606   5.679  0.00  0.00    -0.388 OA
HETATM   32  H   UNK N   1      27.673  14.826   5.858  0.00  0.00     0.210 HD
ENDBRANCH   3  31
BRANCH   4  33
HETATM   33  N   UNK N   1      29.095  18.086   6.179  0.00  0.00    -0.297 N 
HETATM   34  C   UNK N   1      28.940  18.031   7.532  0.00  0.00     0.188 A 
HETATM   35  N   UNK N   1      28.014  18.927   7.968  0.00  0.00    -0.346 N 
HETATM   36  C   UNK N   1      27.594  19.542   6.849  0.00  0.00     0.122 A 
ATOM     37  HN  UNK N   1      27.706  19.093   8.927  1.00  0.00     0.167 HD
HETATM   38  C   UNK N   1      26.646  20.536   6.688  0.00  0.00     0.131 A 
HETATM   39  C   UNK N   1      28.247  19.045   5.780  0.00  0.00     0.142 A 
HETATM   40  N   UNK N   1      26.397  20.982   5.421  0.00  0.00    -0.337 N 
HETATM   41  C   UNK N   1      27.071  20.461   4.343  0.00  0.00     0.183 A 
ATOM     42  HN  UNK N   1      25.700  21.711   5.274  1.00  0.00     0.168 HD
HETATM   43  N   UNK N   1      28.013  19.482   4.518  0.00  0.00    -0.336 N 
ATOM     44  HN  UNK N   1      28.521  19.093   3.724  1.00  0.00     0.168 HD
BRANCH  38  45
HETATM   45  N   UNK N   1      25.954  21.074   7.792  0.00  0.00    -0.383 N 
HETATM   46  H   UNK N   1      25.279  21.785   7.693  0.00  0.00     0.157 HD
HETATM   47  H   UNK N   1      26.151  20.728   8.692  0.00  0.00     0.157 HD
ENDBRANCH  38  45
ENDBRANCH   4  33
TORSDOF 18
ENDMDL
MODEL 3
REMARK VINA RESULT:      -7.1      2.598      5.694
REMARK  18 active torsions:
REMARK  status: ('A' for Active; 'I' for Inactive)
REMARK    1  A    between atoms: C_5  and  C_1 
REMARK    2  A    between atoms: O_31  and  C_1 
REMARK    3  A    between atoms: P_35  and  C_4 
REMARK    4  A    between atoms: P_36  and  C_4 
REMARK    5  A    between atoms: C_7  and  O_20 
REMARK    6  A    between atoms: C_8  and  O_21 
REMARK    7  A    between atoms: N_12  and  C_9 
REMARK    8  A    between atoms: C_11  and  N_19 
REMARK    9  A    between atoms: P_35  and  O_22 
REMARK   10  A    between atoms: P_36  and  O_24 
REMARK   11  A    between atoms: P_37  and  O_26 
REMARK   12  A    between atoms: P_37  and  O_27 
REMARK   13  A    between atoms: P_38  and  O_29 
REMARK   14  A    between atoms: P_38  and  O_31 
REMARK   15  A    between atoms: P_35  and  O_33 
REMARK   16  A    between atoms: P_37  and  O_33 
REMARK   17  A    between atoms: P_36  and  O_34 
REMARK   18  A    between atoms: P_38  and  O_34 
ROOT
HETATM    1  C   UNK N   1      30.245  17.977   8.285  0.00  0.00     0.180 C 
HETATM    2  C   UNK N   1      29.448  18.045   9.570  0.00  0.00     0.182 C 
HETATM    3  C   UNK N   1      28.052  17.776   9.055  0.00  0.00     0.198 C 
HETATM    4  C   UNK N   1      28.311  17.055   7.702  0.00  0.00     0.262 C 
HETATM    5  O   UNK N   1      29.712  16.860   7.610  0.00  0.00    -0.353 OA
ENDROOT
BRANCH   1   6
HETATM    6  C   UNK N   1      31.740  17.849   8.557  0.00  0.00     0.215 C 
BRANCH   6   7
HETATM    7  O   UNK N   1      32.131  16.529   8.769  0.00  0.00    -0.294 OA
BRANCH   7   8
HETATM    8  P   UNK N   1      33.863  16.604   8.973  0.00  0.00     0.400 P 
HETATM    9  O   UNK N   1      34.329  18.080   8.827  0.00  0.00    -0.631 OA
BRANCH   8  10
HETATM   10  O   UNK N   1      34.251  16.175  10.609  0.00  0.00    -0.307 OA
HETATM   11  H   UNK N   1      34.180  16.538  11.505  0.00  0.00     0.222 HD
ENDBRANCH   8  10
BRANCH   8  12
HETATM   12  O   UNK N   1      34.749  15.553   7.879  0.00  0.00    -0.218 OA
BRANCH  12  13
HETATM   13  P   UNK N   1      34.285  15.885   6.221  0.00  0.00     0.258 P 
HETATM   14  O   UNK N   1      35.497  15.495   5.339  0.00  0.00    -0.653 OA
BRANCH  13  15
HETATM   15  C   UNK N   1      32.675  15.103   5.541  0.00  0.00     0.250 C 
BRANCH  15  16
HETATM   16  P   UNK N   1      32.048  15.758   3.867  0.00  0.00     0.258 P 
HETATM   17  O   UNK N   1      31.110  15.986   5.082  0.00  0.00    -0.653 OA
BRANCH  16  18
HETATM   18  O   UNK N   1      33.087  14.368   3.833  0.00  0.00    -0.328 OA
HETATM   19  H   UNK N   1      33.693  14.138   4.556  0.00  0.00     0.220 HD
ENDBRANCH  16  18
BRANCH  16  20
HETATM   20  O   UNK N   1      30.844  14.630   3.300  0.00  0.00    -0.218 OA
BRANCH  20  21
HETATM   21  P   UNK N   1      29.333  15.496   3.206  0.00  0.00     0.398 P 
HETATM   22  O   UNK N   1      28.585  15.044   1.923  0.00  0.00    -0.631 OA
BRANCH  21  23
HETATM   23  O   UNK N   1      29.558  17.217   3.125  0.00  0.00    -0.307 OA
HETATM   24  H   UNK N   1      28.930  17.953   3.056  0.00  0.00     0.222 HD
ENDBRANCH  21  23
BRANCH  21  25
HETATM   25  O   UNK N   1      28.318  15.081   4.551  0.00  0.00    -0.307 OA
HETATM   26  H   UNK N   1      28.552  14.435   5.235  0.00  0.00     0.222 HD
ENDBRANCH  21  25
ENDBRANCH  20  21
ENDBRANCH  16  20
ENDBRANCH  15  16
ENDBRANCH  13  15
BRANCH  13  27
HETATM   27  O   UNK N   1      34.294  17.614   6.074  0.00  0.00    -0.328 OA
HETATM   28  H   UNK N   1      34.741  18.250   5.494  0.00  0.00     0.220 HD
ENDBRANCH  13  27
ENDBRANCH  12  13
ENDBRANCH   8  12
ENDBRANCH   7   8
ENDBRANCH   6   7
ENDBRANCH   1   6
BRANCH   2  29
HETATM   29  O   UNK N   1      29.824  16.983  10.401  0.00  0.00    -0.390 OA
HETATM   30  H   UNK N   1      30.151  17.020  11.314  0.00  0.00     0.210 HD
ENDBRANCH   2  29
BRANCH   3  31
HETATM   31  O   UNK N   1      27.368  18.982   8.892  0.00  0.00    -0.388 OA
HETATM   32  H   UNK N   1      27.475  19.881   9.242  0.00  0.00     0.210 HD
ENDBRANCH   3  31
BRANCH   4  33
HETATM   33  N   UNK N   1      27.856  17.825   6.528  0.00  0.00    -0.297 N 
HETATM   34  C   UNK N   1      28.499  18.885   5.961  0.00  0.00     0.188 A 
HETATM   35  N   UNK N   1      27.813  19.375   4.893  0.00  0.00    -0.346 N 
HETATM   36  C   UNK N   1      26.724  18.591   4.809  0.00  0.00     0.122 A 
ATOM     37  HN  UNK N   1      28.067  20.159   4.292  1.00  0.00     0.167 HD
HETATM   38  C   UNK N   1      25.667  18.637   3.918  0.00  0.00     0.131 A 
HETATM   39  C   UNK N   1      26.753  17.659   5.783  0.00  0.00     0.142 A 
HETATM   40  N   UNK N   1      24.667  17.718   4.065  0.00  0.00    -0.337 N 
HETATM   41  C   UNK N   1      24.713  16.777   5.065  0.00  0.00     0.183 A 
ATOM     42  HN  UNK N   1      23.874  17.732   3.424  1.00  0.00     0.168 HD
HETATM   43  N   UNK N   1      25.770  16.739   5.937  0.00  0.00    -0.336 N 
ATOM     44  HN  UNK N   1      25.815  16.041   6.679  1.00  0.00     0.168 HD
BRANCH  38  45
HETATM   45  N   UNK N   1      25.617  19.600   2.890  0.00  0.00    -0.383 N 
HETATM   46  H   UNK N   1      25.854  20.543   3.042  0.00  0.00     0.157 HD
HETATM   47  H   UNK N   1      25.336  19.319   1.989  0.00  0.00     0.157 HD
ENDBRANCH  38  45
ENDBRANCH   4  33
TORSDOF 18
ENDMDL
MODEL 4
REMARK VINA RESULT:      -6.8      3.215      5.358
REMARK  18 active torsions:
REMARK  status: ('A' for Active; 'I' for Inactive)
REMARK    1  A    between atoms: C_5  and  C_1 
REMARK    2  A    between atoms: O_31  and  C_1 
REMARK    3  A    between atoms: P_35  and  C_4 
REMARK    4  A    between atoms: P_36  and  C_4 
REMARK    5  A    between atoms: C_7  and  O_20 
REMARK    6  A    between atoms: C_8  and  O_21 
REMARK    7  A    between atoms: N_12  and  C_9 
REMARK    8  A    between atoms: C_11  and  N_19 
REMARK    9  A    between atoms: P_35  and  O_22 
REMARK   10  A    between atoms: P_36  and  O_24 
REMARK   11  A    between atoms: P_37  and  O_26 
REMARK   12  A    between atoms: P_37  and  O_27 
REMARK   13  A    between atoms: P_38  and  O_29 
REMARK   14  A    between atoms: P_38  and  O_31 
REMARK   15  A    between atoms: P_35  and  O_33 
REMARK   16  A    between atoms: P_37  and  O_33 
REMARK   17  A    between atoms: P_36  and  O_34 
REMARK   18  A    between atoms: P_38  and  O_34 
ROOT
HETATM    1  C   UNK N   1      25.719  17.328   4.303  0.00  0.00     0.180 C 
HETATM    2  C   UNK N   1      26.069  18.800   4.281  0.00  0.00     0.182 C 
HETATM    3  C   UNK N   1      24.694  19.423   4.364  0.00  0.00     0.198 C 
HETATM    4  C   UNK N   1      23.831  18.283   4.975  0.00  0.00     0.262 C 
HETATM    5  O   UNK N   1      24.721  17.228   5.294  0.00  0.00    -0.353 OA
ENDROOT
BRANCH   1   6
HETATM    6  C   UNK N   1      26.940  16.463   4.599  0.00  0.00     0.215 C 
BRANCH   6   7
HETATM    7  O   UNK N   1      27.779  16.333   3.494  0.00  0.00    -0.294 OA
BRANCH   7   8
HETATM    8  P   UNK N   1      29.381  16.652   4.110  0.00  0.00     0.400 P 
HETATM    9  O   UNK N   1      30.412  16.474   2.961  0.00  0.00    -0.631 OA
BRANCH   8  10
HETATM   10  O   UNK N   1      29.487  18.328   4.548  0.00  0.00    -0.307 OA
HETATM   11  H   UNK N   1      29.518  19.201   4.128  0.00  0.00     0.222 HD
ENDBRANCH   8  10
BRANCH   8  12
HETATM   12  O   UNK N   1      29.811  15.668   5.501  0.00  0.00    -0.218 OA
BRANCH  12  13
HETATM   13  P   UNK N   1      31.060  16.468   6.438  0.00  0.00     0.258 P 
HETATM   14  O   UNK N   1      30.362  17.617   7.209  0.00  0.00    -0.653 OA
BRANCH  13  15
HETATM   15  C   UNK N   1      32.139  15.418   7.620  0.00  0.00     0.250 C 
BRANCH  15  16
HETATM   16  P   UNK N   1      33.753  16.216   8.239  0.00  0.00     0.258 P 
HETATM   17  O   UNK N   1      33.860  15.387   6.932  0.00  0.00    -0.653 OA
BRANCH  16  18
HETATM   18  O   UNK N   1      32.576  15.781   9.438  0.00  0.00    -0.328 OA
HETATM   19  H   UNK N   1      32.562  14.919   9.884  0.00  0.00     0.220 HD
ENDBRANCH  16  18
BRANCH  16  20
HETATM   20  O   UNK N   1      34.694  14.948   8.981  0.00  0.00    -0.218 OA
BRANCH  20  21
HETATM   21  P   UNK N   1      35.176  15.522  10.556  0.00  0.00     0.398 P 
HETATM   22  O   UNK N   1      34.330  14.787  11.630  0.00  0.00    -0.631 OA
BRANCH  21  23
HETATM   23  O   UNK N   1      34.927  17.231  10.745  0.00  0.00    -0.307 OA
HETATM   24  H   UNK N   1      35.366  18.001  10.351  0.00  0.00     0.222 HD
ENDBRANCH  21  23
BRANCH  21  25
HETATM   25  O   UNK N   1      36.836  15.115  10.861  0.00  0.00    -0.307 OA
HETATM   26  H   UNK N   1      37.147  14.638  11.646  0.00  0.00     0.222 HD
ENDBRANCH  21  25
ENDBRANCH  20  21
ENDBRANCH  16  20
ENDBRANCH  15  16
ENDBRANCH  13  15
BRANCH  13  27
HETATM   27  O   UNK N   1      32.008  17.354   5.286  0.00  0.00    -0.328 OA
HETATM   28  H   UNK N   1      32.720  18.010   5.345  0.00  0.00     0.220 HD
ENDBRANCH  13  27
ENDBRANCH  12  13
ENDBRANCH   8  12
ENDBRANCH   7   8
ENDBRANCH   6   7
ENDBRANCH   1   6
BRANCH   2  29
HETATM   29  O   UNK N   1      26.771  19.124   5.447  0.00  0.00    -0.390 OA
HETATM   30  H   UNK N   1      26.919  18.574   6.233  0.00  0.00     0.210 HD
ENDBRANCH   2  29
BRANCH   3  31
HETATM   31  O   UNK N   1      24.263  19.789   3.087  0.00  0.00    -0.388 OA
HETATM   32  H   UNK N   1      24.278  20.611   2.572  0.00  0.00     0.210 HD
ENDBRANCH   3  31
BRANCH   4  33
HETATM   33  N   UNK N   1      22.793  17.774   4.056  0.00  0.00    -0.297 N 
HETATM   34  C   UNK N   1      22.727  16.516   3.534  0.00  0.00     0.188 A 
HETATM   35  N   UNK N   1      21.648  16.368   2.719  0.00  0.00    -0.346 N 
HETATM   36  C   UNK N   1      21.043  17.568   2.747  0.00  0.00     0.122 A 
ATOM     37  HN  UNK N   1      21.363  15.535   2.203  1.00  0.00     0.167 HD
HETATM   38  C   UNK N   1      19.903  17.999   2.092  0.00  0.00     0.131 A 
HETATM   39  C   UNK N   1      21.723  18.406   3.553  0.00  0.00     0.142 A 
HETATM   40  N   UNK N   1      19.506  19.292   2.287  0.00  0.00    -0.337 N 
HETATM   41  C   UNK N   1      20.214  20.133   3.112  0.00  0.00     0.183 A 
ATOM     42  HN  UNK N   1      18.671  19.637   1.813  1.00  0.00     0.168 HD
HETATM   43  N   UNK N   1      21.336  19.689   3.759  0.00  0.00    -0.336 N 
ATOM     44  HN  UNK N   1      21.865  20.305   4.377  1.00  0.00     0.168 HD
BRANCH  38  45
HETATM   45  N   UNK N   1      19.173  17.139   1.247  0.00  0.00    -0.383 N 
HETATM   46  H   UNK N   1      19.051  16.184   1.449  0.00  0.00     0.157 HD
HETATM   47  H   UNK N   1      18.771  17.507   0.427  0.00  0.00     0.157 HD
ENDBRANCH  38  45
ENDBRANCH   4  33
TORSDOF 18
ENDMDL
MODEL 5
REMARK VINA RESULT:      -6.8      6.900      9.699
REMARK  18 active torsions:
REMARK  status: ('A' for Active; 'I' for Inactive)
REMARK    1  A    between atoms: C_5  and  C_1 
REMARK    2  A    between atoms: O_31  and  C_1 
REMARK    3  A    between atoms: P_35  and  C_4 
REMARK    4  A    between atoms: P_36  and  C_4 
REMARK    5  A    between atoms: C_7  and  O_20 
REMARK    6  A    between atoms: C_8  and  O_21 
REMARK    7  A    between atoms: N_12  and  C_9 
REMARK    8  A    between atoms: C_11  and  N_19 
REMARK    9  A    between atoms: P_35  and  O_22 
REMARK   10  A    between atoms: P_36  and  O_24 
REMARK   11  A    between atoms: P_37  and  O_26 
REMARK   12  A    between atoms: P_37  and  O_27 
REMARK   13  A    between atoms: P_38  and  O_29 
REMARK   14  A    between atoms: P_38  and  O_31 
REMARK   15  A    between atoms: P_35  and  O_33 
REMARK   16  A    between atoms: P_37  and  O_33 
REMARK   17  A    between atoms: P_36  and  O_34 
REMARK   18  A    between atoms: P_38  and  O_34 
ROOT
HETATM    1  C   UNK N   1      35.595  15.471  10.584  0.00  0.00     0.180 C 
HETATM    2  C   UNK N   1      36.715  14.825   9.797  0.00  0.00     0.182 C 
HETATM    3  C   UNK N   1      36.800  13.476  10.475  0.00  0.00     0.198 C 
HETATM    4  C   UNK N   1      35.402  13.329  11.138  0.00  0.00     0.262 C 
HETATM    5  O   UNK N   1      34.636  14.446  10.719  0.00  0.00    -0.353 OA
ENDROOT
BRANCH   1   6
HETATM    6  C   UNK N   1      35.050  16.706   9.876  0.00  0.00     0.215 C 
BRANCH   6   7
HETATM    7  O   UNK N   1      34.675  16.443   8.560  0.00  0.00    -0.294 OA
BRANCH   7   8
HETATM    8  P   UNK N   1      34.189  17.991   7.916  0.00  0.00     0.400 P 
HETATM    9  O   UNK N   1      32.791  18.361   8.486  0.00  0.00    -0.631 OA
BRANCH   8  10
HETATM   10  O   UNK N   1      35.257  19.212   8.531  0.00  0.00    -0.307 OA
HETATM   11  H   UNK N   1      35.221  20.045   9.024  0.00  0.00     0.222 HD
ENDBRANCH   8  10
BRANCH   8  12
HETATM   12  O   UNK N   1      34.192  18.057   6.161  0.00  0.00    -0.218 OA
BRANCH  12  13
HETATM   13  P   UNK N   1      33.130  16.821   5.512  0.00  0.00     0.258 P 
HETATM   14  O   UNK N   1      32.032  17.563   4.709  0.00  0.00    -0.653 OA
BRANCH  13  15
HETATM   15  C   UNK N   1      33.891  15.407   4.471  0.00  0.00     0.250 C 
BRANCH  15  16
HETATM   16  P   UNK N   1      34.420  13.840   5.414  0.00  0.00     0.258 P 
HETATM   17  O   UNK N   1      32.916  13.937   5.041  0.00  0.00    -0.653 OA
BRANCH  16  18
HETATM   18  O   UNK N   1      35.323  15.290   5.721  0.00  0.00    -0.328 OA
HETATM   19  H   UNK N   1      35.705  15.507   6.587  0.00  0.00     0.220 HD
ENDBRANCH  16  18
BRANCH  16  20
HETATM   20  O   UNK N   1      33.901  14.044   7.068  0.00  0.00    -0.218 OA
BRANCH  20  21
HETATM   21  P   UNK N   1      33.560  12.455   7.698  0.00  0.00     0.398 P 
HETATM   22  O   UNK N   1      34.903  11.774   8.073  0.00  0.00    -0.631 OA
BRANCH  21  23
HETATM   23  O   UNK N   1      32.743  11.444   6.545  0.00  0.00    -0.307 OA
HETATM   24  H   UNK N   1      31.831  11.439   6.214  0.00  0.00     0.222 HD
ENDBRANCH  21  23
BRANCH  21  25
HETATM   25  O   UNK N   1      32.634  12.575   9.161  0.00  0.00    -0.307 OA
HETATM   26  H   UNK N   1      32.899  12.190  10.010  0.00  0.00     0.222 HD
ENDBRANCH  21  25
ENDBRANCH  20  21
ENDBRANCH  16  20
ENDBRANCH  15  16
ENDBRANCH  13  15
BRANCH  13  27
HETATM   27  O   UNK N   1      32.223  16.231   6.869  0.00  0.00    -0.328 OA
HETATM   28  H   UNK N   1      31.682  15.445   7.041  0.00  0.00     0.220 HD
ENDBRANCH  13  27
ENDBRANCH  12  13
ENDBRANCH   8  12
ENDBRANCH   7   8
ENDBRANCH   6   7
ENDBRANCH   1   6
BRANCH   2  29
HETATM   29  O   UNK N   1      36.296  14.630   8.477  0.00  0.00    -0.390 OA
HETATM   30  H   UNK N   1      35.394  14.654   8.122  0.00  0.00     0.210 HD
ENDBRANCH   2  29
BRANCH   3  31
HETATM   31  O   UNK N   1      37.834  13.482  11.413  0.00  0.00    -0.388 OA
HETATM   32  H   UNK N   1      38.055  12.943  12.189  0.00  0.00     0.210 HD
ENDBRANCH   3  31
BRANCH   4  33
HETATM   33  N   UNK N   1      35.449  13.308  12.614  0.00  0.00    -0.297 N 
HETATM   34  C   UNK N   1      36.062  14.225  13.414  0.00  0.00     0.188 A 
HETATM   35  N   UNK N   1      35.924  13.914  14.731  0.00  0.00    -0.346 N 
HETATM   36  C   UNK N   1      35.208  12.776  14.730  0.00  0.00     0.122 A 
ATOM     37  HN  UNK N   1      36.283  14.428  15.536  1.00  0.00     0.167 HD
HETATM   38  C   UNK N   1      34.781  12.000  15.792  0.00  0.00     0.131 A 
HETATM   39  C   UNK N   1      34.917  12.418  13.465  0.00  0.00     0.142 A 
HETATM   40  N   UNK N   1      34.070  10.868  15.510  0.00  0.00    -0.337 N 
HETATM   41  C   UNK N   1      33.785  10.517  14.212  0.00  0.00     0.183 A 
ATOM     42  HN  UNK N   1      33.746  10.275  16.274  1.00  0.00     0.168 HD
HETATM   43  N   UNK N   1      34.208  11.301  13.171  0.00  0.00    -0.336 N 
ATOM     44  HN  UNK N   1      33.996  11.050  12.205  1.00  0.00     0.168 HD
BRANCH  38  45
HETATM   45  N   UNK N   1      35.070  12.357  17.125  0.00  0.00    -0.383 N 
HETATM   46  H   UNK N   1      35.302  13.278  17.383  0.00  0.00     0.157 HD
HETATM   47  H   UNK N   1      35.039  11.661  17.821  0.00  0.00     0.157 HD
ENDBRANCH  38  45
ENDBRANCH   4  33
TORSDOF 18
ENDMDL
MODEL 6
REMARK VINA RESULT:      -6.8      6.935     11.645
REMARK  18 active torsions:
REMARK  status: ('A' for Active; 'I' for Inactive)
REMARK    1  A    between atoms: C_5  and  C_1 
REMARK    2  A    between atoms: O_31  and  C_1 
REMARK    3  A    between atoms: P_35  and  C_4 
REMARK    4  A    between atoms: P_36  and  C_4 
REMARK    5  A    between atoms: C_7  and  O_20 
REMARK    6  A    between atoms: C_8  and  O_21 
REMARK    7  A    between atoms: N_12  and  C_9 
REMARK    8  A    between atoms: C_11  and  N_19 
REMARK    9  A    between atoms: P_35  and  O_22 
REMARK   10  A    between atoms: P_36  and  O_24 
REMARK   11  A    between atoms: P_37  and  O_26 
REMARK   12  A    between atoms: P_37  and  O_27 
REMARK   13  A    between atoms: P_38  and  O_29 
REMARK   14  A    between atoms: P_38  and  O_31 
REMARK   15  A    between atoms: P_35  and  O_33 
REMARK   16  A    between atoms: P_37  and  O_33 
REMARK   17  A    between atoms: P_36  and  O_34 
REMARK   18  A    between atoms: P_38  and  O_34 
ROOT
HETATM    1  C   UNK N   1      35.880  13.816  13.036  0.00  0.00     0.180 C 
HETATM    2  C   UNK N   1      36.988  12.878  12.609  0.00  0.00     0.182 C 
HETATM    3  C   UNK N   1      36.903  11.825  13.690  0.00  0.00     0.198 C 
HETATM    4  C   UNK N   1      35.455  11.993  14.230  0.00  0.00     0.262 C 
HETATM    5  O   UNK N   1      34.825  12.956  13.403  0.00  0.00    -0.353 OA
ENDROOT
BRANCH   1   6
HETATM    6  C   UNK N   1      35.498  14.782  11.920  0.00  0.00     0.215 C 
BRANCH   6   7
HETATM    7  O   UNK N   1      34.144  14.716  11.599  0.00  0.00    -0.294 OA
BRANCH   7   8
HETATM    8  P   UNK N   1      34.106  14.482   9.869  0.00  0.00     0.400 P 
HETATM    9  O   UNK N   1      34.957  13.233   9.506  0.00  0.00    -0.631 OA
BRANCH   8  10
HETATM   10  O   UNK N   1      32.488  14.069   9.397  0.00  0.00    -0.307 OA
HETATM   11  H   UNK N   1      31.858  13.338   9.480  0.00  0.00     0.222 HD
ENDBRANCH   8  10
BRANCH   8  12
HETATM   12  O   UNK N   1      34.629  15.888   8.955  0.00  0.00    -0.218 OA
BRANCH  12  13
HETATM   13  P   UNK N   1      33.908  15.867   7.357  0.00  0.00     0.258 P 
HETATM   14  O   UNK N   1      33.687  14.377   6.994  0.00  0.00    -0.653 OA
BRANCH  13  15
HETATM   15  C   UNK N   1      32.313  16.881   7.052  0.00  0.00     0.250 C 
BRANCH  15  16
HETATM   16  P   UNK N   1      30.964  16.774   8.391  0.00  0.00     0.258 P 
HETATM   17  O   UNK N   1      30.829  15.780   7.206  0.00  0.00    -0.653 OA
BRANCH  16  18
HETATM   18  O   UNK N   1      31.698  18.324   8.131  0.00  0.00    -0.328 OA
HETATM   19  H   UNK N   1      32.583  18.556   8.456  0.00  0.00     0.220 HD
ENDBRANCH  16  18
BRANCH  16  20
HETATM   20  O   UNK N   1      29.544  17.553   7.744  0.00  0.00    -0.218 OA
BRANCH  20  21
HETATM   21  P   UNK N   1      28.610  18.126   9.100  0.00  0.00     0.398 P 
HETATM   22  O   UNK N   1      27.839  16.925   9.712  0.00  0.00    -0.631 OA
BRANCH  21  23
HETATM   23  O   UNK N   1      27.451  19.338   8.644  0.00  0.00    -0.307 OA
HETATM   24  H   UNK N   1      27.439  19.991   7.927  0.00  0.00     0.222 HD
ENDBRANCH  21  23
BRANCH  21  25
HETATM   25  O   UNK N   1      29.661  18.731  10.341  0.00  0.00    -0.307 OA
HETATM   26  H   UNK N   1      29.428  18.777  11.281  0.00  0.00     0.222 HD
ENDBRANCH  21  25
ENDBRANCH  20  21
ENDBRANCH  16  20
ENDBRANCH  15  16
ENDBRANCH  13  15
BRANCH  13  27
HETATM   27  O   UNK N   1      35.187  16.300   6.266  0.00  0.00    -0.328 OA
HETATM   28  H   UNK N   1      35.973  16.865   6.322  0.00  0.00     0.220 HD
ENDBRANCH  13  27
ENDBRANCH  12  13
ENDBRANCH   8  12
ENDBRANCH   7   8
ENDBRANCH   6   7
ENDBRANCH   1   6
BRANCH   2  29
HETATM   29  O   UNK N   1      36.644  12.286  11.388  0.00  0.00    -0.390 OA
HETATM   30  H   UNK N   1      35.760  12.082  11.046  0.00  0.00     0.210 HD
ENDBRANCH   2  29
BRANCH   3  31
HETATM   31  O   UNK N   1      37.867  12.073  14.669  0.00  0.00    -0.388 OA
HETATM   32  H   UNK N   1      38.142  11.625  15.485  0.00  0.00     0.210 HD
ENDBRANCH   3  31
BRANCH   4  33
HETATM   33  N   UNK N   1      35.399  12.455  15.631  0.00  0.00    -0.297 N 
HETATM   34  C   UNK N   1      35.439  13.750  16.055  0.00  0.00     0.188 A 
HETATM   35  N   UNK N   1      35.370  13.837  17.411  0.00  0.00    -0.346 N 
HETATM   36  C   UNK N   1      35.288  12.559  17.822  0.00  0.00     0.122 A 
ATOM     37  HN  UNK N   1      35.381  14.679  17.986  1.00  0.00     0.167 HD
HETATM   38  C   UNK N   1      35.208  12.046  19.104  0.00  0.00     0.131 A 
HETATM   39  C   UNK N   1      35.297  11.733  16.757  0.00  0.00     0.142 A 
HETATM   40  N   UNK N   1      35.147  10.688  19.245  0.00  0.00    -0.337 N 
HETATM   41  C   UNK N   1      35.160   9.862  18.147  0.00  0.00     0.183 A 
ATOM     42  HN  UNK N   1      35.092  10.282  20.179  1.00  0.00     0.168 HD
HETATM   43  N   UNK N   1      35.232  10.385  16.883  0.00  0.00    -0.336 N 
ATOM     44  HN  UNK N   1      35.237   9.779  16.063  1.00  0.00     0.168 HD
BRANCH  38  45
HETATM   45  N   UNK N   1      35.193  12.890  20.232  0.00  0.00    -0.383 N 
HETATM   46  H   UNK N   1      34.362  13.112  20.711  0.00  0.00     0.157 HD
HETATM   47  H   UNK N   1      36.043  13.270  20.553  0.00  0.00     0.157 HD
ENDBRANCH  38  45
ENDBRANCH   4  33
TORSDOF 18
ENDMDL
MODEL 7
REMARK VINA RESULT:      -6.8      8.022     11.559
REMARK  18 active torsions:
REMARK  status: ('A' for Active; 'I' for Inactive)
REMARK    1  A    between atoms: C_5  and  C_1 
REMARK    2  A    between atoms: O_31  and  C_1 
REMARK    3  A    between atoms: P_35  and  C_4 
REMARK    4  A    between atoms: P_36  and  C_4 
REMARK    5  A    between atoms: C_7  and  O_20 
REMARK    6  A    between atoms: C_8  and  O_21 
REMARK    7  A    between atoms: N_12  and  C_9 
REMARK    8  A    between atoms: C_11  and  N_19 
REMARK    9  A    between atoms: P_35  and  O_22 
REMARK   10  A    between atoms: P_36  and  O_24 
REMARK   11  A    between atoms: P_37  and  O_26 
REMARK   12  A    between atoms: P_37  and  O_27 
REMARK   13  A    between atoms: P_38  and  O_29 
REMARK   14  A    between atoms: P_38  and  O_31 
REMARK   15  A    between atoms: P_35  and  O_33 
REMARK   16  A    between atoms: P_37  and  O_33 
REMARK   17  A    between atoms: P_36  and  O_34 
REMARK   18  A    between atoms: P_38  and  O_34 
ROOT
HETATM    1  C   UNK N   1      23.513  14.825   4.684  0.00  0.00     0.180 C 
HETATM    2  C   UNK N   1      22.090  15.122   4.263  0.00  0.00     0.182 C 
HETATM    3  C   UNK N   1      21.406  15.207   5.609  0.00  0.00     0.198 C 
HETATM    4  C   UNK N   1      22.581  15.507   6.581  0.00  0.00     0.262 C 
HETATM    5  O   UNK N   1      23.734  15.689   5.777  0.00  0.00    -0.353 OA
ENDROOT
BRANCH   1   6
HETATM    6  C   UNK N   1      24.497  15.050   3.541  0.00  0.00     0.215 C 
BRANCH   6   7
HETATM    7  O   UNK N   1      25.001  16.349   3.521  0.00  0.00    -0.294 OA
BRANCH   7   8
HETATM    8  P   UNK N   1      26.736  16.153   3.497  0.00  0.00     0.400 P 
HETATM    9  O   UNK N   1      27.154  15.184   4.638  0.00  0.00    -0.631 OA
BRANCH   8  10
HETATM   10  O   UNK N   1      27.186  15.337   2.033  0.00  0.00    -0.307 OA
HETATM   11  H   UNK N   1      27.003  15.371   1.082  0.00  0.00     0.222 HD
ENDBRANCH   8  10
BRANCH   8  12
HETATM   12  O   UNK N   1      27.619  17.668   3.604  0.00  0.00    -0.218 OA
BRANCH  12  13
HETATM   13  P   UNK N   1      26.857  18.725   4.779  0.00  0.00     0.258 P 
HETATM   14  O   UNK N   1      27.975  19.176   5.752  0.00  0.00    -0.653 OA
BRANCH  13  15
HETATM   15  C   UNK N   1      25.857  20.231   4.151  0.00  0.00     0.250 C 
BRANCH  15  16
HETATM   16  P   UNK N   1      24.534  19.886   2.827  0.00  0.00     0.258 P 
HETATM   17  O   UNK N   1      25.570  20.989   2.484  0.00  0.00    -0.653 OA
BRANCH  16  18
HETATM   18  O   UNK N   1      24.086  19.612   4.481  0.00  0.00    -0.328 OA
HETATM   19  H   UNK N   1      24.518  18.954   5.048  0.00  0.00     0.220 HD
ENDBRANCH  16  18
BRANCH  16  20
HETATM   20  O   UNK N   1      23.366  21.178   2.926  0.00  0.00    -0.218 OA
BRANCH  20  21
HETATM   21  P   UNK N   1      21.820  20.509   2.479  0.00  0.00     0.398 P 
HETATM   22  O   UNK N   1      21.790  19.014   2.895  0.00  0.00    -0.631 OA
BRANCH  21  23
HETATM   23  O   UNK N   1      21.525  20.601   0.769  0.00  0.00    -0.307 OA
HETATM   24  H   UNK N   1      21.882  20.100   0.019  0.00  0.00     0.222 HD
ENDBRANCH  21  23
BRANCH  21  25
HETATM   25  O   UNK N   1      20.547  21.298   3.355  0.00  0.00    -0.307 OA
HETATM   26  H   UNK N   1      20.065  22.078   3.038  0.00  0.00     0.222 HD
ENDBRANCH  21  25
ENDBRANCH  20  21
ENDBRANCH  16  20
ENDBRANCH  15  16
ENDBRANCH  13  15
BRANCH  13  27
HETATM   27  O   UNK N   1      25.916  17.682   5.798  0.00  0.00    -0.328 OA
HETATM   28  H   UNK N   1      26.067  16.828   6.231  0.00  0.00     0.220 HD
ENDBRANCH  13  27
ENDBRANCH  12  13
ENDBRANCH   8  12
ENDBRANCH   7   8
ENDBRANCH   6   7
ENDBRANCH   1   6
BRANCH   2  29
HETATM   29  O   UNK N   1      22.042  16.385   3.663  0.00  0.00    -0.390 OA
HETATM   30  H   UNK N   1      21.408  17.102   3.820  0.00  0.00     0.210 HD
ENDBRANCH   2  29
BRANCH   3  31
HETATM   31  O   UNK N   1      20.776  13.995   5.896  0.00  0.00    -0.388 OA
HETATM   32  H   UNK N   1      20.773  13.113   5.489  0.00  0.00     0.210 HD
ENDBRANCH   3  31
BRANCH   4  33
HETATM   33  N   UNK N   1      22.838  14.421   7.548  0.00  0.00    -0.297 N 
HETATM   34  C   UNK N   1      23.944  13.625   7.591  0.00  0.00     0.188 A 
HETATM   35  N   UNK N   1      23.870  12.718   8.602  0.00  0.00    -0.346 N 
HETATM   36  C   UNK N   1      22.686  12.970   9.189  0.00  0.00     0.122 A 
ATOM     37  HN  UNK N   1      24.556  12.008   8.857  1.00  0.00     0.167 HD
HETATM   38  C   UNK N   1      22.081  12.344  10.264  0.00  0.00     0.131 A 
HETATM   39  C   UNK N   1      22.072  13.994   8.563  0.00  0.00     0.142 A 
HETATM   40  N   UNK N   1      20.852  12.794  10.655  0.00  0.00    -0.337 N 
HETATM   41  C   UNK N   1      20.241  13.839  10.003  0.00  0.00     0.183 A 
ATOM     42  HN  UNK N   1      20.381  12.349  11.442  1.00  0.00     0.168 HD
HETATM   43  N   UNK N   1      20.856  14.453   8.945  0.00  0.00    -0.336 N 
ATOM     44  HN  UNK N   1      20.411  15.232   8.458  1.00  0.00     0.168 HD
BRANCH  38  45
HETATM   45  N   UNK N   1      22.705  11.274  10.936  0.00  0.00    -0.383 N 
HETATM   46  H   UNK N   1      22.767  10.373  10.545  0.00  0.00     0.157 HD
HETATM   47  H   UNK N   1      23.093  11.434  11.827  0.00  0.00     0.157 HD
ENDBRANCH  38  45
ENDBRANCH   4  33
TORSDOF 18
ENDMDL
MODEL 8
REMARK VINA RESULT:      -6.7      5.660      9.207
REMARK  18 active torsions:
REMARK  status: ('A' for Active; 'I' for Inactive)
REMARK    1  A    between atoms: C_5  and  C_1 
REMARK    2  A    between atoms: O_31  and  C_1 
REMARK    3  A    between atoms: P_35  and  C_4 
REMARK    4  A    between atoms: P_36  and  C_4 
REMARK    5  A    between atoms: C_7  and  O_20 
REMARK    6  A    between atoms: C_8  and  O_21 
REMARK    7  A    between atoms: N_12  and  C_9 
REMARK    8  A    between atoms: C_11  and  N_19 
REMARK    9  A    between atoms: P_35  and  O_22 
REMARK   10  A    between atoms: P_36  and  O_24 
REMARK   11  A    between atoms: P_37  and  O_26 
REMARK   12  A    between atoms: P_37  and  O_27 
REMARK   13  A    between atoms: P_38  and  O_29 
REMARK   14  A    between atoms: P_38  and  O_31 
REMARK   15  A    between atoms: P_35  and  O_33 
REMARK   16  A    between atoms: P_37  and  O_33 
REMARK   17  A    between atoms: P_36  and  O_34 
REMARK   18  A    between atoms: P_38  and  O_34 
ROOT
HETATM    1  C   UNK N   1      33.954  15.641   6.890  0.00  0.00     0.180 C 
HETATM    2  C   UNK N   1      33.804  17.072   7.358  0.00  0.00     0.182 C 
HETATM    3  C   UNK N   1      34.511  17.011   8.694  0.00  0.00     0.198 C 
HETATM    4  C   UNK N   1      35.423  15.761   8.550  0.00  0.00     0.262 C 
HETATM    5  O   UNK N   1      35.286  15.312   7.212  0.00  0.00    -0.353 OA
ENDROOT
BRANCH   1   6
HETATM    6  C   UNK N   1      33.650  15.501   5.402  0.00  0.00     0.215 C 
BRANCH   6   7
HETATM    7  O   UNK N   1      32.358  15.913   5.082  0.00  0.00    -0.294 OA
BRANCH   7   8
HETATM    8  P   UNK N   1      31.501  14.440   4.701  0.00  0.00     0.400 P 
HETATM    9  O   UNK N   1      32.282  13.668   3.602  0.00  0.00    -0.631 OA
BRANCH   8  10
HETATM   10  O   UNK N   1      31.538  13.399   6.089  0.00  0.00    -0.307 OA
HETATM   11  H   UNK N   1      31.000  13.182   6.865  0.00  0.00     0.222 HD
ENDBRANCH   8  10
BRANCH   8  12
HETATM   12  O   UNK N   1      29.831  14.700   4.223  0.00  0.00    -0.218 OA
BRANCH  12  13
HETATM   13  P   UNK N   1      29.592  16.375   3.762  0.00  0.00     0.258 P 
HETATM   14  O   UNK N   1      28.399  16.392   2.774  0.00  0.00    -0.653 OA
BRANCH  13  15
HETATM   15  C   UNK N   1      29.349  17.683   5.138  0.00  0.00     0.250 C 
BRANCH  15  16
HETATM   16  P   UNK N   1      28.931  17.028   6.876  0.00  0.00     0.258 P 
HETATM   17  O   UNK N   1      27.778  17.740   6.120  0.00  0.00    -0.653 OA
BRANCH  16  18
HETATM   18  O   UNK N   1      30.573  17.509   6.587  0.00  0.00    -0.328 OA
HETATM   19  H   UNK N   1      31.327  17.164   7.092  0.00  0.00     0.220 HD
ENDBRANCH  16  18
BRANCH  16  20
HETATM   20  O   UNK N   1      28.920  18.404   7.948  0.00  0.00    -0.218 OA
BRANCH  20  21
HETATM   21  P   UNK N   1      30.175  18.144   9.131  0.00  0.00     0.398 P 
HETATM   22  O   UNK N   1      31.416  18.984   8.726  0.00  0.00    -0.631 OA
BRANCH  21  23
HETATM   23  O   UNK N   1      30.658  16.478   9.231  0.00  0.00    -0.307 OA
HETATM   24  H   UNK N   1      30.707  15.773   8.567  0.00  0.00     0.222 HD
ENDBRANCH  21  23
BRANCH  21  25
HETATM   25  O   UNK N   1      29.665  18.721  10.685  0.00  0.00    -0.307 OA
HETATM   26  H   UNK N   1      29.650  19.655  10.945  0.00  0.00     0.222 HD
ENDBRANCH  21  25
ENDBRANCH  20  21
ENDBRANCH  16  20
ENDBRANCH  15  16
ENDBRANCH  13  15
BRANCH  13  27
HETATM   27  O   UNK N   1      30.917  16.759   2.709  0.00  0.00    -0.328 OA
HETATM   28  H   UNK N   1      31.794  16.380   2.546  0.00  0.00     0.220 HD
ENDBRANCH  13  27
ENDBRANCH  12  13
ENDBRANCH   8  12
ENDBRANCH   7   8
ENDBRANCH   6   7
ENDBRANCH   1   6
BRANCH   2  29
HETATM   29  O   UNK N   1      34.534  17.912   6.510  0.00  0.00    -0.390 OA
HETATM   30  H   UNK N   1      34.871  18.804   6.690  0.00  0.00     0.210 HD
ENDBRANCH   2  29
BRANCH   3  31
HETATM   31  O   UNK N   1      33.573  16.869   9.718  0.00  0.00    -0.388 OA
HETATM   32  H   UNK N   1      33.585  16.471  10.603  0.00  0.00     0.210 HD
ENDBRANCH   3  31
BRANCH   4  33
HETATM   33  N   UNK N   1      35.062  14.660   9.464  0.00  0.00    -0.297 N 
HETATM   34  C   UNK N   1      34.338  13.550   9.143  0.00  0.00     0.188 A 
HETATM   35  N   UNK N   1      34.178  12.728  10.215  0.00  0.00    -0.346 N 
HETATM   36  C   UNK N   1      34.821  13.356  11.214  0.00  0.00     0.122 A 
ATOM     37  HN  UNK N   1      33.681  11.838  10.252  1.00  0.00     0.167 HD
HETATM   38  C   UNK N   1      34.973  12.986  12.538  0.00  0.00     0.131 A 
HETATM   39  C   UNK N   1      35.357  14.508  10.764  0.00  0.00     0.142 A 
HETATM   40  N   UNK N   1      35.672  13.825  13.359  0.00  0.00    -0.337 N 
HETATM   41  C   UNK N   1      36.210  14.996  12.882  0.00  0.00     0.183 A 
ATOM     42  HN  UNK N   1      35.797  13.578  14.341  1.00  0.00     0.168 HD
HETATM   43  N   UNK N   1      36.057  15.346  11.566  0.00  0.00    -0.336 N 
ATOM     44  HN  UNK N   1      36.456  16.211  11.202  1.00  0.00     0.168 HD
BRANCH  38  45
HETATM   45  N   UNK N   1      34.425  11.785  13.032  0.00  0.00    -0.383 N 
HETATM   46  H   UNK N   1      33.893  11.179  12.467  0.00  0.00     0.157 HD
HETATM   47  H   UNK N   1      34.580  11.543  13.974  0.00  0.00     0.157 HD
ENDBRANCH  38  45
ENDBRANCH   4  33
TORSDOF 18
ENDMDL
MODEL 9
REMARK VINA RESULT:      -6.7      7.048     11.977
REMARK  18 active torsions:
REMARK  status: ('A' for Active; 'I' for Inactive)
REMARK    1  A    between atoms: C_5  and  C_1 
REMARK    2  A    between atoms: O_31  and  C_1 
REMARK    3  A    between atoms: P_35  and  C_4 
REMARK    4  A    between atoms: P_36  and  C_4 
REMARK    5  A    between atoms: C_7  and  O_20 
REMARK    6  A    between atoms: C_8  and  O_21 
REMARK    7  A    between atoms: N_12  and  C_9 
REMARK    8  A    between atoms: C_11  and  N_19 
REMARK    9  A    between atoms: P_35  and  O_22 
REMARK   10  A    between atoms: P_36  and  O_24 
REMARK   11  A    between atoms: P_37  and  O_26 
REMARK   12  A    between atoms: P_37  and  O_27 
REMARK   13  A    between atoms: P_38  and  O_29 
REMARK   14  A    between atoms: P_38  and  O_31 
REMARK   15  A    between atoms: P_35  and  O_33 
REMARK   16  A    between atoms: P_37  and  O_33 
REMARK   17  A    between atoms: P_36  and  O_34 
REMARK   18  A    between atoms: P_38  and  O_34 
ROOT
HETATM    1  C   UNK N   1      35.877  14.062  13.180  0.00  0.00     0.180 C 
HETATM    2  C   UNK N   1      36.784  13.032  12.541  0.00  0.00     0.182 C 
HETATM    3  C   UNK N   1      36.494  11.823  13.401  0.00  0.00     0.198 C 
HETATM    4  C   UNK N   1      35.104  12.155  14.014  0.00  0.00     0.262 C 
HETATM    5  O   UNK N   1      34.675  13.364  13.411  0.00  0.00    -0.353 OA
ENDROOT
BRANCH   1   6
HETATM    6  C   UNK N   1      35.693  15.283  12.285  0.00  0.00     0.215 C 
BRANCH   6   7
HETATM    7  O   UNK N   1      34.499  15.241  11.568  0.00  0.00    -0.294 OA
BRANCH   7   8
HETATM    8  P   UNK N   1      34.869  15.999  10.039  0.00  0.00     0.400 P 
HETATM    9  O   UNK N   1      35.650  17.317  10.302  0.00  0.00    -0.631 OA
BRANCH   8  10
HETATM   10  O   UNK N   1      35.980  14.989   9.170  0.00  0.00    -0.307 OA
HETATM   11  H   UNK N   1      36.018  14.457   8.360  0.00  0.00     0.222 HD
ENDBRANCH   8  10
BRANCH   8  12
HETATM   12  O   UNK N   1      33.457  16.293   9.037  0.00  0.00    -0.218 OA
BRANCH  12  13
HETATM   13  P   UNK N   1      33.939  17.033   7.522  0.00  0.00     0.258 P 
HETATM   14  O   UNK N   1      35.047  16.130   6.925  0.00  0.00    -0.653 OA
BRANCH  13  15
HETATM   15  C   UNK N   1      32.596  17.410   6.212  0.00  0.00     0.250 C 
BRANCH  15  16
HETATM   16  P   UNK N   1      31.236  16.098   5.980  0.00  0.00     0.258 P 
HETATM   17  O   UNK N   1      32.045  16.473   4.710  0.00  0.00    -0.653 OA
BRANCH  16  18
HETATM   18  O   UNK N   1      30.984  17.286   7.220  0.00  0.00    -0.328 OA
HETATM   19  H   UNK N   1      30.428  18.072   7.100  0.00  0.00     0.220 HD
ENDBRANCH  16  18
BRANCH  16  20
HETATM   20  O   UNK N   1      29.887  16.895   5.213  0.00  0.00    -0.218 OA
BRANCH  20  21
HETATM   21  P   UNK N   1      29.629  16.106   3.680  0.00  0.00     0.398 P 
HETATM   22  O   UNK N   1      28.113  16.149   3.351  0.00  0.00    -0.631 OA
BRANCH  21  23
HETATM   23  O   UNK N   1      30.132  14.443   3.696  0.00  0.00    -0.307 OA
HETATM   24  H   UNK N   1      29.922  13.704   4.288  0.00  0.00     0.222 HD
ENDBRANCH  21  23
BRANCH  21  25
HETATM   25  O   UNK N   1      30.441  16.971   2.414  0.00  0.00    -0.307 OA
HETATM   26  H   UNK N   1      31.263  16.679   1.991  0.00  0.00     0.222 HD
ENDBRANCH  21  25
ENDBRANCH  20  21
ENDBRANCH  16  20
ENDBRANCH  15  16
ENDBRANCH  13  15
BRANCH  13  27
HETATM   27  O   UNK N   1      34.848  18.444   7.964  0.00  0.00    -0.328 OA
HETATM   28  H   UNK N   1      35.017  19.306   7.554  0.00  0.00     0.220 HD
ENDBRANCH  13  27
ENDBRANCH  12  13
ENDBRANCH   8  12
ENDBRANCH   7   8
ENDBRANCH   6   7
ENDBRANCH   1   6
BRANCH   2  29
HETATM   29  O   UNK N   1      36.336  12.768  11.242  0.00  0.00    -0.390 OA
HETATM   30  H   UNK N   1      35.632  13.215  10.745  0.00  0.00     0.210 HD
ENDBRANCH   2  29
BRANCH   3  31
HETATM   31  O   UNK N   1      37.485  11.687  14.375  0.00  0.00    -0.388 OA
HETATM   32  H   UNK N   1      37.487  11.470  15.321  0.00  0.00     0.210 HD
ENDBRANCH   3  31
BRANCH   4  33
HETATM   33  N   UNK N   1      35.135  12.335  15.479  0.00  0.00    -0.297 N 
HETATM   34  C   UNK N   1      35.035  13.519  16.147  0.00  0.00     0.188 A 
HETATM   35  N   UNK N   1      35.102  13.342  17.495  0.00  0.00    -0.346 N 
HETATM   36  C   UNK N   1      35.247  12.014  17.648  0.00  0.00     0.122 A 
ATOM     37  HN  UNK N   1      35.054  14.055  18.223  1.00  0.00     0.167 HD
HETATM   38  C   UNK N   1      35.381  11.267  18.804  0.00  0.00     0.131 A 
HETATM   39  C   UNK N   1      35.259  11.411  16.443  0.00  0.00     0.142 A 
HETATM   40  N   UNK N   1      35.530   9.915  18.677  0.00  0.00    -0.337 N 
HETATM   41  C   UNK N   1      35.541   9.318  17.439  0.00  0.00     0.183 A 
ATOM     42  HN  UNK N   1      35.634   9.340  19.513  1.00  0.00     0.168 HD
HETATM   43  N   UNK N   1      35.400  10.070  16.303  0.00  0.00    -0.336 N 
ATOM     44  HN  UNK N   1      35.403   9.635  15.380  1.00  0.00     0.168 HD
BRANCH  38  45
HETATM   45  N   UNK N   1      35.368  11.875  20.076  0.00  0.00    -0.383 N 
HETATM   46  H   UNK N   1      34.810  12.661  20.277  0.00  0.00     0.157 HD
HETATM   47  H   UNK N   1      35.936  11.500  20.788  0.00  0.00     0.157 HD
ENDBRANCH  38  45
ENDBRANCH   4  33
TORSDOF 18
ENDMDL
