MODEL 1
REMARK VINA RESULT:      -3.3      0.000      0.000
REMARK  2 active torsions:
REMARK  status: ('A' for Active; 'I' for Inactive)
REMARK    1  A    between atoms: C_2  and  O_3 
REMARK    2  A    between atoms: C_2  and  C_4 
ROOT
HETATM    1  C   UNK N   1      21.056  19.640   3.569  0.00  0.00     0.046 C 
HETATM    2  C   UNK N   1      21.268  20.634   2.446  0.00  0.00     0.175 C 
ENDROOT
BRANCH   2   3
HETATM    3  O   UNK N   1      22.024  21.776   2.703  0.00  0.00    -0.389 OA
HETATM    4  H   UNK N   1      21.620  22.533   3.157  0.00  0.00     0.210 HD
ENDBRANCH   2   3
BRANCH   2   5
HETATM    5  C   UNK N   1      20.702  20.443   1.078  0.00  0.00     0.262 C 
HETATM    6  O   UNK N   1      21.332  20.803   0.097  0.00  0.00    -0.304 OA
ENDBRANCH   2   5
TORSDOF 2
ENDMDL
MODEL 2
REMARK VINA RESULT:      -3.3     11.073     11.346
REMARK  2 active torsions:
REMARK  status: ('A' for Active; 'I' for Inactive)
REMARK    1  A    between atoms: C_2  and  O_3 
REMARK    2  A    between atoms: C_2  and  C_4 
ROOT
HETATM    1  C   UNK N   1      31.206  20.725  -4.110  0.00  0.00     0.046 C 
HETATM    2  C   UNK N   1      31.527  21.599  -2.915  0.00  0.00     0.175 C 
ENDROOT
BRANCH   2   3
HETATM    3  O   UNK N   1      32.609  21.250  -2.108  0.00  0.00    -0.389 OA
HETATM    4  H   UNK N   1      33.505  21.533  -2.348  0.00  0.00     0.210 HD
ENDBRANCH   2   3
BRANCH   2   5
HETATM    5  C   UNK N   1      30.737  22.816  -2.566  0.00  0.00     0.262 C 
HETATM    6  O   UNK N   1      30.454  23.051  -1.403  0.00  0.00    -0.304 OA
ENDBRANCH   2   5
TORSDOF 2
ENDMDL
MODEL 3
REMARK VINA RESULT:      -3.2      9.264     10.138
REMARK  2 active torsions:
REMARK  status: ('A' for Active; 'I' for Inactive)
REMARK    1  A    between atoms: C_2  and  O_3 
REMARK    2  A    between atoms: C_2  and  C_4 
ROOT
HETATM    1  C   UNK N   1      16.949  27.591   8.676  0.00  0.00     0.046 C 
HETATM    2  C   UNK N   1      18.019  26.524   8.771  0.00  0.00     0.175 C 
ENDROOT
BRANCH   2   3
HETATM    3  O   UNK N   1      18.381  25.839   7.611  0.00  0.00    -0.389 OA
HETATM    4  H   UNK N   1      19.248  25.998   7.206  0.00  0.00     0.210 HD
ENDBRANCH   2   3
BRANCH   2   5
HETATM    5  C   UNK N   1      18.703  26.174  10.051  0.00  0.00     0.262 C 
HETATM    6  O   UNK N   1      19.467  26.967  10.576  0.00  0.00    -0.304 OA
ENDBRANCH   2   5
TORSDOF 2
ENDMDL
MODEL 4
REMARK VINA RESULT:      -3.2      1.020      2.354
REMARK  2 active torsions:
REMARK  status: ('A' for Active; 'I' for Inactive)
REMARK    1  A    between atoms: C_2  and  O_3 
REMARK    2  A    between atoms: C_2  and  C_4 
ROOT
HETATM    1  C   UNK N   1      20.439  18.538   1.606  0.00  0.00     0.046 C 
HETATM    2  C   UNK N   1      20.725  20.006   1.368  0.00  0.00     0.175 C 
ENDROOT
BRANCH   2   3
HETATM    3  O   UNK N   1      20.676  20.490   0.061  0.00  0.00    -0.389 OA
HETATM    4  H   UNK N   1      20.882  21.422  -0.119  0.00  0.00     0.210 HD
ENDBRANCH   2   3
BRANCH   2   5
HETATM    5  C   UNK N   1      21.055  20.956   2.470  0.00  0.00     0.262 C 
HETATM    6  O   UNK N   1      22.212  21.288   2.669  0.00  0.00    -0.304 OA
ENDBRANCH   2   5
TORSDOF 2
ENDMDL
MODEL 5
REMARK VINA RESULT:      -3.1      9.598     10.027
REMARK  2 active torsions:
REMARK  status: ('A' for Active; 'I' for Inactive)
REMARK    1  A    between atoms: C_2  and  O_3 
REMARK    2  A    between atoms: C_2  and  C_4 
ROOT
HETATM    1  C   UNK N   1      18.868  25.937  10.378  0.00  0.00     0.046 C 
HETATM    2  C   UNK N   1      18.401  27.089   9.512  0.00  0.00     0.175 C 
ENDROOT
BRANCH   2   3
HETATM    3  O   UNK N   1      19.004  28.334   9.680  0.00  0.00    -0.389 OA
HETATM    4  H   UNK N   1      19.007  28.758  10.554  0.00  0.00     0.210 HD
ENDBRANCH   2   3
BRANCH   2   5
HETATM    5  C   UNK N   1      17.323  26.948   8.489  0.00  0.00     0.262 C 
HETATM    6  O   UNK N   1      17.607  26.866   7.305  0.00  0.00    -0.304 OA
ENDBRANCH   2   5
TORSDOF 2
ENDMDL
MODEL 6
REMARK VINA RESULT:      -3.1     14.667     15.462
REMARK  2 active torsions:
REMARK  status: ('A' for Active; 'I' for Inactive)
REMARK    1  A    between atoms: C_2  and  O_3 
REMARK    2  A    between atoms: C_2  and  C_4 
ROOT
HETATM    1  C   UNK N   1      33.063  17.948   7.802  0.00  0.00     0.046 C 
HETATM    2  C   UNK N   1      34.376  18.068   8.548  0.00  0.00     0.175 C 
ENDROOT
BRANCH   2   3
HETATM    3  O   UNK N   1      35.132  19.228   8.382  0.00  0.00    -0.389 OA
HETATM    4  H   UNK N   1      34.732  20.095   8.553  0.00  0.00     0.210 HD
ENDBRANCH   2   3
BRANCH   2   5
HETATM    5  C   UNK N   1      34.894  17.000   9.451  0.00  0.00     0.262 C 
HETATM    6  O   UNK N   1      35.518  17.295  10.457  0.00  0.00    -0.304 OA
ENDBRANCH   2   5
TORSDOF 2
ENDMDL
MODEL 7
REMARK VINA RESULT:      -3.0     12.490     13.100
REMARK  2 active torsions:
REMARK  status: ('A' for Active; 'I' for Inactive)
REMARK    1  A    between atoms: C_2  and  O_3 
REMARK    2  A    between atoms: C_2  and  C_4 
ROOT
HETATM    1  C   UNK N   1      23.236  11.887  13.151  0.00  0.00     0.046 C 
HETATM    2  C   UNK N   1      23.767  11.977  11.735  0.00  0.00     0.175 C 
ENDROOT
BRANCH   2   3
HETATM    3  O   UNK N   1      25.087  12.383  11.544  0.00  0.00    -0.389 OA
HETATM    4  H   UNK N   1      25.364  12.743  10.686  0.00  0.00     0.210 HD
ENDBRANCH   2   3
BRANCH   2   5
HETATM    5  C   UNK N   1      22.938  11.651  10.537  0.00  0.00     0.262 C 
HETATM    6  O   UNK N   1      21.761  11.971  10.499  0.00  0.00    -0.304 OA
ENDBRANCH   2   5
TORSDOF 2
ENDMDL
MODEL 8
REMARK VINA RESULT:      -2.9      2.685      3.318
REMARK  2 active torsions:
REMARK  status: ('A' for Active; 'I' for Inactive)
REMARK    1  A    between atoms: C_2  and  O_3 
REMARK    2  A    between atoms: C_2  and  C_4 
ROOT
HETATM    1  C   UNK N   1      20.305  17.373   2.679  0.00  0.00     0.046 C 
HETATM    2  C   UNK N   1      19.623  18.724   2.622  0.00  0.00     0.175 C 
ENDROOT
BRANCH   2   3
HETATM    3  O   UNK N   1      18.250  18.766   2.383  0.00  0.00    -0.389 OA
HETATM    4  H   UNK N   1      17.655  19.161   3.041  0.00  0.00     0.210 HD
ENDBRANCH   2   3
BRANCH   2   5
HETATM    5  C   UNK N   1      20.356  20.010   2.810  0.00  0.00     0.262 C 
HETATM    6  O   UNK N   1      20.359  20.562   3.898  0.00  0.00    -0.304 OA
ENDBRANCH   2   5
TORSDOF 2
ENDMDL
MODEL 9
REMARK VINA RESULT:      -2.8      1.724      2.366
REMARK  2 active torsions:
REMARK  status: ('A' for Active; 'I' for Inactive)
REMARK    1  A    between atoms: C_2  and  O_3 
REMARK    2  A    between atoms: C_2  and  C_4 
ROOT
HETATM    1  C   UNK N   1      20.844  20.748   0.746  0.00  0.00     0.046 C 
HETATM    2  C   UNK N   1      21.025  20.782   2.250  0.00  0.00     0.175 C 
ENDROOT
BRANCH   2   3
HETATM    3  O   UNK N   1      21.914  21.710   2.791  0.00  0.00    -0.389 OA
HETATM    4  H   UNK N   1      22.751  21.901   2.338  0.00  0.00     0.210 HD
ENDBRANCH   2   3
BRANCH   2   5
HETATM    5  C   UNK N   1      20.294  19.868   3.175  0.00  0.00     0.262 C 
HETATM    6  O   UNK N   1      19.308  19.263   2.788  0.00  0.00    -0.304 OA
ENDBRANCH   2   5
TORSDOF 2
ENDMDL
