MODEL 1
REMARK VINA RESULT:      -5.8      0.000      0.000
REMARK  6 active torsions:
REMARK  status: ('A' for Active; 'I' for Inactive)
REMARK    1  A    between atoms: C_4  and  C_1 
REMARK    2  A    between atoms: O_19  and  C_1 
REMARK    3  A    between atoms: C_6  and  O_20 
REMARK    4  A    between atoms: C_7  and  O_21 
REMARK    5  A    between atoms: N_11  and  C_8 
REMARK    6  A    between atoms: C_10  and  N_18 
ROOT
HETATM    1  C   UNK N   1      32.566  14.170   8.941  0.00  0.00     0.183 A 
HETATM    2  C   UNK N   1      35.571  16.768  10.897  0.00  0.00     0.188 A 
HETATM    3  C   UNK N   1      34.124  16.363   9.373  0.00  0.00     0.122 A 
HETATM    4  C   UNK N   1      33.277  16.347   8.275  0.00  0.00     0.131 A 
HETATM    5  C   UNK N   1      34.183  15.296  10.192  0.00  0.00     0.142 A 
HETATM    6  N   UNK N   1      32.502  15.240   8.079  0.00  0.00    -0.337 N 
ATOM      7  HN  UNK N   1      31.866  15.206   7.283  1.00  0.00     0.168 HD
HETATM    8  N   UNK N   1      33.428  14.188  10.005  0.00  0.00    -0.336 N 
ATOM      9  HN  UNK N   1      33.498  13.391  10.637  1.00  0.00     0.168 HD
HETATM   10  N   UNK N   1      34.983  17.311   9.792  0.00  0.00    -0.346 N 
ATOM     11  HN  UNK N   1      35.155  18.227   9.378  1.00  0.00     0.167 HD
HETATM   12  N   UNK N   1      35.094  15.520  11.149  0.00  0.00    -0.297 N 
ENDROOT
BRANCH  12  13
HETATM   13  C   UNK N   1      35.563  14.580  12.170  0.00  0.00     0.262 C 
HETATM   14  C   UNK N   1      36.700  13.665  11.718  0.00  0.00     0.198 C 
HETATM   15  C   UNK N   1      36.652  12.687  12.863  0.00  0.00     0.182 C 
HETATM   16  C   UNK N   1      35.131  12.499  12.959  0.00  0.00     0.179 C 
HETATM   17  O   UNK N   1      34.523  13.744  12.647  0.00  0.00    -0.353 OA
BRANCH  14  18
HETATM   18  O   UNK N   1      36.369  13.023  10.518  0.00  0.00    -0.388 OA
HETATM   19  H   UNK N   1      36.339  12.506   9.698  0.00  0.00     0.210 HD
ENDBRANCH  14  18
BRANCH  15  20
HETATM   20  O   UNK N   1      37.144  13.307  14.023  0.00  0.00    -0.390 OA
HETATM   21  H   UNK N   1      37.284  13.939  14.745  0.00  0.00     0.210 HD
ENDBRANCH  15  20
BRANCH  16  22
HETATM   22  C   UNK N   1      34.674  12.013  14.333  0.00  0.00     0.198 C 
BRANCH  22  23
HETATM   23  O   UNK N   1      34.457  13.090  15.194  0.00  0.00    -0.398 OA
HETATM   24  H   UNK N   1      34.152  12.986  16.109  0.00  0.00     0.209 HD
ENDBRANCH  22  23
ENDBRANCH  16  22
ENDBRANCH  12  13
BRANCH   4  25
HETATM   25  N   UNK N   1      33.229  17.428   7.370  0.00  0.00    -0.383 N 
HETATM   26  H   UNK N   1      33.788  17.426   6.560  0.00  0.00     0.157 HD
HETATM   27  H   UNK N   1      32.633  18.190   7.551  0.00  0.00     0.157 HD
ENDBRANCH   4  25
TORSDOF 6
ENDMDL
MODEL 2
REMARK VINA RESULT:      -5.7      3.380      5.266
REMARK  6 active torsions:
REMARK  status: ('A' for Active; 'I' for Inactive)
REMARK    1  A    between atoms: C_4  and  C_1 
REMARK    2  A    between atoms: O_19  and  C_1 
REMARK    3  A    between atoms: C_6  and  O_20 
REMARK    4  A    between atoms: C_7  and  O_21 
REMARK    5  A    between atoms: N_11  and  C_8 
REMARK    6  A    between atoms: C_10  and  N_18 
ROOT
HETATM    1  C   UNK N   1      29.697  18.624   9.832  0.00  0.00     0.183 A 
HETATM    2  C   UNK N   1      31.092  15.893   6.639  0.00  0.00     0.188 A 
HETATM    3  C   UNK N   1      29.621  17.166   7.532  0.00  0.00     0.122 A 
HETATM    4  C   UNK N   1      28.501  17.894   7.901  0.00  0.00     0.131 A 
HETATM    5  C   UNK N   1      30.715  17.168   8.318  0.00  0.00     0.142 A 
HETATM    6  N   UNK N   1      28.562  18.622   9.056  0.00  0.00    -0.337 N 
ATOM      7  HN  UNK N   1      27.753  19.171   9.347  1.00  0.00     0.168 HD
HETATM    8  N   UNK N   1      30.785  17.877   9.470  0.00  0.00    -0.336 N 
ATOM      9  HN  UNK N   1      31.624  17.855  10.050  1.00  0.00     0.168 HD
HETATM   10  N   UNK N   1      29.828  16.375   6.463  0.00  0.00    -0.346 N 
ATOM     11  HN  UNK N   1      29.186  16.181   5.695  1.00  0.00     0.167 HD
HETATM   12  N   UNK N   1      31.647  16.366   7.786  0.00  0.00    -0.297 N 
ENDROOT
BRANCH  12  13
HETATM   13  C   UNK N   1      32.934  15.984   8.373  0.00  0.00     0.262 C 
HETATM   14  C   UNK N   1      32.866  14.811   9.348  0.00  0.00     0.198 C 
HETATM   15  C   UNK N   1      34.240  14.956   9.949  0.00  0.00     0.182 C 
HETATM   16  C   UNK N   1      34.262  16.478  10.142  0.00  0.00     0.179 C 
HETATM   17  O   UNK N   1      33.549  17.060   9.060  0.00  0.00    -0.353 OA
BRANCH  14  18
HETATM   18  O   UNK N   1      31.885  15.035  10.322  0.00  0.00    -0.388 OA
HETATM   19  H   UNK N   1      31.129  15.005  10.930  0.00  0.00     0.210 HD
ENDBRANCH  14  18
BRANCH  15  20
HETATM   20  O   UNK N   1      35.202  14.567   9.003  0.00  0.00    -0.390 OA
HETATM   21  H   UNK N   1      35.670  14.421   8.166  0.00  0.00     0.210 HD
ENDBRANCH  15  20
BRANCH  16  22
HETATM   22  C   UNK N   1      35.675  17.051  10.217  0.00  0.00     0.198 C 
BRANCH  22  23
HETATM   23  O   UNK N   1      36.522  16.197  10.926  0.00  0.00    -0.398 OA
HETATM   24  H   UNK N   1      36.947  16.443  11.762  0.00  0.00     0.209 HD
ENDBRANCH  22  23
ENDBRANCH  16  22
ENDBRANCH  12  13
BRANCH   4  25
HETATM   25  N   UNK N   1      27.323  17.873   7.125  0.00  0.00    -0.383 N 
HETATM   26  H   UNK N   1      27.282  17.340   6.298  0.00  0.00     0.157 HD
HETATM   27  H   UNK N   1      26.539  18.393   7.411  0.00  0.00     0.157 HD
ENDBRANCH   4  25
TORSDOF 6
ENDMDL
MODEL 3
REMARK VINA RESULT:      -5.7      4.591      7.521
REMARK  6 active torsions:
REMARK  status: ('A' for Active; 'I' for Inactive)
REMARK    1  A    between atoms: C_4  and  C_1 
REMARK    2  A    between atoms: O_19  and  C_1 
REMARK    3  A    between atoms: C_6  and  O_20 
REMARK    4  A    between atoms: C_7  and  O_21 
REMARK    5  A    between atoms: N_11  and  C_8 
REMARK    6  A    between atoms: C_10  and  N_18 
ROOT
HETATM    1  C   UNK N   1      35.460  14.300  18.182  0.00  0.00     0.183 A 
HETATM    2  C   UNK N   1      35.127  10.372  16.167  0.00  0.00     0.188 A 
HETATM    3  C   UNK N   1      35.183  11.603  17.917  0.00  0.00     0.122 A 
HETATM    4  C   UNK N   1      35.218  12.152  19.190  0.00  0.00     0.131 A 
HETATM    5  C   UNK N   1      35.308  12.398  16.837  0.00  0.00     0.142 A 
HETATM    6  N   UNK N   1      35.353  13.507  19.300  0.00  0.00    -0.337 N 
ATOM      7  HN  UNK N   1      35.375  13.935  20.225  1.00  0.00     0.168 HD
HETATM    8  N   UNK N   1      35.453  13.741  16.932  0.00  0.00    -0.336 N 
ATOM      9  HN  UNK N   1      35.553  14.319  16.098  1.00  0.00     0.168 HD
HETATM   10  N   UNK N   1      35.062  10.320  17.528  0.00  0.00    -0.346 N 
ATOM     11  HN  UNK N   1      34.947   9.496  18.118  1.00  0.00     0.167 HD
HETATM   12  N   UNK N   1      35.289  11.648  15.727  0.00  0.00    -0.297 N 
ENDROOT
BRANCH  12  13
HETATM   13  C   UNK N   1      35.518  12.090  14.349  0.00  0.00     0.262 C 
HETATM   14  C   UNK N   1      36.972  12.004  13.887  0.00  0.00     0.198 C 
HETATM   15  C   UNK N   1      36.841  12.822  12.628  0.00  0.00     0.182 C 
HETATM   16  C   UNK N   1      35.981  13.972  13.172  0.00  0.00     0.179 C 
HETATM   17  O   UNK N   1      35.094  13.425  14.138  0.00  0.00    -0.353 OA
BRANCH  14  18
HETATM   18  O   UNK N   1      37.818  12.648  14.797  0.00  0.00    -0.388 OA
HETATM   19  H   UNK N   1      38.471  12.898  15.471  0.00  0.00     0.210 HD
ENDBRANCH  14  18
BRANCH  15  20
HETATM   20  O   UNK N   1      36.126  12.086  11.669  0.00  0.00    -0.390 OA
HETATM   21  H   UNK N   1      35.536  11.849  10.937  0.00  0.00     0.210 HD
ENDBRANCH  15  20
BRANCH  16  22
HETATM   22  C   UNK N   1      35.199  14.701  12.083  0.00  0.00     0.198 C 
BRANCH  22  23
HETATM   23  O   UNK N   1      34.010  14.031  11.791  0.00  0.00    -0.398 OA
HETATM   24  H   UNK N   1      33.864  13.539  10.967  0.00  0.00     0.209 HD
ENDBRANCH  22  23
ENDBRANCH  16  22
ENDBRANCH  12  13
BRANCH   4  25
HETATM   25  N   UNK N   1      35.139  11.340  20.340  0.00  0.00    -0.383 N 
HETATM   26  H   UNK N   1      35.649  10.499  20.393  0.00  0.00     0.157 HD
HETATM   27  H   UNK N   1      34.571  11.615  21.095  0.00  0.00     0.157 HD
ENDBRANCH   4  25
TORSDOF 6
ENDMDL
MODEL 4
REMARK VINA RESULT:      -5.5      3.760      5.620
REMARK  6 active torsions:
REMARK  status: ('A' for Active; 'I' for Inactive)
REMARK    1  A    between atoms: C_4  and  C_1 
REMARK    2  A    between atoms: O_19  and  C_1 
REMARK    3  A    between atoms: C_6  and  O_20 
REMARK    4  A    between atoms: C_7  and  O_21 
REMARK    5  A    between atoms: N_11  and  C_8 
REMARK    6  A    between atoms: C_10  and  N_18 
ROOT
HETATM    1  C   UNK N   1      28.919  18.591   9.465  0.00  0.00     0.183 A 
HETATM    2  C   UNK N   1      31.258  16.030   6.712  0.00  0.00     0.188 A 
HETATM    3  C   UNK N   1      29.460  17.033   7.296  0.00  0.00     0.122 A 
HETATM    4  C   UNK N   1      28.180  17.544   7.453  0.00  0.00     0.131 A 
HETATM    5  C   UNK N   1      30.405  17.290   8.220  0.00  0.00     0.142 A 
HETATM    6  N   UNK N   1      27.932  18.326   8.545  0.00  0.00    -0.337 N 
ATOM      7  HN  UNK N   1      27.001  18.720   8.679  1.00  0.00     0.168 HD
HETATM    8  N   UNK N   1      30.170  18.055   9.312  0.00  0.00    -0.336 N 
ATOM      9  HN  UNK N   1      30.903  18.228  10.000  1.00  0.00     0.168 HD
HETATM   10  N   UNK N   1      29.966  16.245   6.329  0.00  0.00    -0.346 N 
ATOM     11  HN  UNK N   1      29.493  15.890   5.499  1.00  0.00     0.167 HD
HETATM   12  N   UNK N   1      31.539  16.661   7.883  0.00  0.00    -0.297 N 
ENDROOT
BRANCH  12  13
HETATM   13  C   UNK N   1      32.774  16.570   8.667  0.00  0.00     0.262 C 
HETATM   14  C   UNK N   1      33.699  17.779   8.540  0.00  0.00     0.198 C 
HETATM   15  C   UNK N   1      34.924  17.175   9.175  0.00  0.00     0.182 C 
HETATM   16  C   UNK N   1      34.899  15.800   8.494  0.00  0.00     0.179 C 
HETATM   17  O   UNK N   1      33.539  15.426   8.329  0.00  0.00    -0.353 OA
BRANCH  14  18
HETATM   18  O   UNK N   1      33.946  18.073   7.193  0.00  0.00    -0.388 OA
HETATM   19  H   UNK N   1      34.115  18.066   6.238  0.00  0.00     0.210 HD
ENDBRANCH  14  18
BRANCH  15  20
HETATM   20  O   UNK N   1      34.712  17.042  10.557  0.00  0.00    -0.390 OA
HETATM   21  H   UNK N   1      34.719  17.202  11.514  0.00  0.00     0.210 HD
ENDBRANCH  15  20
BRANCH  16  22
HETATM   22  C   UNK N   1      35.653  14.729   9.278  0.00  0.00     0.198 C 
BRANCH  22  23
HETATM   23  O   UNK N   1      36.782  15.268   9.897  0.00  0.00    -0.398 OA
HETATM   24  H   UNK N   1      36.802  15.535  10.830  0.00  0.00     0.209 HD
ENDBRANCH  22  23
ENDBRANCH  16  22
ENDBRANCH  12  13
BRANCH   4  25
HETATM   25  N   UNK N   1      27.156  17.252   6.529  0.00  0.00    -0.383 N 
HETATM   26  H   UNK N   1      26.371  16.726   6.805  0.00  0.00     0.157 HD
HETATM   27  H   UNK N   1      27.226  17.574   5.602  0.00  0.00     0.157 HD
ENDBRANCH   4  25
TORSDOF 6
ENDMDL
MODEL 5
REMARK VINA RESULT:      -5.5     12.411     14.833
REMARK  6 active torsions:
REMARK  status: ('A' for Active; 'I' for Inactive)
REMARK    1  A    between atoms: C_4  and  C_1 
REMARK    2  A    between atoms: O_19  and  C_1 
REMARK    3  A    between atoms: C_6  and  O_20 
REMARK    4  A    between atoms: C_7  and  O_21 
REMARK    5  A    between atoms: N_11  and  C_8 
REMARK    6  A    between atoms: C_10  and  N_18 
ROOT
HETATM    1  C   UNK N   1      24.600  13.034   9.571  0.00  0.00     0.183 A 
HETATM    2  C   UNK N   1      20.232  13.751   9.649  0.00  0.00     0.188 A 
HETATM    3  C   UNK N   1      22.033  12.943  10.477  0.00  0.00     0.122 A 
HETATM    4  C   UNK N   1      23.024  12.300  11.203  0.00  0.00     0.131 A 
HETATM    5  C   UNK N   1      22.344  13.579   9.331  0.00  0.00     0.142 A 
HETATM    6  N   UNK N   1      24.305  12.362  10.734  0.00  0.00    -0.337 N 
ATOM      7  HN  UNK N   1      25.053  11.903  11.253  1.00  0.00     0.168 HD
HETATM    8  N   UNK N   1      23.608  13.640   8.849  0.00  0.00    -0.336 N 
ATOM      9  HN  UNK N   1      23.813  14.123   7.974  1.00  0.00     0.168 HD
HETATM   10  N   UNK N   1      20.710  13.036  10.708  0.00  0.00    -0.346 N 
ATOM     11  HN  UNK N   1      20.185  12.660  11.497  1.00  0.00     0.167 HD
HETATM   12  N   UNK N   1      21.228  14.083   8.786  0.00  0.00    -0.297 N 
ENDROOT
BRANCH  12  13
HETATM   13  C   UNK N   1      21.092  14.741   7.483  0.00  0.00     0.262 C 
HETATM   14  C   UNK N   1      21.458  16.224   7.477  0.00  0.00     0.198 C 
HETATM   15  C   UNK N   1      20.885  16.577   6.130  0.00  0.00     0.182 C 
HETATM   16  C   UNK N   1      19.548  15.828   6.229  0.00  0.00     0.179 C 
HETATM   17  O   UNK N   1      19.777  14.636   6.966  0.00  0.00    -0.353 OA
BRANCH  14  18
HETATM   18  O   UNK N   1      20.771  16.906   8.490  0.00  0.00    -0.388 OA
HETATM   19  H   UNK N   1      20.368  17.222   9.314  0.00  0.00     0.210 HD
ENDBRANCH  14  18
BRANCH  15  20
HETATM   20  O   UNK N   1      21.687  16.016   5.123  0.00  0.00    -0.390 OA
HETATM   21  H   UNK N   1      22.169  15.880   4.292  0.00  0.00     0.210 HD
ENDBRANCH  15  20
BRANCH  16  22
HETATM   22  C   UNK N   1      18.942  15.503   4.866  0.00  0.00     0.198 C 
BRANCH  22  23
HETATM   23  O   UNK N   1      18.883  16.643   4.063  0.00  0.00    -0.398 OA
HETATM   24  H   UNK N   1      18.378  16.686   3.236  0.00  0.00     0.209 HD
ENDBRANCH  22  23
ENDBRANCH  16  22
ENDBRANCH  12  13
BRANCH   4  25
HETATM   25  N   UNK N   1      22.722  11.584  12.380  0.00  0.00    -0.383 N 
HETATM   26  H   UNK N   1      21.853  11.132  12.479  0.00  0.00     0.157 HD
HETATM   27  H   UNK N   1      23.384  11.536  13.107  0.00  0.00     0.157 HD
ENDBRANCH   4  25
TORSDOF 6
ENDMDL
MODEL 6
REMARK VINA RESULT:      -5.5      4.321      6.029
REMARK  6 active torsions:
REMARK  status: ('A' for Active; 'I' for Inactive)
REMARK    1  A    between atoms: C_4  and  C_1 
REMARK    2  A    between atoms: O_19  and  C_1 
REMARK    3  A    between atoms: C_6  and  O_20 
REMARK    4  A    between atoms: C_7  and  O_21 
REMARK    5  A    between atoms: N_11  and  C_8 
REMARK    6  A    between atoms: C_10  and  N_18 
ROOT
HETATM    1  C   UNK N   1      29.146  15.765   5.524  0.00  0.00     0.183 A 
HETATM    2  C   UNK N   1      29.574  18.716   8.795  0.00  0.00     0.188 A 
HETATM    3  C   UNK N   1      28.530  17.881   7.125  0.00  0.00     0.122 A 
HETATM    4  C   UNK N   1      27.681  17.564   6.074  0.00  0.00     0.131 A 
HETATM    5  C   UNK N   1      29.650  17.161   7.325  0.00  0.00     0.142 A 
HETATM    6  N   UNK N   1      28.007  16.497   5.287  0.00  0.00    -0.337 N 
ATOM      7  HN  UNK N   1      27.395  16.239   4.512  1.00  0.00     0.168 HD
HETATM    8  N   UNK N   1      29.990  16.106   6.546  0.00  0.00    -0.336 N 
ATOM      9  HN  UNK N   1      30.848  15.583   6.716  1.00  0.00     0.168 HD
HETATM   10  N   UNK N   1      28.450  18.867   8.037  0.00  0.00    -0.346 N 
ATOM     11  HN  UNK N   1      27.715  19.566   8.140  1.00  0.00     0.167 HD
HETATM   12  N   UNK N   1      30.329  17.673   8.360  0.00  0.00    -0.297 N 
ENDROOT
BRANCH  12  13
HETATM   13  C   UNK N   1      31.656  17.276   8.840  0.00  0.00     0.262 C 
HETATM   14  C   UNK N   1      32.817  17.760   7.973  0.00  0.00     0.198 C 
HETATM   15  C   UNK N   1      33.900  16.903   8.575  0.00  0.00     0.182 C 
HETATM   16  C   UNK N   1      33.140  15.572   8.660  0.00  0.00     0.179 C 
HETATM   17  O   UNK N   1      31.783  15.870   8.957  0.00  0.00    -0.353 OA
BRANCH  14  18
HETATM   18  O   UNK N   1      32.611  17.410   6.633  0.00  0.00    -0.388 OA
HETATM   19  H   UNK N   1      32.432  16.976   5.784  0.00  0.00     0.210 HD
ENDBRANCH  14  18
BRANCH  15  20
HETATM   20  O   UNK N   1      34.204  17.377   9.862  0.00  0.00    -0.390 OA
HETATM   21  H   UNK N   1      34.434  17.960  10.603  0.00  0.00     0.210 HD
ENDBRANCH  15  20
BRANCH  16  22
HETATM   22  C   UNK N   1      33.716  14.619   9.704  0.00  0.00     0.198 C 
BRANCH  22  23
HETATM   23  O   UNK N   1      33.227  14.920  10.976  0.00  0.00    -0.398 OA
HETATM   24  H   UNK N   1      33.160  14.265  11.689  0.00  0.00     0.209 HD
ENDBRANCH  22  23
ENDBRANCH  16  22
ENDBRANCH  12  13
BRANCH   4  25
HETATM   25  N   UNK N   1      26.527  18.330   5.808  0.00  0.00    -0.383 N 
HETATM   26  H   UNK N   1      25.746  17.918   5.373  0.00  0.00     0.157 HD
HETATM   27  H   UNK N   1      26.502  19.281   6.058  0.00  0.00     0.157 HD
ENDBRANCH   4  25
TORSDOF 6
ENDMDL
MODEL 7
REMARK VINA RESULT:      -5.4      3.085      6.187
REMARK  6 active torsions:
REMARK  status: ('A' for Active; 'I' for Inactive)
REMARK    1  A    between atoms: C_4  and  C_1 
REMARK    2  A    between atoms: O_19  and  C_1 
REMARK    3  A    between atoms: C_6  and  O_20 
REMARK    4  A    between atoms: C_7  and  O_21 
REMARK    5  A    between atoms: N_11  and  C_8 
REMARK    6  A    between atoms: C_10  and  N_18 
ROOT
HETATM    1  C   UNK N   1      36.826  14.673  14.738  0.00  0.00     0.183 A 
HETATM    2  C   UNK N   1      36.146  12.509  10.936  0.00  0.00     0.188 A 
HETATM    3  C   UNK N   1      36.707  12.579  13.000  0.00  0.00     0.122 A 
HETATM    4  C   UNK N   1      37.140  12.350  14.297  0.00  0.00     0.131 A 
HETATM    5  C   UNK N   1      36.376  13.825  12.611  0.00  0.00     0.142 A 
HETATM    6  N   UNK N   1      37.188  13.414  15.154  0.00  0.00    -0.337 N 
ATOM      7  HN  UNK N   1      37.497  13.271  16.115  1.00  0.00     0.168 HD
HETATM    8  N   UNK N   1      36.428  14.889  13.446  0.00  0.00    -0.336 N 
ATOM      9  HN  UNK N   1      36.179  15.824  13.122  1.00  0.00     0.168 HD
HETATM   10  N   UNK N   1      36.569  11.725  11.969  0.00  0.00    -0.346 N 
ATOM     11  HN  UNK N   1      36.740  10.720  11.962  1.00  0.00     0.167 HD
HETATM   12  N   UNK N   1      36.033  13.810  11.316  0.00  0.00    -0.297 N 
ENDROOT
BRANCH  12  13
HETATM   13  C   UNK N   1      35.724  14.960  10.462  0.00  0.00     0.262 C 
HETATM   14  C   UNK N   1      34.513  15.778  10.910  0.00  0.00     0.198 C 
HETATM   15  C   UNK N   1      34.339  16.598   9.659  0.00  0.00     0.182 C 
HETATM   16  C   UNK N   1      34.525  15.490   8.612  0.00  0.00     0.179 C 
HETATM   17  O   UNK N   1      35.493  14.581   9.116  0.00  0.00    -0.353 OA
BRANCH  14  18
HETATM   18  O   UNK N   1      33.402  14.948  11.105  0.00  0.00    -0.388 OA
HETATM   19  H   UNK N   1      32.760  14.271  11.373  0.00  0.00     0.210 HD
ENDBRANCH  14  18
BRANCH  15  20
HETATM   20  O   UNK N   1      35.380  17.536   9.570  0.00  0.00    -0.390 OA
HETATM   21  H   UNK N   1      36.262  17.939   9.537  0.00  0.00     0.210 HD
ENDBRANCH  15  20
BRANCH  16  22
HETATM   22  C   UNK N   1      34.955  16.022   7.248  0.00  0.00     0.198 C 
BRANCH  22  23
HETATM   23  O   UNK N   1      34.456  17.308   7.035  0.00  0.00    -0.398 OA
HETATM   24  H   UNK N   1      34.702  18.072   7.579  0.00  0.00     0.209 HD
ENDBRANCH  22  23
ENDBRANCH  16  22
ENDBRANCH  12  13
BRANCH   4  25
HETATM   25  N   UNK N   1      37.541  11.066  14.721  0.00  0.00    -0.383 N 
HETATM   26  H   UNK N   1      37.191  10.262  14.274  0.00  0.00     0.157 HD
HETATM   27  H   UNK N   1      38.174  10.973  15.468  0.00  0.00     0.157 HD
ENDBRANCH   4  25
TORSDOF 6
ENDMDL
MODEL 8
REMARK VINA RESULT:      -5.4      3.669      6.144
REMARK  6 active torsions:
REMARK  status: ('A' for Active; 'I' for Inactive)
REMARK    1  A    between atoms: C_4  and  C_1 
REMARK    2  A    between atoms: O_19  and  C_1 
REMARK    3  A    between atoms: C_6  and  O_20 
REMARK    4  A    between atoms: C_7  and  O_21 
REMARK    5  A    between atoms: N_11  and  C_8 
REMARK    6  A    between atoms: C_10  and  N_18 
ROOT
HETATM    1  C   UNK N   1      35.108  10.001  13.369  0.00  0.00     0.183 A 
HETATM    2  C   UNK N   1      36.408  13.831  15.169  0.00  0.00     0.188 A 
HETATM    3  C   UNK N   1      35.659  11.831  15.311  0.00  0.00     0.122 A 
HETATM    4  C   UNK N   1      35.145  10.597  15.678  0.00  0.00     0.131 A 
HETATM    5  C   UNK N   1      35.856  12.117  14.009  0.00  0.00     0.142 A 
HETATM    6  N   UNK N   1      34.880   9.692  14.690  0.00  0.00    -0.337 N 
ATOM      7  HN  UNK N   1      34.507   8.775  14.935  1.00  0.00     0.168 HD
HETATM    8  N   UNK N   1      35.589  11.233  13.018  0.00  0.00    -0.336 N 
ATOM      9  HN  UNK N   1      35.741  11.479  12.040  1.00  0.00     0.168 HD
HETATM   10  N   UNK N   1      36.001  12.889  16.069  0.00  0.00    -0.346 N 
ATOM     11  HN  UNK N   1      35.966  12.968  17.084  1.00  0.00     0.167 HD
HETATM   12  N   UNK N   1      36.314  13.371  13.894  0.00  0.00    -0.297 N 
ENDROOT
BRANCH  12  13
HETATM   13  C   UNK N   1      36.544  14.125  12.658  0.00  0.00     0.262 C 
HETATM   14  C   UNK N   1      35.309  14.837  12.109  0.00  0.00     0.198 C 
HETATM   15  C   UNK N   1      35.853  15.179  10.746  0.00  0.00     0.182 C 
HETATM   16  C   UNK N   1      36.526  13.841  10.409  0.00  0.00     0.179 C 
HETATM   17  O   UNK N   1      37.048  13.307  11.617  0.00  0.00    -0.353 OA
BRANCH  14  18
HETATM   18  O   UNK N   1      34.235  13.946  11.993  0.00  0.00    -0.388 OA
HETATM   19  H   UNK N   1      33.583  13.232  12.077  0.00  0.00     0.210 HD
ENDBRANCH  14  18
BRANCH  15  20
HETATM   20  O   UNK N   1      36.814  16.194  10.871  0.00  0.00    -0.390 OA
HETATM   21  H   UNK N   1      37.257  17.057  10.846  0.00  0.00     0.210 HD
ENDBRANCH  15  20
BRANCH  16  22
HETATM   22  C   UNK N   1      37.632  13.974   9.365  0.00  0.00     0.198 C 
BRANCH  22  23
HETATM   23  O   UNK N   1      38.783  14.529   9.926  0.00  0.00    -0.398 OA
HETATM   24  H   UNK N   1      39.571  14.756   9.409  0.00  0.00     0.209 HD
ENDBRANCH  22  23
ENDBRANCH  16  22
ENDBRANCH  12  13
BRANCH   4  25
HETATM   25  N   UNK N   1      34.880  10.286  17.028  0.00  0.00    -0.383 N 
HETATM   26  H   UNK N   1      33.977  10.013  17.309  0.00  0.00     0.157 HD
HETATM   27  H   UNK N   1      35.602  10.343  17.694  0.00  0.00     0.157 HD
ENDBRANCH   4  25
TORSDOF 6
ENDMDL
MODEL 9
REMARK VINA RESULT:      -5.2     13.105     15.807
REMARK  6 active torsions:
REMARK  status: ('A' for Active; 'I' for Inactive)
REMARK    1  A    between atoms: C_4  and  C_1 
REMARK    2  A    between atoms: O_19  and  C_1 
REMARK    3  A    between atoms: C_6  and  O_20 
REMARK    4  A    between atoms: C_7  and  O_21 
REMARK    5  A    between atoms: N_11  and  C_8 
REMARK    6  A    between atoms: C_10  and  N_18 
ROOT
HETATM    1  C   UNK N   1      26.215  20.602   3.045  0.00  0.00     0.183 A 
HETATM    2  C   UNK N   1      23.003  18.178   4.891  0.00  0.00     0.188 A 
HETATM    3  C   UNK N   1      24.984  18.988   4.862  0.00  0.00     0.122 A 
HETATM    4  C   UNK N   1      26.307  19.348   5.072  0.00  0.00     0.131 A 
HETATM    5  C   UNK N   1      24.337  19.417   3.762  0.00  0.00     0.142 A 
HETATM    6  N   UNK N   1      26.903  20.162   4.151  0.00  0.00    -0.337 N 
ATOM      7  HN  UNK N   1      27.873  20.446   4.286  1.00  0.00     0.168 HD
HETATM    8  N   UNK N   1      24.919  20.216   2.836  0.00  0.00    -0.336 N 
ATOM      9  HN  UNK N   1      24.407  20.520   2.008  1.00  0.00     0.168 HD
HETATM   10  N   UNK N   1      24.170  18.208   5.598  0.00  0.00    -0.346 N 
ATOM     11  HN  UNK N   1      24.378  17.746   6.483  1.00  0.00     0.167 HD
HETATM   12  N   UNK N   1      23.096  18.912   3.751  0.00  0.00    -0.297 N 
ENDROOT
BRANCH  12  13
HETATM   13  C   UNK N   1      22.098  19.022   2.683  0.00  0.00     0.262 C 
HETATM   14  C   UNK N   1      21.175  20.234   2.797  0.00  0.00     0.198 C 
HETATM   15  C   UNK N   1      20.148  19.813   1.779  0.00  0.00     0.182 C 
HETATM   16  C   UNK N   1      19.996  18.339   2.180  0.00  0.00     0.179 C 
HETATM   17  O   UNK N   1      21.269  17.875   2.604  0.00  0.00    -0.353 OA
BRANCH  14  18
HETATM   18  O   UNK N   1      20.597  20.295   4.072  0.00  0.00    -0.388 OA
HETATM   19  H   UNK N   1      20.047  20.217   4.867  0.00  0.00     0.210 HD
ENDBRANCH  14  18
BRANCH  15  20
HETATM   20  O   UNK N   1      20.701  19.917   0.492  0.00  0.00    -0.390 OA
HETATM   21  H   UNK N   1      21.198  19.727  -0.319  0.00  0.00     0.210 HD
ENDBRANCH  15  20
BRANCH  16  22
HETATM   22  C   UNK N   1      19.461  17.463   1.049  0.00  0.00     0.198 C 
BRANCH  22  23
HETATM   23  O   UNK N   1      20.507  16.906   0.314  0.00  0.00    -0.398 OA
HETATM   24  H   UNK N   1      20.491  16.000  -0.034  0.00  0.00     0.209 HD
ENDBRANCH  22  23
ENDBRANCH  16  22
ENDBRANCH  12  13
BRANCH   4  25
HETATM   25  N   UNK N   1      27.027  18.875   6.188  0.00  0.00    -0.383 N 
HETATM   26  H   UNK N   1      27.826  19.354   6.505  0.00  0.00     0.157 HD
HETATM   27  H   UNK N   1      26.729  18.060   6.653  0.00  0.00     0.157 HD
ENDBRANCH   4  25
TORSDOF 6
ENDMDL
