MODEL 1
REMARK VINA RESULT:      -6.0      0.000      0.000
REMARK  5 active torsions:
REMARK  status: ('A' for Active; 'I' for Inactive)
REMARK    1  A    between atoms: N_1  and  C_2 
REMARK    2  A    between atoms: C_14  and  N_13 
REMARK    3  A    between atoms: C_16  and  C_17 
REMARK    4  A    between atoms: C_18  and  O_19 
REMARK    5  A    between atoms: C_20  and  O_21 
ROOT
HETATM    1  C   UNK N   1      33.261  16.473   8.757  0.00  0.00     0.131 A 
HETATM    2  N   UNK N   1      32.478  15.421   8.372  0.00  0.00    -0.337 N 
ATOM      3  HN  UNK N   1      31.802  15.546   7.618  1.00  0.00     0.168 HD
HETATM    4  C   UNK N   1      32.589  14.196   8.986  0.00  0.00     0.183 A 
HETATM    5  N   UNK N   1      33.487  14.007  10.002  0.00  0.00    -0.336 N 
ATOM      6  HN  UNK N   1      33.572  13.102  10.467  1.00  0.00     0.168 HD
HETATM    7  C   UNK N   1      34.260  15.058  10.374  0.00  0.00     0.142 A 
HETATM    8  C   UNK N   1      34.165  16.266   9.784  0.00  0.00     0.122 A 
HETATM    9  N   UNK N   1      35.019  17.126  10.368  0.00  0.00    -0.346 N 
ATOM     10  HN  UNK N   1      35.178  18.106  10.131  1.00  0.00     0.167 HD
HETATM   11  C   UNK N   1      35.622  16.393  11.345  0.00  0.00     0.188 A 
HETATM   12  N   UNK N   1      35.171  15.111  11.357  0.00  0.00    -0.297 N 
ENDROOT
BRANCH  12  13
HETATM   13  C   UNK N   1      35.561  14.069  12.315  0.00  0.00     0.262 C 
HETATM   14  O   UNK N   1      34.442  13.398  12.859  0.00  0.00    -0.353 OA
HETATM   15  C   UNK N   1      34.833  12.045  12.975  0.00  0.00     0.184 C 
HETATM   16  C   UNK N   1      36.327  11.989  12.759  0.00  0.00     0.182 C 
HETATM   17  C   UNK N   1      36.461  13.022  11.704  0.00  0.00     0.198 C 
BRANCH  15  18
HETATM   18  C   UNK N   1      34.463  11.506  14.347  0.00  0.00     0.256 C 
HETATM   19  F   UNK N   1      33.316  10.735  14.273  0.00  0.00    -0.253 F 
ENDBRANCH  15  18
BRANCH  16  20
HETATM   20  O   UNK N   1      36.745  10.737  12.308  0.00  0.00    -0.390 OA
HETATM   21  H   UNK N   1      36.324   9.906  12.039  0.00  0.00     0.210 HD
ENDBRANCH  16  20
BRANCH  17  22
HETATM   22  O   UNK N   1      37.777  13.481  11.627  0.00  0.00    -0.388 OA
HETATM   23  H   UNK N   1      38.060  14.283  11.163  0.00  0.00     0.210 HD
ENDBRANCH  17  22
ENDBRANCH  12  13
BRANCH   1  24
HETATM   24  N   UNK N   1      33.129  17.732   8.137  0.00  0.00    -0.383 N 
HETATM   25  H   UNK N   1      33.027  17.796   7.160  0.00  0.00     0.157 HD
HETATM   26  H   UNK N   1      33.139  18.551   8.684  0.00  0.00     0.157 HD
ENDBRANCH   1  24
TORSDOF 5
ENDMDL
MODEL 2
REMARK VINA RESULT:      -6.0     12.561     14.888
REMARK  5 active torsions:
REMARK  status: ('A' for Active; 'I' for Inactive)
REMARK    1  A    between atoms: N_1  and  C_2 
REMARK    2  A    between atoms: C_14  and  N_13 
REMARK    3  A    between atoms: C_16  and  C_17 
REMARK    4  A    between atoms: C_18  and  O_19 
REMARK    5  A    between atoms: C_20  and  O_21 
ROOT
HETATM    1  C   UNK N   1      20.193  18.614   2.319  0.00  0.00     0.131 A 
HETATM    2  N   UNK N   1      19.962  19.824   1.728  0.00  0.00    -0.337 N 
ATOM      3  HN  UNK N   1      19.114  19.960   1.176  1.00  0.00     0.168 HD
HETATM    4  C   UNK N   1      20.853  20.861   1.868  0.00  0.00     0.183 A 
HETATM    5  N   UNK N   1      21.998  20.699   2.602  0.00  0.00    -0.336 N 
ATOM      6  HN  UNK N   1      22.668  21.462   2.705  1.00  0.00     0.168 HD
HETATM    7  C   UNK N   1      22.216  19.494   3.185  0.00  0.00     0.142 A 
HETATM    8  C   UNK N   1      21.354  18.466   3.059  0.00  0.00     0.122 A 
HETATM    9  N   UNK N   1      21.831  17.388   3.708  0.00  0.00    -0.346 N 
ATOM     10  HN  UNK N   1      21.397  16.469   3.798  1.00  0.00     0.167 HD
HETATM   11  C   UNK N   1      23.025  17.802   4.218  0.00  0.00     0.188 A 
HETATM   12  N   UNK N   1      23.275  19.102   3.911  0.00  0.00    -0.297 N 
ENDROOT
BRANCH  12  13
HETATM   13  C   UNK N   1      24.493  19.849   4.247  0.00  0.00     0.262 C 
HETATM   14  O   UNK N   1      25.082  19.397   5.449  0.00  0.00    -0.353 OA
HETATM   15  C   UNK N   1      26.477  19.459   5.232  0.00  0.00     0.184 C 
HETATM   16  C   UNK N   1      26.700  20.249   3.963  0.00  0.00     0.182 C 
HETATM   17  C   UNK N   1      25.546  19.765   3.168  0.00  0.00     0.198 C 
BRANCH  15  18
HETATM   18  C   UNK N   1      27.164  20.127   6.413  0.00  0.00     0.256 C 
HETATM   19  F   UNK N   1      27.190  21.500   6.248  0.00  0.00    -0.253 F 
ENDBRANCH  15  18
BRANCH  16  20
HETATM   20  O   UNK N   1      27.914  19.931   3.354  0.00  0.00    -0.390 OA
HETATM   21  H   UNK N   1      28.243  19.822   2.448  0.00  0.00     0.210 HD
ENDBRANCH  16  20
BRANCH  17  22
HETATM   22  O   UNK N   1      25.262  20.645   2.124  0.00  0.00    -0.388 OA
HETATM   23  H   UNK N   1      24.465  20.617   1.574  0.00  0.00     0.210 HD
ENDBRANCH  17  22
ENDBRANCH  12  13
BRANCH   1  24
HETATM   24  N   UNK N   1      19.285  17.548   2.157  0.00  0.00    -0.383 N 
HETATM   25  H   UNK N   1      19.591  16.685   1.795  0.00  0.00     0.157 HD
HETATM   26  H   UNK N   1      18.340  17.667   2.409  0.00  0.00     0.157 HD
ENDBRANCH   1  24
TORSDOF 5
ENDMDL
MODEL 3
REMARK VINA RESULT:      -5.8      4.012      5.792
REMARK  5 active torsions:
REMARK  status: ('A' for Active; 'I' for Inactive)
REMARK    1  A    between atoms: N_1  and  C_2 
REMARK    2  A    between atoms: C_14  and  N_13 
REMARK    3  A    between atoms: C_16  and  C_17 
REMARK    4  A    between atoms: C_18  and  O_19 
REMARK    5  A    between atoms: C_20  and  O_21 
ROOT
HETATM    1  C   UNK N   1      28.356  18.419   7.715  0.00  0.00     0.131 A 
HETATM    2  N   UNK N   1      28.332  18.701   9.052  0.00  0.00    -0.337 N 
ATOM      3  HN  UNK N   1      27.561  19.247   9.438  1.00  0.00     0.168 HD
HETATM    4  C   UNK N   1      29.332  18.258   9.885  0.00  0.00     0.183 A 
HETATM    5  N   UNK N   1      30.377  17.526   9.388  0.00  0.00    -0.336 N 
ATOM      6  HN  UNK N   1      31.126  17.199   9.999  1.00  0.00     0.168 HD
HETATM    7  C   UNK N   1      30.388  17.252   8.060  0.00  0.00     0.142 A 
HETATM    8  C   UNK N   1      29.418  17.677   7.228  0.00  0.00     0.122 A 
HETATM    9  N   UNK N   1      29.695  17.294   5.969  0.00  0.00    -0.346 N 
ATOM     10  HN  UNK N   1      29.142  17.460   5.128  1.00  0.00     0.167 HD
HETATM   11  C   UNK N   1      30.882  16.632   6.071  0.00  0.00     0.188 A 
HETATM   12  N   UNK N   1      31.320  16.590   7.357  0.00  0.00    -0.297 N 
ENDROOT
BRANCH  12  13
HETATM   13  C   UNK N   1      32.588  16.011   7.818  0.00  0.00     0.262 C 
HETATM   14  O   UNK N   1      33.227  16.823   8.782  0.00  0.00    -0.353 OA
HETATM   15  C   UNK N   1      33.799  15.926   9.712  0.00  0.00     0.184 C 
HETATM   16  C   UNK N   1      33.732  14.544   9.102  0.00  0.00     0.182 C 
HETATM   17  C   UNK N   1      32.418  14.639   8.424  0.00  0.00     0.198 C 
BRANCH  15  18
HETATM   18  C   UNK N   1      35.237  16.319  10.007  0.00  0.00     0.256 C 
HETATM   19  F   UNK N   1      35.384  16.664  11.338  0.00  0.00    -0.253 F 
ENDBRANCH  15  18
BRANCH  16  20
HETATM   20  O   UNK N   1      33.740  13.542  10.072  0.00  0.00    -0.390 OA
HETATM   21  H   UNK N   1      33.706  12.573  10.088  0.00  0.00     0.210 HD
ENDBRANCH  16  20
BRANCH  17  22
HETATM   22  O   UNK N   1      32.303  13.666   7.431  0.00  0.00    -0.388 OA
HETATM   23  H   UNK N   1      32.562  12.737   7.530  0.00  0.00     0.210 HD
ENDBRANCH  17  22
ENDBRANCH  12  13
BRANCH   1  24
HETATM   24  N   UNK N   1      27.338  18.892   6.862  0.00  0.00    -0.383 N 
HETATM   25  H   UNK N   1      26.646  18.278   6.526  0.00  0.00     0.157 HD
HETATM   26  H   UNK N   1      27.318  19.842   6.602  0.00  0.00     0.157 HD
ENDBRANCH   1  24
TORSDOF 5
ENDMDL
MODEL 4
REMARK VINA RESULT:      -5.7     13.943     15.382
REMARK  5 active torsions:
REMARK  status: ('A' for Active; 'I' for Inactive)
REMARK    1  A    between atoms: N_1  and  C_2 
REMARK    2  A    between atoms: C_14  and  N_13 
REMARK    3  A    between atoms: C_16  and  C_17 
REMARK    4  A    between atoms: C_18  and  O_19 
REMARK    5  A    between atoms: C_20  and  O_21 
ROOT
HETATM    1  C   UNK N   1      46.483  16.897   3.868  0.00  0.00     0.131 A 
HETATM    2  N   UNK N   1      47.717  17.431   4.115  0.00  0.00    -0.337 N 
ATOM      3  HN  UNK N   1      48.469  16.826   4.449  1.00  0.00     0.168 HD
HETATM    4  C   UNK N   1      47.961  18.769   3.919  0.00  0.00     0.183 A 
HETATM    5  N   UNK N   1      46.966  19.599   3.475  0.00  0.00    -0.336 N 
ATOM      6  HN  UNK N   1      47.137  20.595   3.332  1.00  0.00     0.168 HD
HETATM    7  C   UNK N   1      45.746  19.058   3.231  0.00  0.00     0.142 A 
HETATM    8  C   UNK N   1      45.488  17.748   3.417  0.00  0.00     0.122 A 
HETATM    9  N   UNK N   1      44.199  17.492   3.133  0.00  0.00    -0.346 N 
ATOM     10  HN  UNK N   1      43.717  16.593   3.171  1.00  0.00     0.167 HD
HETATM   11  C   UNK N   1      43.683  18.703   2.782  0.00  0.00     0.188 A 
HETATM   12  N   UNK N   1      44.627  19.680   2.830  0.00  0.00    -0.297 N 
ENDROOT
BRANCH  12  13
HETATM   13  C   UNK N   1      44.404  21.108   2.574  0.00  0.00     0.262 C 
HETATM   14  O   UNK N   1      43.151  21.353   1.967  0.00  0.00    -0.353 OA
HETATM   15  C   UNK N   1      42.681  22.554   2.544  0.00  0.00     0.184 C 
HETATM   16  C   UNK N   1      43.836  23.173   3.297  0.00  0.00     0.182 C 
HETATM   17  C   UNK N   1      44.468  21.943   3.830  0.00  0.00     0.198 C 
BRANCH  15  18
HETATM   18  C   UNK N   1      42.174  23.494   1.462  0.00  0.00     0.256 C 
HETATM   19  F   UNK N   1      40.959  24.046   1.828  0.00  0.00    -0.253 F 
ENDBRANCH  15  18
BRANCH  16  20
HETATM   20  O   UNK N   1      43.402  24.015   4.321  0.00  0.00    -0.390 OA
HETATM   21  H   UNK N   1      42.571  24.441   4.582  0.00  0.00     0.210 HD
ENDBRANCH  16  20
BRANCH  17  22
HETATM   22  O   UNK N   1      45.791  22.188   4.199  0.00  0.00    -0.388 OA
HETATM   23  H   UNK N   1      46.217  23.059   4.195  0.00  0.00     0.210 HD
ENDBRANCH  17  22
ENDBRANCH  12  13
BRANCH   1  24
HETATM   24  N   UNK N   1      46.234  15.528   4.089  0.00  0.00    -0.383 N 
HETATM   25  H   UNK N   1      46.702  15.047   4.809  0.00  0.00     0.157 HD
HETATM   26  H   UNK N   1      45.587  15.049   3.520  0.00  0.00     0.157 HD
ENDBRANCH   1  24
TORSDOF 5
ENDMDL
MODEL 5
REMARK VINA RESULT:      -5.6      4.601      7.305
REMARK  5 active torsions:
REMARK  status: ('A' for Active; 'I' for Inactive)
REMARK    1  A    between atoms: N_1  and  C_2 
REMARK    2  A    between atoms: C_14  and  N_13 
REMARK    3  A    between atoms: C_16  and  C_17 
REMARK    4  A    between atoms: C_18  and  O_19 
REMARK    5  A    between atoms: C_20  and  O_21 
ROOT
HETATM    1  C   UNK N   1      35.190  12.216  19.185  0.00  0.00     0.131 A 
HETATM    2  N   UNK N   1      35.285  13.579  19.220  0.00  0.00    -0.337 N 
ATOM      3  HN  UNK N   1      35.236  14.064  20.117  1.00  0.00     0.168 HD
HETATM    4  C   UNK N   1      35.445  14.306  18.065  0.00  0.00     0.183 A 
HETATM    5  N   UNK N   1      35.509  13.676  16.850  0.00  0.00    -0.336 N 
ATOM      6  HN  UNK N   1      35.622  14.210  15.988  1.00  0.00     0.168 HD
HETATM    7  C   UNK N   1      35.416  12.324  16.829  0.00  0.00     0.142 A 
HETATM    8  C   UNK N   1      35.259  11.594  17.950  0.00  0.00     0.122 A 
HETATM    9  N   UNK N   1      35.163  10.289  17.637  0.00  0.00    -0.346 N 
ATOM     10  HN  UNK N   1      35.049   9.499  18.273  1.00  0.00     0.167 HD
HETATM   11  C   UNK N   1      35.253  10.261  16.277  0.00  0.00     0.188 A 
HETATM   12  N   UNK N   1      35.418  11.508  15.763  0.00  0.00    -0.297 N 
ENDROOT
BRANCH  12  13
HETATM   13  C   UNK N   1      35.489  11.851  14.337  0.00  0.00     0.262 C 
HETATM   14  O   UNK N   1      34.842  13.074  14.048  0.00  0.00    -0.353 OA
HETATM   15  C   UNK N   1      35.642  13.700  13.065  0.00  0.00     0.184 C 
HETATM   16  C   UNK N   1      36.625  12.669  12.562  0.00  0.00     0.182 C 
HETATM   17  C   UNK N   1      36.908  11.960  13.833  0.00  0.00     0.198 C 
BRANCH  15  18
HETATM   18  C   UNK N   1      34.772  14.217  11.931  0.00  0.00     0.256 C 
HETATM   19  F   UNK N   1      35.051  15.547  11.671  0.00  0.00    -0.253 F 
ENDBRANCH  15  18
BRANCH  16  20
HETATM   20  O   UNK N   1      37.775  13.255  12.033  0.00  0.00    -0.390 OA
HETATM   21  H   UNK N   1      38.533  13.756  12.373  0.00  0.00     0.210 HD
ENDBRANCH  16  20
BRANCH  17  22
HETATM   22  O   UNK N   1      37.447  10.697  13.584  0.00  0.00    -0.388 OA
HETATM   23  H   UNK N   1      37.183  10.113  12.857  0.00  0.00     0.210 HD
ENDBRANCH  17  22
ENDBRANCH  12  13
BRANCH   1  24
HETATM   24  N   UNK N   1      35.007  11.477  20.371  0.00  0.00    -0.383 N 
HETATM   25  H   UNK N   1      35.781  11.086  20.838  0.00  0.00     0.157 HD
HETATM   26  H   UNK N   1      34.100  11.351  20.735  0.00  0.00     0.157 HD
ENDBRANCH   1  24
TORSDOF 5
ENDMDL
MODEL 6
REMARK VINA RESULT:      -5.5      3.538      5.788
REMARK  5 active torsions:
REMARK  status: ('A' for Active; 'I' for Inactive)
REMARK    1  A    between atoms: N_1  and  C_2 
REMARK    2  A    between atoms: C_14  and  N_13 
REMARK    3  A    between atoms: C_16  and  C_17 
REMARK    4  A    between atoms: C_18  and  O_19 
REMARK    5  A    between atoms: C_20  and  O_21 
ROOT
HETATM    1  C   UNK N   1      36.219  12.940  13.297  0.00  0.00     0.131 A 
HETATM    2  N   UNK N   1      35.658  11.741  12.957  0.00  0.00    -0.337 N 
ATOM      3  HN  UNK N   1      35.834  10.920  13.537  1.00  0.00     0.168 HD
HETATM    4  C   UNK N   1      34.859  11.626  11.844  0.00  0.00     0.183 A 
HETATM    5  N   UNK N   1      34.613  12.714  11.049  0.00  0.00    -0.336 N 
ATOM      6  HN  UNK N   1      34.026  12.635  10.218  1.00  0.00     0.168 HD
HETATM    7  C   UNK N   1      35.174  13.898  11.398  0.00  0.00     0.142 A 
HETATM    8  C   UNK N   1      35.960  14.031  12.485  0.00  0.00     0.122 A 
HETATM    9  N   UNK N   1      36.405  15.297  12.574  0.00  0.00    -0.346 N 
ATOM     10  HN  UNK N   1      37.007  15.699  13.293  1.00  0.00     0.167 HD
HETATM   11  C   UNK N   1      35.869  15.921  11.487  0.00  0.00     0.188 A 
HETATM   12  N   UNK N   1      35.100  15.073  10.755  0.00  0.00    -0.297 N 
ENDROOT
BRANCH  12  13
HETATM   13  C   UNK N   1      34.424  15.395   9.492  0.00  0.00     0.262 C 
HETATM   14  O   UNK N   1      34.151  16.777   9.369  0.00  0.00    -0.353 OA
HETATM   15  C   UNK N   1      34.367  17.084   8.007  0.00  0.00     0.184 C 
HETATM   16  C   UNK N   1      34.489  15.774   7.264  0.00  0.00     0.182 C 
HETATM   17  C   UNK N   1      35.225  14.984   8.280  0.00  0.00     0.198 C 
BRANCH  15  18
HETATM   18  C   UNK N   1      33.213  17.910   7.464  0.00  0.00     0.256 C 
HETATM   19  F   UNK N   1      32.384  18.323   8.492  0.00  0.00    -0.253 F 
ENDBRANCH  15  18
BRANCH  16  20
HETATM   20  O   UNK N   1      35.222  15.906   6.085  0.00  0.00    -0.390 OA
HETATM   21  H   UNK N   1      35.155  15.587   5.171  0.00  0.00     0.210 HD
ENDBRANCH  16  20
BRANCH  17  22
HETATM   22  O   UNK N   1      35.091  13.617   8.034  0.00  0.00    -0.388 OA
HETATM   23  H   UNK N   1      34.581  13.230   7.306  0.00  0.00     0.210 HD
ENDBRANCH  17  22
ENDBRANCH  12  13
BRANCH   1  24
HETATM   24  N   UNK N   1      37.053  13.049  14.428  0.00  0.00    -0.383 N 
HETATM   25  H   UNK N   1      37.475  12.248  14.813  0.00  0.00     0.157 HD
HETATM   26  H   UNK N   1      37.215  13.932  14.835  0.00  0.00     0.157 HD
ENDBRANCH   1  24
TORSDOF 5
ENDMDL
MODEL 7
REMARK VINA RESULT:      -5.5     11.901     14.212
REMARK  5 active torsions:
REMARK  status: ('A' for Active; 'I' for Inactive)
REMARK    1  A    between atoms: N_1  and  C_2 
REMARK    2  A    between atoms: C_14  and  N_13 
REMARK    3  A    between atoms: C_16  and  C_17 
REMARK    4  A    between atoms: C_18  and  O_19 
REMARK    5  A    between atoms: C_20  and  O_21 
ROOT
HETATM    1  C   UNK N   1      23.274  12.093  11.647  0.00  0.00     0.131 A 
HETATM    2  N   UNK N   1      24.522  12.292  11.126  0.00  0.00    -0.337 N 
ATOM      3  HN  UNK N   1      25.341  11.962  11.639  1.00  0.00     0.168 HD
HETATM    4  C   UNK N   1      24.691  12.928   9.919  0.00  0.00     0.183 A 
HETATM    5  N   UNK N   1      23.608  13.381   9.214  0.00  0.00    -0.336 N 
ATOM      6  HN  UNK N   1      23.725  13.859   8.320  1.00  0.00     0.168 HD
HETATM    7  C   UNK N   1      22.375  13.177   9.741  0.00  0.00     0.142 A 
HETATM    8  C   UNK N   1      22.189  12.555  10.922  0.00  0.00     0.122 A 
HETATM    9  N   UNK N   1      20.877  12.518  11.217  0.00  0.00    -0.346 N 
ATOM     10  HN  UNK N   1      20.432  12.104  12.037  1.00  0.00     0.167 HD
HETATM   11  C   UNK N   1      20.278  13.156  10.173  0.00  0.00     0.188 A 
HETATM   12  N   UNK N   1      21.188  13.562   9.248  0.00  0.00    -0.297 N 
ENDROOT
BRANCH  12  13
HETATM   13  C   UNK N   1      20.897  14.331   8.032  0.00  0.00     0.262 C 
HETATM   14  O   UNK N   1      21.556  15.582   8.020  0.00  0.00    -0.353 OA
HETATM   15  C   UNK N   1      21.952  15.787   6.679  0.00  0.00     0.184 C 
HETATM   16  C   UNK N   1      21.242  14.751   5.838  0.00  0.00     0.182 C 
HETATM   17  C   UNK N   1      21.292  13.601   6.771  0.00  0.00     0.198 C 
BRANCH  15  18
HETATM   18  C   UNK N   1      21.587  17.192   6.231  0.00  0.00     0.256 C 
HETATM   19  F   UNK N   1      20.871  17.846   7.218  0.00  0.00    -0.253 F 
ENDBRANCH  15  18
BRANCH  16  20
HETATM   20  O   UNK N   1      21.925  14.482   4.652  0.00  0.00    -0.390 OA
HETATM   21  H   UNK N   1      22.378  13.722   4.254  0.00  0.00     0.210 HD
ENDBRANCH  16  20
BRANCH  17  22
HETATM   22  O   UNK N   1      20.335  12.645   6.428  0.00  0.00    -0.388 OA
HETATM   23  H   UNK N   1      19.513  12.481   6.915  0.00  0.00     0.210 HD
ENDBRANCH  17  22
ENDBRANCH  12  13
BRANCH   1  24
HETATM   24  N   UNK N   1      23.108  11.458  12.893  0.00  0.00    -0.383 N 
HETATM   25  H   UNK N   1      22.219  11.143  13.176  0.00  0.00     0.157 HD
HETATM   26  H   UNK N   1      23.885  11.327  13.485  0.00  0.00     0.157 HD
ENDBRANCH   1  24
TORSDOF 5
ENDMDL
MODEL 8
REMARK VINA RESULT:      -5.4      3.431      5.766
REMARK  5 active torsions:
REMARK  status: ('A' for Active; 'I' for Inactive)
REMARK    1  A    between atoms: N_1  and  C_2 
REMARK    2  A    between atoms: C_14  and  N_13 
REMARK    3  A    between atoms: C_16  and  C_17 
REMARK    4  A    between atoms: C_18  and  O_19 
REMARK    5  A    between atoms: C_20  and  O_21 
ROOT
HETATM    1  C   UNK N   1      35.284  11.435  14.895  0.00  0.00     0.131 A 
HETATM    2  N   UNK N   1      34.570  10.448  14.276  0.00  0.00    -0.337 N 
ATOM      3  HN  UNK N   1      34.364   9.584  14.779  1.00  0.00     0.168 HD
HETATM    4  C   UNK N   1      34.124  10.602  12.985  0.00  0.00     0.183 A 
HETATM    5  N   UNK N   1      34.392  11.752  12.290  0.00  0.00    -0.336 N 
ATOM      6  HN  UNK N   1      34.069  11.872  11.329  1.00  0.00     0.168 HD
HETATM    7  C   UNK N   1      35.100  12.724  12.916  0.00  0.00     0.142 A 
HETATM    8  C   UNK N   1      35.545  12.592  14.180  0.00  0.00     0.122 A 
HETATM    9  N   UNK N   1      36.241  13.686  14.537  0.00  0.00    -0.346 N 
ATOM     10  HN  UNK N   1      36.689  13.878  15.433  1.00  0.00     0.167 HD
HETATM   11  C   UNK N   1      36.212  14.480  13.430  0.00  0.00     0.188 A 
HETATM   12  N   UNK N   1      35.505  13.905  12.422  0.00  0.00    -0.297 N 
ENDROOT
BRANCH  12  13
HETATM   13  C   UNK N   1      35.323  14.454  11.073  0.00  0.00     0.262 C 
HETATM   14  O   UNK N   1      33.995  14.309  10.611  0.00  0.00    -0.353 OA
HETATM   15  C   UNK N   1      33.715  15.492   9.890  0.00  0.00     0.184 C 
HETATM   16  C   UNK N   1      35.027  16.215   9.687  0.00  0.00     0.182 C 
HETATM   17  C   UNK N   1      35.673  15.920  10.988  0.00  0.00     0.198 C 
BRANCH  15  18
HETATM   18  C   UNK N   1      33.069  15.155   8.556  0.00  0.00     0.256 C 
HETATM   19  F   UNK N   1      32.531  16.290   7.976  0.00  0.00    -0.253 F 
ENDBRANCH  15  18
BRANCH  16  20
HETATM   20  O   UNK N   1      34.846  17.586   9.501  0.00  0.00    -0.390 OA
HETATM   21  H   UNK N   1      34.400  18.310   9.968  0.00  0.00     0.210 HD
ENDBRANCH  16  20
BRANCH  17  22
HETATM   22  O   UNK N   1      37.054  16.099  10.904  0.00  0.00    -0.388 OA
HETATM   23  H   UNK N   1      37.678  15.453  10.538  0.00  0.00     0.210 HD
ENDBRANCH  17  22
ENDBRANCH  12  13
BRANCH   1  24
HETATM   24  N   UNK N   1      35.755  11.264  16.212  0.00  0.00    -0.383 N 
HETATM   25  H   UNK N   1      36.096  12.034  16.722  0.00  0.00     0.157 HD
HETATM   26  H   UNK N   1      35.742  10.370  16.626  0.00  0.00     0.157 HD
ENDBRANCH   1  24
TORSDOF 5
ENDMDL
MODEL 9
REMARK VINA RESULT:      -5.4      6.080      7.400
REMARK  5 active torsions:
REMARK  status: ('A' for Active; 'I' for Inactive)
REMARK    1  A    between atoms: N_1  and  C_2 
REMARK    2  A    between atoms: C_14  and  N_13 
REMARK    3  A    between atoms: C_16  and  C_17 
REMARK    4  A    between atoms: C_18  and  O_19 
REMARK    5  A    between atoms: C_20  and  O_21 
ROOT
HETATM    1  C   UNK N   1      32.739  13.577   2.890  0.00  0.00     0.131 A 
HETATM    2  N   UNK N   1      32.381  12.609   3.786  0.00  0.00    -0.337 N 
ATOM      3  HN  UNK N   1      32.317  11.638   3.478  1.00  0.00     0.168 HD
HETATM    4  C   UNK N   1      32.106  12.924   5.095  0.00  0.00     0.183 A 
HETATM    5  N   UNK N   1      32.182  14.221   5.528  0.00  0.00    -0.336 N 
ATOM      6  HN  UNK N   1      31.974  14.463   6.498  1.00  0.00     0.168 HD
HETATM    7  C   UNK N   1      32.540  15.172   4.631  0.00  0.00     0.142 A 
HETATM    8  C   UNK N   1      32.813  14.883   3.344  0.00  0.00     0.122 A 
HETATM    9  N   UNK N   1      33.107  16.012   2.675  0.00  0.00    -0.346 N 
ATOM     10  HN  UNK N   1      33.363  16.108   1.691  1.00  0.00     0.167 HD
HETATM   11  C   UNK N   1      32.984  16.999   3.607  0.00  0.00     0.188 A 
HETATM   12  N   UNK N   1      32.643  16.497   4.822  0.00  0.00    -0.297 N 
ENDROOT
BRANCH  12  13
HETATM   13  C   UNK N   1      32.370  17.280   6.033  0.00  0.00     0.262 C 
HETATM   14  O   UNK N   1      31.194  16.854   6.692  0.00  0.00    -0.353 OA
HETATM   15  C   UNK N   1      31.478  16.954   8.073  0.00  0.00     0.184 C 
HETATM   16  C   UNK N   1      32.761  17.739   8.212  0.00  0.00     0.182 C 
HETATM   17  C   UNK N   1      33.497  17.217   7.036  0.00  0.00     0.198 C 
BRANCH  15  18
HETATM   18  C   UNK N   1      30.336  17.649   8.796  0.00  0.00     0.256 C 
HETATM   19  F   UNK N   1      30.664  18.964   9.072  0.00  0.00    -0.253 F 
ENDBRANCH  15  18
BRANCH  16  20
HETATM   20  O   UNK N   1      33.426  17.451   9.404  0.00  0.00    -0.390 OA
HETATM   21  H   UNK N   1      33.622  17.914  10.234  0.00  0.00     0.210 HD
ENDBRANCH  16  20
BRANCH  17  22
HETATM   22  O   UNK N   1      34.532  18.082   6.677  0.00  0.00    -0.388 OA
HETATM   23  H   UNK N   1      34.430  18.872   6.126  0.00  0.00     0.210 HD
ENDBRANCH  17  22
ENDBRANCH  12  13
BRANCH   1  24
HETATM   24  N   UNK N   1      33.001  13.252   1.544  0.00  0.00    -0.383 N 
HETATM   25  H   UNK N   1      32.260  13.148   0.905  0.00  0.00     0.157 HD
HETATM   26  H   UNK N   1      33.930  13.128   1.242  0.00  0.00     0.157 HD
ENDBRANCH   1  24
TORSDOF 5
ENDMDL
