MODEL 1
REMARK VINA RESULT:      -5.9      0.000      0.000
REMARK  8 active torsions:
REMARK  status: ('A' for Active; 'I' for Inactive)
REMARK    1  A    between atoms: O_1  and  P_2 
REMARK    2  A    between atoms: P_2  and  O_3 
REMARK    3  A    between atoms: P_2  and  C_5 
REMARK    4  A    between atoms: C_5  and  N_6 
REMARK    5  A    between atoms: C_5  and  P_15 
REMARK    6  A    between atoms: N_6  and  C_7 
REMARK    7  A    between atoms: P_15  and  O_16 
REMARK    8  A    between atoms: P_15  and  O_17 
ROOT
HETATM    1  C   UNK N   1      34.549  16.365   8.988  0.00  0.00     0.307 C 
ENDROOT
BRANCH   1   2
HETATM    2  P   UNK N   1      34.259  17.962   8.065  0.00  0.00     0.271 P 
HETATM    3  O   UNK N   1      32.850  18.537   8.363  0.00  0.00    -0.652 OA
BRANCH   2   4
HETATM    4  O   UNK N   1      34.335  17.878   6.331  0.00  0.00    -0.327 OA
HETATM    5  H   UNK N   1      34.069  17.488   5.485  0.00  0.00     0.220 HD
ENDBRANCH   2   4
BRANCH   2   6
HETATM    6  O   UNK N   1      35.338  19.232   8.548  0.00  0.00    -0.327 OA
HETATM    7  H   UNK N   1      36.024  19.394   9.213  0.00  0.00     0.220 HD
ENDBRANCH   2   6
ENDBRANCH   1   2
BRANCH   1   8
HETATM    8  N   UNK N   1      35.377  16.561  10.157  0.00  0.00    -0.352 N 
HETATM    9  H   UNK N   1      35.546  17.471  10.493  0.00  0.00     0.162 HD
BRANCH   8  10
HETATM   10  C   UNK N   1      35.950  15.434  10.829  0.00  0.00     0.102 A 
HETATM   11  C   UNK N   1      36.801  14.571  10.128  0.00  0.00     0.050 A 
HETATM   12  C   UNK N   1      37.320  13.448  10.792  0.00  0.00     0.029 A 
HETATM   13  C   UNK N   1      36.993  13.221  12.129  0.00  0.00     0.049 A 
HETATM   14 Cl   UNK N   1      37.649  11.844  12.991  0.00  0.00    -0.083 Cl
HETATM   15  C   UNK N   1      36.142  14.102  12.786  0.00  0.00     0.113 A 
HETATM   16  N   UNK N   1      35.631  15.175  12.115  0.00  0.00    -0.351 N 
ATOM     17  HN  UNK N   1      34.987  15.801  12.600  1.00  0.00     0.166 HD
ENDBRANCH   8  10
ENDBRANCH   1   8
BRANCH   1  18
HETATM   18  P   UNK N   1      32.900  15.532   9.312  0.00  0.00     0.271 P 
HETATM   19  O   UNK N   1      32.722  14.242   8.467  0.00  0.00    -0.652 OA
BRANCH  18  20
HETATM   20  O   UNK N   1      31.425  16.415   9.067  0.00  0.00    -0.327 OA
HETATM   21  H   UNK N   1      31.131  17.122   9.661  0.00  0.00     0.220 HD
ENDBRANCH  18  20
BRANCH  18  22
HETATM   22  O   UNK N   1      32.834  14.946  10.942  0.00  0.00    -0.327 OA
HETATM   23  H   UNK N   1      32.295  14.802  11.736  0.00  0.00     0.220 HD
ENDBRANCH  18  22
ENDBRANCH   1  18
TORSDOF 8
ENDMDL
MODEL 2
REMARK VINA RESULT:      -5.9      5.133      7.083
REMARK  8 active torsions:
REMARK  status: ('A' for Active; 'I' for Inactive)
REMARK    1  A    between atoms: O_1  and  P_2 
REMARK    2  A    between atoms: P_2  and  O_3 
REMARK    3  A    between atoms: P_2  and  C_5 
REMARK    4  A    between atoms: C_5  and  N_6 
REMARK    5  A    between atoms: C_5  and  P_15 
REMARK    6  A    between atoms: N_6  and  C_7 
REMARK    7  A    between atoms: P_15  and  O_16 
REMARK    8  A    between atoms: P_15  and  O_17 
ROOT
HETATM    1  C   UNK N   1      32.945  16.410   8.505  0.00  0.00     0.307 C 
ENDROOT
BRANCH   1   2
HETATM    2  P   UNK N   1      34.132  15.868   9.840  0.00  0.00     0.271 P 
HETATM    3  O   UNK N   1      35.245  14.953   9.267  0.00  0.00    -0.652 OA
BRANCH   2   4
HETATM    4  O   UNK N   1      33.454  14.954  11.154  0.00  0.00    -0.327 OA
HETATM    5  H   UNK N   1      32.697  14.574  11.626  0.00  0.00     0.220 HD
ENDBRANCH   2   4
BRANCH   2   6
HETATM    6  O   UNK N   1      35.003  17.187  10.554  0.00  0.00    -0.327 OA
HETATM    7  H   UNK N   1      35.831  17.341  11.033  0.00  0.00     0.220 HD
ENDBRANCH   2   6
ENDBRANCH   1   2
BRANCH   1   8
HETATM    8  N   UNK N   1      31.875  17.226   9.034  0.00  0.00    -0.352 N 
HETATM    9  H   UNK N   1      31.949  17.607   9.939  0.00  0.00     0.162 HD
BRANCH   8  10
HETATM   10  C   UNK N   1      30.709  17.482   8.244  0.00  0.00     0.102 A 
HETATM   11  C   UNK N   1      29.791  18.453   8.660  0.00  0.00     0.050 A 
HETATM   12  C   UNK N   1      28.633  18.660   7.894  0.00  0.00     0.029 A 
HETATM   13  C   UNK N   1      28.426  17.911   6.735  0.00  0.00     0.049 A 
HETATM   14 Cl   UNK N   1      27.004  18.168   5.743  0.00  0.00    -0.083 Cl
HETATM   15  C   UNK N   1      29.362  16.955   6.360  0.00  0.00     0.113 A 
HETATM   16  N   UNK N   1      30.470  16.755   7.132  0.00  0.00    -0.351 N 
ATOM     17  HN  UNK N   1      31.138  16.033   6.860  1.00  0.00     0.166 HD
ENDBRANCH   8  10
ENDBRANCH   1   8
BRANCH   1  18
HETATM   18  P   UNK N   1      33.913  17.182   7.097  0.00  0.00     0.271 P 
HETATM   19  O   UNK N   1      34.734  18.415   7.560  0.00  0.00    -0.652 OA
BRANCH  18  20
HETATM   20  O   UNK N   1      33.079  17.729   5.675  0.00  0.00    -0.327 OA
HETATM   21  H   UNK N   1      32.358  18.377   5.705  0.00  0.00     0.220 HD
ENDBRANCH  18  20
BRANCH  18  22
HETATM   22  O   UNK N   1      35.132  16.086   6.535  0.00  0.00    -0.327 OA
HETATM   23  H   UNK N   1      35.623  15.730   5.778  0.00  0.00     0.220 HD
ENDBRANCH  18  22
ENDBRANCH   1  18
TORSDOF 8
ENDMDL
MODEL 3
REMARK VINA RESULT:      -5.6      1.904      2.665
REMARK  8 active torsions:
REMARK  status: ('A' for Active; 'I' for Inactive)
REMARK    1  A    between atoms: O_1  and  P_2 
REMARK    2  A    between atoms: P_2  and  O_3 
REMARK    3  A    between atoms: P_2  and  C_5 
REMARK    4  A    between atoms: C_5  and  N_6 
REMARK    5  A    between atoms: C_5  and  P_15 
REMARK    6  A    between atoms: N_6  and  C_7 
REMARK    7  A    between atoms: P_15  and  O_16 
REMARK    8  A    between atoms: P_15  and  O_17 
ROOT
HETATM    1  C   UNK N   1      34.702  16.280   8.675  0.00  0.00     0.307 C 
ENDROOT
BRANCH   1   2
HETATM    2  P   UNK N   1      34.127  17.901   7.949  0.00  0.00     0.271 P 
HETATM    3  O   UNK N   1      35.036  19.074   8.400  0.00  0.00    -0.652 OA
BRANCH   2   4
HETATM    4  O   UNK N   1      32.521  18.412   8.370  0.00  0.00    -0.327 OA
HETATM    5  H   UNK N   1      31.786  19.043   8.319  0.00  0.00     0.220 HD
ENDBRANCH   2   4
BRANCH   2   6
HETATM    6  O   UNK N   1      34.221  17.942   6.218  0.00  0.00    -0.327 OA
HETATM    7  H   UNK N   1      33.834  18.434   5.476  0.00  0.00     0.220 HD
ENDBRANCH   2   6
ENDBRANCH   1   2
BRANCH   1   8
HETATM    8  N   UNK N   1      33.961  15.932   9.867  0.00  0.00    -0.352 N 
HETATM    9  H   UNK N   1      33.019  16.203   9.958  0.00  0.00     0.162 HD
BRANCH   8  10
HETATM   10  C   UNK N   1      34.596  15.192  10.917  0.00  0.00     0.102 A 
HETATM   11  C   UNK N   1      35.577  15.810  11.702  0.00  0.00     0.050 A 
HETATM   12  C   UNK N   1      36.217  15.056  12.699  0.00  0.00     0.029 A 
HETATM   13  C   UNK N   1      35.859  13.722  12.896  0.00  0.00     0.049 A 
HETATM   14 Cl   UNK N   1      36.621  12.766  14.151  0.00  0.00    -0.083 Cl
HETATM   15  C   UNK N   1      34.883  13.148  12.091  0.00  0.00     0.113 A 
HETATM   16  N   UNK N   1      34.288  13.893  11.113  0.00  0.00    -0.351 N 
ATOM     17  HN  UNK N   1      33.591  13.454  10.512  1.00  0.00     0.166 HD
ENDBRANCH   8  10
ENDBRANCH   1   8
BRANCH   1  18
HETATM   18  P   UNK N   1      34.709  14.971   7.333  0.00  0.00     0.271 P 
HETATM   19  O   UNK N   1      33.352  14.895   6.584  0.00  0.00    -0.652 OA
BRANCH  18  20
HETATM   20  O   UNK N   1      35.070  13.321   7.739  0.00  0.00    -0.327 OA
HETATM   21  H   UNK N   1      35.669  13.076   8.461  0.00  0.00     0.220 HD
ENDBRANCH  18  20
BRANCH  18  22
HETATM   22  O   UNK N   1      35.826  15.403   6.080  0.00  0.00    -0.327 OA
HETATM   23  H   UNK N   1      35.961  15.834   5.221  0.00  0.00     0.220 HD
ENDBRANCH  18  22
ENDBRANCH   1  18
TORSDOF 8
ENDMDL
MODEL 4
REMARK VINA RESULT:      -5.6      3.546      4.671
REMARK  8 active torsions:
REMARK  status: ('A' for Active; 'I' for Inactive)
REMARK    1  A    between atoms: O_1  and  P_2 
REMARK    2  A    between atoms: P_2  and  O_3 
REMARK    3  A    between atoms: P_2  and  C_5 
REMARK    4  A    between atoms: C_5  and  N_6 
REMARK    5  A    between atoms: C_5  and  P_15 
REMARK    6  A    between atoms: N_6  and  C_7 
REMARK    7  A    between atoms: P_15  and  O_16 
REMARK    8  A    between atoms: P_15  and  O_17 
ROOT
HETATM    1  C   UNK N   1      36.001  14.057  11.458  0.00  0.00     0.307 C 
ENDROOT
BRANCH   1   2
HETATM    2  P   UNK N   1      37.409  13.709  10.282  0.00  0.00     0.271 P 
HETATM    3  O   UNK N   1      38.293  12.540  10.792  0.00  0.00    -0.652 OA
BRANCH   2   4
HETATM    4  O   UNK N   1      38.528  15.009  10.007  0.00  0.00    -0.327 OA
HETATM    5  H   UNK N   1      39.424  15.382  10.027  0.00  0.00     0.220 HD
ENDBRANCH   2   4
BRANCH   2   6
HETATM    6  O   UNK N   1      36.876  13.177   8.720  0.00  0.00    -0.327 OA
HETATM    7  H   UNK N   1      36.102  12.753   8.318  0.00  0.00     0.220 HD
ENDBRANCH   2   6
ENDBRANCH   1   2
BRANCH   1   8
HETATM    8  N   UNK N   1      36.475  14.370  12.787  0.00  0.00    -0.352 N 
HETATM    9  H   UNK N   1      36.800  15.275  12.993  0.00  0.00     0.162 HD
BRANCH   8  10
HETATM   10  C   UNK N   1      36.472  13.363  13.806  0.00  0.00     0.102 A 
HETATM   11  C   UNK N   1      35.526  13.424  14.836  0.00  0.00     0.050 A 
HETATM   12  C   UNK N   1      35.566  12.451  15.847  0.00  0.00     0.029 A 
HETATM   13  C   UNK N   1      36.528  11.443  15.802  0.00  0.00     0.049 A 
HETATM   14 Cl   UNK N   1      36.583  10.199  17.035  0.00  0.00    -0.083 Cl
HETATM   15  C   UNK N   1      37.451  11.421  14.763  0.00  0.00     0.113 A 
HETATM   16  N   UNK N   1      37.408  12.390  13.801  0.00  0.00    -0.351 N 
ATOM     17  HN  UNK N   1      38.106  12.379  13.057  1.00  0.00     0.166 HD
ENDBRANCH   8  10
ENDBRANCH   1   8
BRANCH   1  18
HETATM   18  P   UNK N   1      34.865  15.340  10.696  0.00  0.00     0.271 P 
HETATM   19  O   UNK N   1      34.855  15.264   9.146  0.00  0.00    -0.652 OA
BRANCH  18  20
HETATM   20  O   UNK N   1      35.110  17.024  11.043  0.00  0.00    -0.327 OA
HETATM   21  H   UNK N   1      35.936  17.489  10.836  0.00  0.00     0.220 HD
ENDBRANCH  18  20
BRANCH  18  22
HETATM   22  O   UNK N   1      33.217  15.006  11.117  0.00  0.00    -0.327 OA
HETATM   23  H   UNK N   1      32.300  14.915  10.813  0.00  0.00     0.220 HD
ENDBRANCH  18  22
ENDBRANCH   1  18
TORSDOF 8
ENDMDL
MODEL 5
REMARK VINA RESULT:      -5.6     13.415     14.640
REMARK  8 active torsions:
REMARK  status: ('A' for Active; 'I' for Inactive)
REMARK    1  A    between atoms: O_1  and  P_2 
REMARK    2  A    between atoms: P_2  and  O_3 
REMARK    3  A    between atoms: P_2  and  C_5 
REMARK    4  A    between atoms: C_5  and  N_6 
REMARK    5  A    between atoms: C_5  and  P_15 
REMARK    6  A    between atoms: N_6  and  C_7 
REMARK    7  A    between atoms: P_15  and  O_16 
REMARK    8  A    between atoms: P_15  and  O_17 
ROOT
HETATM    1  C   UNK N   1      21.400  18.598   2.884  0.00  0.00     0.307 C 
ENDROOT
BRANCH   1   2
HETATM    2  P   UNK N   1      21.061  20.416   2.633  0.00  0.00     0.271 P 
HETATM    3  O   UNK N   1      22.372  21.244   2.666  0.00  0.00    -0.652 OA
BRANCH   2   4
HETATM    4  O   UNK N   1      20.036  21.182   3.809  0.00  0.00    -0.327 OA
HETATM    5  H   UNK N   1      19.610  21.209   4.680  0.00  0.00     0.220 HD
ENDBRANCH   2   4
BRANCH   2   6
HETATM    6  O   UNK N   1      20.382  20.773   1.077  0.00  0.00    -0.327 OA
HETATM    7  H   UNK N   1      20.604  21.283   0.283  0.00  0.00     0.220 HD
ENDBRANCH   2   6
ENDBRANCH   1   2
BRANCH   1   8
HETATM    8  N   UNK N   1      22.168  18.355   4.085  0.00  0.00    -0.352 N 
HETATM    9  H   UNK N   1      21.712  18.288   4.955  0.00  0.00     0.162 HD
BRANCH   8  10
HETATM   10  C   UNK N   1      23.590  18.209   4.010  0.00  0.00     0.102 A 
HETATM   11  C   UNK N   1      24.151  16.929   3.915  0.00  0.00     0.050 A 
HETATM   12  C   UNK N   1      25.549  16.806   3.885  0.00  0.00     0.029 A 
HETATM   13  C   UNK N   1      26.347  17.948   3.936  0.00  0.00     0.049 A 
HETATM   14 Cl   UNK N   1      28.094  17.826   3.871  0.00  0.00    -0.083 Cl
HETATM   15  C   UNK N   1      25.749  19.199   4.033  0.00  0.00     0.113 A 
HETATM   16  N   UNK N   1      24.388  19.296   4.083  0.00  0.00    -0.351 N 
ATOM     17  HN  UNK N   1      23.961  20.217   4.180  1.00  0.00     0.166 HD
ENDBRANCH   8  10
ENDBRANCH   1   8
BRANCH   1  18
HETATM   18  P   UNK N   1      19.788  17.647   2.764  0.00  0.00     0.271 P 
HETATM   19  O   UNK N   1      19.415  16.959   4.105  0.00  0.00    -0.652 OA
BRANCH  18  20
HETATM   20  O   UNK N   1      19.611  16.396   1.574  0.00  0.00    -0.327 OA
HETATM   21  H   UNK N   1      19.943  16.482   0.667  0.00  0.00     0.220 HD
ENDBRANCH  18  20
BRANCH  18  22
HETATM   22  O   UNK N   1      18.467  18.739   2.502  0.00  0.00    -0.327 OA
HETATM   23  H   UNK N   1      17.643  19.120   2.846  0.00  0.00     0.220 HD
ENDBRANCH  18  22
ENDBRANCH   1  18
TORSDOF 8
ENDMDL
MODEL 6
REMARK VINA RESULT:      -5.5      4.137      5.497
REMARK  8 active torsions:
REMARK  status: ('A' for Active; 'I' for Inactive)
REMARK    1  A    between atoms: O_1  and  P_2 
REMARK    2  A    between atoms: P_2  and  O_3 
REMARK    3  A    between atoms: P_2  and  C_5 
REMARK    4  A    between atoms: C_5  and  N_6 
REMARK    5  A    between atoms: C_5  and  P_15 
REMARK    6  A    between atoms: N_6  and  C_7 
REMARK    7  A    between atoms: P_15  and  O_16 
REMARK    8  A    between atoms: P_15  and  O_17 
ROOT
HETATM    1  C   UNK N   1      29.952  17.648   7.817  0.00  0.00     0.307 C 
ENDROOT
BRANCH   1   2
HETATM    2  P   UNK N   1      29.230  17.780   9.534  0.00  0.00     0.271 P 
HETATM    3  O   UNK N   1      29.708  19.071  10.249  0.00  0.00    -0.652 OA
BRANCH   2   4
HETATM    4  O   UNK N   1      29.627  16.500  10.641  0.00  0.00    -0.327 OA
HETATM    5  H   UNK N   1      29.831  15.571  10.832  0.00  0.00     0.220 HD
ENDBRANCH   2   4
BRANCH   2   6
HETATM    6  O   UNK N   1      27.501  17.917   9.537  0.00  0.00    -0.327 OA
HETATM    7  H   UNK N   1      26.757  17.784   8.930  0.00  0.00     0.220 HD
ENDBRANCH   2   6
ENDBRANCH   1   2
BRANCH   1   8
HETATM    8  N   UNK N   1      30.842  16.516   7.693  0.00  0.00    -0.352 N 
HETATM    9  H   UNK N   1      30.602  15.763   7.107  0.00  0.00     0.162 HD
BRANCH   8  10
HETATM   10  C   UNK N   1      32.075  16.490   8.421  0.00  0.00     0.102 A 
HETATM   11  C   UNK N   1      33.035  17.483   8.192  0.00  0.00     0.050 A 
HETATM   12  C   UNK N   1      34.254  17.415   8.885  0.00  0.00     0.029 A 
HETATM   13  C   UNK N   1      34.481  16.379   9.791  0.00  0.00     0.049 A 
HETATM   14 Cl   UNK N   1      35.981  16.286  10.692  0.00  0.00    -0.083 Cl
HETATM   15  C   UNK N   1      33.501  15.412   9.986  0.00  0.00     0.113 A 
HETATM   16  N   UNK N   1      32.331  15.484   9.285  0.00  0.00    -0.351 N 
ATOM     17  HN  UNK N   1      31.630  14.755   9.417  1.00  0.00     0.166 HD
ENDBRANCH   8  10
ENDBRANCH   1   8
BRANCH   1  18
HETATM   18  P   UNK N   1      28.563  17.710   6.559  0.00  0.00     0.271 P 
HETATM   19  O   UNK N   1      27.618  16.484   6.671  0.00  0.00    -0.652 OA
BRANCH  18  20
HETATM   20  O   UNK N   1      28.937  17.812   4.866  0.00  0.00    -0.327 OA
HETATM   21  H   UNK N   1      28.426  17.347   4.185  0.00  0.00     0.220 HD
ENDBRANCH  18  20
BRANCH  18  22
HETATM   22  O   UNK N   1      27.512  19.048   6.891  0.00  0.00    -0.327 OA
HETATM   23  H   UNK N   1      27.330  19.993   6.766  0.00  0.00     0.220 HD
ENDBRANCH  18  22
ENDBRANCH   1  18
TORSDOF 8
ENDMDL
MODEL 7
REMARK VINA RESULT:      -5.5      4.264      6.254
REMARK  8 active torsions:
REMARK  status: ('A' for Active; 'I' for Inactive)
REMARK    1  A    between atoms: O_1  and  P_2 
REMARK    2  A    between atoms: P_2  and  O_3 
REMARK    3  A    between atoms: P_2  and  C_5 
REMARK    4  A    between atoms: C_5  and  N_6 
REMARK    5  A    between atoms: C_5  and  P_15 
REMARK    6  A    between atoms: N_6  and  C_7 
REMARK    7  A    between atoms: P_15  and  O_16 
REMARK    8  A    between atoms: P_15  and  O_17 
ROOT
HETATM    1  C   UNK N   1      34.547  14.626  10.306  0.00  0.00     0.307 C 
ENDROOT
BRANCH   1   2
HETATM    2  P   UNK N   1      34.939  13.170  11.407  0.00  0.00     0.271 P 
HETATM    3  O   UNK N   1      36.463  12.883  11.439  0.00  0.00    -0.652 OA
BRANCH   2   4
HETATM    4  O   UNK N   1      34.222  11.650  10.965  0.00  0.00    -0.327 OA
HETATM    5  H   UNK N   1      33.643  10.894  11.151  0.00  0.00     0.220 HD
ENDBRANCH   2   4
BRANCH   2   6
HETATM    6  O   UNK N   1      34.531  13.444  13.070  0.00  0.00    -0.327 OA
HETATM    7  H   UNK N   1      33.991  14.051  13.599  0.00  0.00     0.220 HD
ENDBRANCH   2   6
ENDBRANCH   1   2
BRANCH   1   8
HETATM    8  N   UNK N   1      33.126  14.885  10.242  0.00  0.00    -0.352 N 
HETATM    9  H   UNK N   1      32.550  14.661  11.008  0.00  0.00     0.162 HD
BRANCH   8  10
HETATM   10  C   UNK N   1      32.554  15.467   9.065  0.00  0.00     0.102 A 
HETATM   11  C   UNK N   1      32.249  14.652   7.969  0.00  0.00     0.050 A 
HETATM   12  C   UNK N   1      31.729  15.248   6.809  0.00  0.00     0.029 A 
HETATM   13  C   UNK N   1      31.514  16.626   6.774  0.00  0.00     0.049 A 
HETATM   14 Cl   UNK N   1      30.838  17.393   5.351  0.00  0.00    -0.083 Cl
HETATM   15  C   UNK N   1      31.834  17.398   7.884  0.00  0.00     0.113 A 
HETATM   16  N   UNK N   1      32.360  16.801   8.994  0.00  0.00    -0.351 N 
ATOM     17  HN  UNK N   1      32.615  17.381   9.794  1.00  0.00     0.166 HD
ENDBRANCH   8  10
ENDBRANCH   1   8
BRANCH   1  18
HETATM   18  P   UNK N   1      35.599  16.090  10.822  0.00  0.00     0.271 P 
HETATM   19  O   UNK N   1      35.465  16.400  12.337  0.00  0.00    -0.652 OA
BRANCH  18  20
HETATM   20  O   UNK N   1      35.378  17.627  10.046  0.00  0.00    -0.327 OA
HETATM   21  H   UNK N   1      34.550  18.129  10.098  0.00  0.00     0.220 HD
ENDBRANCH  18  20
BRANCH  18  22
HETATM   22  O   UNK N   1      37.281  15.710  10.646  0.00  0.00    -0.327 OA
HETATM   23  H   UNK N   1      37.955  15.187  10.184  0.00  0.00     0.220 HD
ENDBRANCH  18  22
ENDBRANCH   1  18
TORSDOF 8
ENDMDL
MODEL 8
REMARK VINA RESULT:      -5.5     13.630     15.199
REMARK  8 active torsions:
REMARK  status: ('A' for Active; 'I' for Inactive)
REMARK    1  A    between atoms: O_1  and  P_2 
REMARK    2  A    between atoms: P_2  and  O_3 
REMARK    3  A    between atoms: P_2  and  C_5 
REMARK    4  A    between atoms: C_5  and  N_6 
REMARK    5  A    between atoms: C_5  and  P_15 
REMARK    6  A    between atoms: N_6  and  C_7 
REMARK    7  A    between atoms: P_15  and  O_16 
REMARK    8  A    between atoms: P_15  and  O_17 
ROOT
HETATM    1  C   UNK N   1      43.451  23.050   2.325  0.00  0.00     0.307 C 
ENDROOT
BRANCH   1   2
HETATM    2  P   UNK N   1      44.075  22.333   3.931  0.00  0.00     0.271 P 
HETATM    3  O   UNK N   1      43.628  20.857   4.101  0.00  0.00    -0.652 OA
BRANCH   2   4
HETATM    4  O   UNK N   1      43.542  23.116   5.388  0.00  0.00    -0.327 OA
HETATM    5  H   UNK N   1      42.840  23.461   5.962  0.00  0.00     0.220 HD
ENDBRANCH   2   4
BRANCH   2   6
HETATM    6  O   UNK N   1      45.806  22.257   4.016  0.00  0.00    -0.327 OA
HETATM    7  H   UNK N   1      46.559  22.858   4.125  0.00  0.00     0.220 HD
ENDBRANCH   2   6
ENDBRANCH   1   2
BRANCH   1   8
HETATM    8  N   UNK N   1      42.121  23.601   2.462  0.00  0.00    -0.352 N 
HETATM    9  H   UNK N   1      41.792  23.878   3.347  0.00  0.00     0.162 HD
BRANCH   8  10
HETATM   10  C   UNK N   1      41.281  23.744   1.311  0.00  0.00     0.102 A 
HETATM   11  C   UNK N   1      40.799  22.601   0.660  0.00  0.00     0.050 A 
HETATM   12  C   UNK N   1      40.012  22.762  -0.491  0.00  0.00     0.029 A 
HETATM   13  C   UNK N   1      39.714  24.044  -0.953  0.00  0.00     0.049 A 
HETATM   14 Cl   UNK N   1      38.709  24.275  -2.370  0.00  0.00    -0.083 Cl
HETATM   15  C   UNK N   1      40.215  25.150  -0.279  0.00  0.00     0.113 A 
HETATM   16  N   UNK N   1      40.998  24.971   0.826  0.00  0.00    -0.351 N 
ATOM     17  HN  UNK N   1      41.381  25.790   1.299  1.00  0.00     0.166 HD
ENDBRANCH   8  10
ENDBRANCH   1   8
BRANCH   1  18
HETATM   18  P   UNK N   1      44.734  24.232   1.637  0.00  0.00     0.271 P 
HETATM   19  O   UNK N   1      45.667  24.790   2.745  0.00  0.00    -0.652 OA
BRANCH  18  20
HETATM   20  O   UNK N   1      44.226  25.637   0.752  0.00  0.00    -0.327 OA
HETATM   21  H   UNK N   1      43.364  25.698   0.311  0.00  0.00     0.220 HD
ENDBRANCH  18  20
BRANCH  18  22
HETATM   22  O   UNK N   1      45.828  23.386   0.591  0.00  0.00    -0.327 OA
HETATM   23  H   UNK N   1      46.567  23.445  -0.035  0.00  0.00     0.220 HD
ENDBRANCH  18  22
ENDBRANCH   1  18
TORSDOF 8
ENDMDL
MODEL 9
REMARK VINA RESULT:      -5.5      4.589      6.477
REMARK  8 active torsions:
REMARK  status: ('A' for Active; 'I' for Inactive)
REMARK    1  A    between atoms: O_1  and  P_2 
REMARK    2  A    between atoms: P_2  and  O_3 
REMARK    3  A    between atoms: P_2  and  C_5 
REMARK    4  A    between atoms: C_5  and  N_6 
REMARK    5  A    between atoms: C_5  and  P_15 
REMARK    6  A    between atoms: N_6  and  C_7 
REMARK    7  A    between atoms: P_15  and  O_16 
REMARK    8  A    between atoms: P_15  and  O_17 
ROOT
HETATM    1  C   UNK N   1      34.258  15.988   8.344  0.00  0.00     0.307 C 
ENDROOT
BRANCH   1   2
HETATM    2  P   UNK N   1      34.691  15.757  10.145  0.00  0.00     0.271 P 
HETATM    3  O   UNK N   1      35.957  14.876  10.312  0.00  0.00    -0.652 OA
BRANCH   2   4
HETATM    4  O   UNK N   1      33.492  14.984  11.137  0.00  0.00    -0.327 OA
HETATM    5  H   UNK N   1      32.574  14.865  11.427  0.00  0.00     0.220 HD
ENDBRANCH   2   4
BRANCH   2   6
HETATM    6  O   UNK N   1      35.109  17.241  10.940  0.00  0.00    -0.327 OA
HETATM    7  H   UNK N   1      35.381  18.142  10.709  0.00  0.00     0.220 HD
ENDBRANCH   2   6
ENDBRANCH   1   2
BRANCH   1   8
HETATM    8  N   UNK N   1      33.098  15.213   7.965  0.00  0.00    -0.352 N 
HETATM    9  H   UNK N   1      32.759  14.511   8.566  0.00  0.00     0.162 HD
BRANCH   8  10
HETATM   10  C   UNK N   1      32.442  15.465   6.718  0.00  0.00     0.102 A 
HETATM   11  C   UNK N   1      32.949  14.897   5.542  0.00  0.00     0.050 A 
HETATM   12  C   UNK N   1      32.316  15.190   4.324  0.00  0.00     0.029 A 
HETATM   13  C   UNK N   1      31.197  16.022   4.307  0.00  0.00     0.049 A 
HETATM   14 Cl   UNK N   1      30.369  16.382   2.805  0.00  0.00    -0.083 Cl
HETATM   15  C   UNK N   1      30.729  16.567   5.497  0.00  0.00     0.113 A 
HETATM   16  N   UNK N   1      31.372  16.287   6.668  0.00  0.00    -0.351 N 
ATOM     17  HN  UNK N   1      31.035  16.712   7.532  1.00  0.00     0.166 HD
ENDBRANCH   8  10
ENDBRANCH   1   8
BRANCH   1  18
HETATM   18  P   UNK N   1      34.147  17.821   7.966  0.00  0.00     0.271 P 
HETATM   19  O   UNK N   1      34.231  18.110   6.443  0.00  0.00    -0.652 OA
BRANCH  18  20
HETATM   20  O   UNK N   1      35.290  18.919   8.677  0.00  0.00    -0.327 OA
HETATM   21  H   UNK N   1      36.034  19.297   8.182  0.00  0.00     0.220 HD
ENDBRANCH  18  20
BRANCH  18  22
HETATM   22  O   UNK N   1      32.581  18.428   8.396  0.00  0.00    -0.327 OA
HETATM   23  H   UNK N   1      32.068  19.062   8.921  0.00  0.00     0.220 HD
ENDBRANCH  18  22
ENDBRANCH   1  18
TORSDOF 8
ENDMDL
