REMARK  30 active torsions:
REMARK  status: ('A' for Active; 'I' for Inactive)
REMARK    1  A    between atoms: C_11  and  C_5 
REMARK    2  A    between atoms: O_39  and  C_5 
REMARK    3  A    between atoms: C_13  and  C_6 
REMARK    4  A    between atoms: O_40  and  C_6 
REMARK    5  A    between atoms: C_14  and  C_7 
REMARK    6  A    between atoms: O_41  and  C_7 
REMARK    7  A    between atoms: C_12  and  N_38 
REMARK    8  A    between atoms: C_15  and  N_38 
REMARK    9  A    between atoms: C_16  and  O_42 
REMARK   10  A    between atoms: C_17  and  O_43 
REMARK   11  A    between atoms: C_18  and  O_44 
REMARK   12  A    between atoms: C_19  and  O_45 
REMARK   13  A    between atoms: C_20  and  O_46 
REMARK   14  A    between atoms: C_21  and  O_47 
REMARK   15  A    between atoms: C_22  and  O_48 
REMARK   16  A    between atoms: C_23  and  O_49 
REMARK   17  A    between atoms: C_24  and  O_50 
REMARK   18  A    between atoms: C_25  and  O_51 
REMARK   19  A    between atoms: C_26  and  O_52 
REMARK   20  A    between atoms: C_27  and  O_53 
REMARK   21  A    between atoms: C_28  and  O_54 
REMARK   22  A    between atoms: C_29  and  O_61 
REMARK   23  A    between atoms: C_30  and  O_62 
REMARK   24  A    between atoms: C_31  and  O_63 
REMARK   25  A    between atoms: C_32  and  O_64 
REMARK   26  A    between atoms: C_33  and  O_55 
REMARK   27  A    between atoms: C_34  and  O_63 
REMARK   28  A    between atoms: C_35  and  O_64 
REMARK   29  A    between atoms: C_36  and  O_61 
REMARK   30  A    between atoms: C_37  and  O_62 
ROOT
HETATM    1  C   UNK N   1      -1.618   3.271   0.884  0.00  0.00     0.008 C 
HETATM    2  C   UNK N   1      -1.958   4.141  -0.067  0.00  0.00    -0.027 C 
HETATM    3  C   UNK N   1      -0.376   2.453   0.868  0.00  0.00     0.132 C 
HETATM    4  C   UNK N   1       0.712   2.972  -0.099  0.00  0.00     0.175 C 
HETATM    5  C   UNK N   1       0.152   3.460  -1.437  0.00  0.00     0.182 C 
HETATM    6  C   UNK N   1      -1.028   4.467  -1.241  0.00  0.00     0.187 C 
ENDROOT
BRANCH   3   7
HETATM    7  N   UNK N   1      -0.741   1.035   0.773  0.00  0.00    -0.402 N 
HETATM    8  H   UNK N   1      -0.524   0.448   1.578  0.00  0.00     0.154 HD
BRANCH   7   9
HETATM    9  C   UNK N   1      -1.395   0.374  -0.381  0.00  0.00     0.137 C 
HETATM   10  C   UNK N   1      -1.902  -0.956   0.171  0.00  0.00     0.145 C 
HETATM   11  C   UNK N   1      -0.747  -1.792   0.711  0.00  0.00     0.042 C 
HETATM   12  O   UNK N   1      -2.817  -0.687   1.234  0.00  0.00    -0.352 OA
HETATM   13  C   UNK N   1      -4.059  -0.177   0.749  0.00  0.00     0.292 C 
HETATM   14  C   UNK N   1      -3.819   1.141   0.002  0.00  0.00     0.204 C 
HETATM   15  C   UNK N   1      -2.662   1.044  -1.012  0.00  0.00     0.176 C 
BRANCH  13  16
HETATM   16  O   UNK N   1      -4.769  -1.129  -0.029  0.00  0.00    -0.348 OA
BRANCH  16  17
HETATM   17  C   UNK N   1      -5.276  -2.197   0.778  0.00  0.00     0.187 C 
HETATM   18  C   UNK N   1      -4.175  -3.260   0.931  0.00  0.00     0.180 C 
HETATM   19  O   UNK N   1      -3.998  -3.847  -0.330  0.00  0.00    -0.348 OA
HETATM   20  C   UNK N   1      -5.049  -4.680  -0.764  0.00  0.00     0.292 C 
HETATM   21  C   UNK N   1      -6.420  -4.373  -0.054  0.00  0.00     0.204 C 
HETATM   22  C   UNK N   1      -6.512  -2.821   0.043  0.00  0.00     0.183 C 
BRANCH  18  23
HETATM   23  C   UNK N   1      -4.369  -4.260   2.079  0.00  0.00     0.198 C 
BRANCH  23  24
HETATM   24  O   UNK N   1      -4.094  -3.647   3.304  0.00  0.00    -0.398 OA
HETATM   25  H   UNK N   1      -3.630  -3.600   4.155  0.00  0.00     0.209 HD
ENDBRANCH  23  24
ENDBRANCH  18  23
BRANCH  20  26
HETATM   26  O   UNK N   1      -4.676  -6.071  -0.764  0.00  0.00    -0.348 OA
BRANCH  26  27
HETATM   27  C   UNK N   1      -3.310  -6.306  -0.364  0.00  0.00     0.184 C 
HETATM   28  C   UNK N   1      -3.044  -7.824  -0.243  0.00  0.00     0.152 C 
HETATM   29  C   UNK N   1      -3.306  -8.596  -1.534  0.00  0.00     0.042 C 
HETATM   30  O   UNK N   1      -1.736  -8.084   0.267  0.00  0.00    -0.351 OA
HETATM   31  C   UNK N   1      -0.707  -7.524  -0.539  0.00  0.00     0.288 C 
HETATM   32  C   UNK N   1      -0.851  -6.004  -0.664  0.00  0.00     0.204 C 
HETATM   33  C   UNK N   1      -2.211  -5.674  -1.282  0.00  0.00     0.183 C 
BRANCH  31  34
HETATM   34  O   UNK N   1       0.525  -7.807   0.056  0.00  0.00    -0.369 OA
HETATM   35  H   UNK N   1       0.784  -8.645   0.469  0.00  0.00     0.212 HD
ENDBRANCH  31  34
BRANCH  32  36
HETATM   36  O   UNK N   1       0.176  -5.472  -1.446  0.00  0.00    -0.388 OA
HETATM   37  H   UNK N   1       0.853  -5.905  -1.990  0.00  0.00     0.210 HD
ENDBRANCH  32  36
BRANCH  33  38
HETATM   38  O   UNK N   1      -2.304  -6.159  -2.589  0.00  0.00    -0.390 OA
HETATM   39  H   UNK N   1      -2.628  -6.271  -3.496  0.00  0.00     0.210 HD
ENDBRANCH  33  38
ENDBRANCH  26  27
ENDBRANCH  20  26
BRANCH  21  40
HETATM   40  O   UNK N   1      -7.487  -4.895  -0.778  0.00  0.00    -0.388 OA
HETATM   41  H   UNK N   1      -8.174  -4.432  -1.282  0.00  0.00     0.210 HD
ENDBRANCH  21  40
BRANCH  22  42
HETATM   42  O   UNK N   1      -7.703  -2.417   0.654  0.00  0.00    -0.390 OA
HETATM   43  H   UNK N   1      -7.873  -1.561   1.078  0.00  0.00     0.210 HD
ENDBRANCH  22  42
ENDBRANCH  16  17
ENDBRANCH  13  16
BRANCH  14  44
HETATM   44  O   UNK N   1      -4.990   1.588  -0.620  0.00  0.00    -0.388 OA
HETATM   45  H   UNK N   1      -5.127   2.446  -1.051  0.00  0.00     0.210 HD
ENDBRANCH  14  44
BRANCH  15  46
HETATM   46  O   UNK N   1      -3.074   0.279  -2.110  0.00  0.00    -0.391 OA
HETATM   47  H   UNK N   1      -3.676   0.262  -2.870  0.00  0.00     0.210 HD
ENDBRANCH  15  46
ENDBRANCH   7   9
ENDBRANCH   3   7
BRANCH   4  48
HETATM   48  O   UNK N   1       1.726   2.026  -0.275  0.00  0.00    -0.391 OA
HETATM   49  H   UNK N   1       1.508   1.088  -0.397  0.00  0.00     0.210 HD
ENDBRANCH   4  48
BRANCH   2  50
HETATM   50  C   UNK N   1      -3.280   4.833   0.074  0.00  0.00     0.201 C 
BRANCH  50  51
HETATM   51  O   UNK N   1      -4.112   4.500  -0.992  0.00  0.00    -0.397 OA
HETATM   52  H   UNK N   1      -4.602   4.885  -1.735  0.00  0.00     0.209 HD
ENDBRANCH  50  51
ENDBRANCH   2  50
BRANCH   5  53
HETATM   53  O   UNK N   1      -0.260   2.367  -2.196  0.00  0.00    -0.390 OA
HETATM   54  H   UNK N   1      -1.063   2.235  -2.724  0.00  0.00     0.210 HD
ENDBRANCH   5  53
BRANCH   6  55
HETATM   55  O   UNK N   1      -0.560   5.816  -1.268  0.00  0.00    -0.346 OA
BRANCH  55  56
HETATM   56  C   UNK N   1      -0.504   6.496  -0.019  0.00  0.00     0.292 C 
HETATM   57  C   UNK N   1      -0.547   8.016  -0.233  0.00  0.00     0.204 C 
HETATM   58  C   UNK N   1       0.756   8.503  -0.848  0.00  0.00     0.183 C 
HETATM   59  C   UNK N   1       1.899   8.021   0.060  0.00  0.00     0.187 C 
HETATM   60  C   UNK N   1       1.845   6.483   0.137  0.00  0.00     0.180 C 
HETATM   61  O   UNK N   1       0.622   6.091   0.743  0.00  0.00    -0.348 OA
BRANCH  57  62
HETATM   62  O   UNK N   1      -1.638   8.372  -1.031  0.00  0.00    -0.388 OA
HETATM   63  H   UNK N   1      -1.802   9.151  -1.585  0.00  0.00     0.210 HD
ENDBRANCH  57  62
BRANCH  58  64
HETATM   64  O   UNK N   1       0.915   8.003  -2.147  0.00  0.00    -0.390 OA
HETATM   65  H   UNK N   1       0.670   7.735  -3.046  0.00  0.00     0.210 HD
ENDBRANCH  58  64
BRANCH  59  66
HETATM   66  O   UNK N   1       3.118   8.517  -0.467  0.00  0.00    -0.348 OA
BRANCH  66  67
HETATM   67  C   UNK N   1       4.053   8.964   0.516  0.00  0.00     0.292 C 
HETATM   68  C   UNK N   1       5.083   9.899  -0.145  0.00  0.00     0.204 C 
HETATM   69  C   UNK N   1       4.406  11.220  -0.549  0.00  0.00     0.183 C 
HETATM   70  C   UNK N   1       3.736  11.836   0.688  0.00  0.00     0.178 C 
HETATM   71  C   UNK N   1       2.785  10.808   1.315  0.00  0.00     0.152 C 
HETATM   72  C   UNK N   1       2.160  11.369   2.580  0.00  0.00     0.042 C 
HETATM   73  O   UNK N   1       3.473   9.610   1.654  0.00  0.00    -0.351 OA
BRANCH  68  74
HETATM   74  O   UNK N   1       6.114  10.161   0.764  0.00  0.00    -0.388 OA
HETATM   75  H   UNK N   1       6.629   9.633   1.394  0.00  0.00     0.210 HD
ENDBRANCH  68  74
BRANCH  69  76
HETATM   76  O   UNK N   1       3.454  10.985  -1.548  0.00  0.00    -0.390 OA
HETATM   77  H   UNK N   1       2.983  11.476  -2.240  0.00  0.00     0.210 HD
ENDBRANCH  69  76
BRANCH  70  78
HETATM   78  O   UNK N   1       3.037  12.993   0.330  0.00  0.00    -0.390 OA
HETATM   79  H   UNK N   1       3.489  13.814   0.082  0.00  0.00     0.210 HD
ENDBRANCH  70  78
ENDBRANCH  66  67
ENDBRANCH  59  66
BRANCH  60  80
HETATM   80  C   UNK N   1       2.992   5.906   0.962  0.00  0.00     0.198 C 
BRANCH  80  81
HETATM   81  O   UNK N   1       2.905   6.309   2.295  0.00  0.00    -0.398 OA
HETATM   82  H   UNK N   1       3.117   6.501   3.222  0.00  0.00     0.209 HD
ENDBRANCH  80  81
ENDBRANCH  60  80
ENDBRANCH  55  56
ENDBRANCH   6  55
TORSDOF 30
