MODEL 1
REMARK VINA RESULT:      -7.2      0.000      0.000
REMARK  11 active torsions:
REMARK  status: ('A' for Active; 'I' for Inactive)
REMARK    1  A    between atoms: C_5  and  C_4 
REMARK    2  A    between atoms: C_12  and  C_4 
REMARK    3  A    between atoms: O_27  and  C_5 
REMARK    4  A    between atoms: C_14  and  C_9 
REMARK    5  A    between atoms: C_9  and  O_21 
REMARK    6  A    between atoms: P_29  and  O_22 
REMARK    7  A    between atoms: P_29  and  O_23 
REMARK    8  A    between atoms: P_30  and  O_25 
REMARK    9  A    between atoms: P_30  and  O_27 
REMARK   10  A    between atoms: P_29  and  O_28 
REMARK   11  A    between atoms: P_30  and  O_28 
ROOT
HETATM    1  C   UNK N   1      26.261  15.299   2.092  0.00  0.00     0.069 C 
HETATM    2  C   UNK N   1      29.052  18.512   9.309  0.00  0.00     0.089 C 
HETATM    3  C   UNK N   1      29.258  16.976   5.919  0.00  0.00     0.102 A 
HETATM    4  C   UNK N   1      27.818  17.214   3.861  0.00  0.00     0.170 C 
HETATM    5  C   UNK N   1      25.661  16.276   3.057  0.00  0.00     0.019 C 
HETATM    6  C   UNK N   1      28.733  18.162   7.899  0.00  0.00     0.078 A 
HETATM    7  C   UNK N   1      28.134  17.516   5.294  0.00  0.00     0.019 A 
HETATM    8  C   UNK N   1      24.394  16.248   3.442  0.00  0.00     0.006 C 
HETATM    9  C   UNK N   1      27.318  18.380   6.021  0.00  0.00     0.114 A 
HETATM   10  C   UNK N   1      25.549  18.346   4.242  0.00  0.00     0.189 C 
HETATM   11  N   UNK N   1      29.533  17.301   7.213  0.00  0.00    -0.355 N 
ATOM     12  HN  UNK N   1      30.346  16.893   7.673  1.00  0.00     0.166 HD
HETATM   13  N   UNK N   1      27.636  18.693   7.305  0.00  0.00    -0.332 N 
ATOM     14  HN  UNK N   1      27.042  19.337   7.830  1.00  0.00     0.168 HD
HETATM   15  N   UNK N   1      26.132  18.888   5.456  0.00  0.00    -0.338 N 
HETATM   16  N   UNK N   1      26.393  17.336   3.616  0.00  0.00    -0.342 N 
HETATM   17  S   UNK N   1      23.999  17.471   4.691  0.00  0.00    -0.076 SA
HETATM   18  H   UNK N   1      25.680  19.640   5.902  0.00  0.00     0.164 HD
ENDROOT
BRANCH   8  19
HETATM   19  C   UNK N   1      23.374  15.283   2.940  0.00  0.00     0.075 C 
BRANCH  19  20
HETATM   20  C   UNK N   1      21.997  15.732   3.407  0.00  0.00     0.185 C 
BRANCH  20  21
HETATM   21  O   UNK N   1      21.130  15.833   2.313  0.00  0.00    -0.296 OA
BRANCH  21  22
HETATM   22  P   UNK N   1      20.304  17.369   2.446  0.00  0.00     0.401 P 
HETATM   23  O   UNK N   1      19.504  17.429   3.779  0.00  0.00    -0.631 OA
BRANCH  22  24
HETATM   24  O   UNK N   1      19.157  17.567   1.166  0.00  0.00    -0.307 OA
HETATM   25  H   UNK N   1      18.721  16.802   0.757  0.00  0.00     0.222 HD
ENDBRANCH  22  24
BRANCH  22  26
HETATM   26  O   UNK N   1      21.441  18.732   2.352  0.00  0.00    -0.195 OA
BRANCH  26  27
HETATM   27  P   UNK N   1      20.746  20.351   2.075  0.00  0.00     0.399 P 
HETATM   28  O   UNK N   1      21.999  20.560   1.183  0.00  0.00    -0.631 OA
BRANCH  27  29
HETATM   29  O   UNK N   1      21.564  21.713   2.772  0.00  0.00    -0.307 OA
HETATM   30  H   UNK N   1      22.179  22.461   2.726  0.00  0.00     0.222 HD
ENDBRANCH  27  29
BRANCH  27  31
HETATM   31  O   UNK N   1      20.983  20.236   3.792  0.00  0.00    -0.307 OA
HETATM   32  H   UNK N   1      20.761  20.728   4.598  0.00  0.00     0.222 HD
ENDBRANCH  27  31
ENDBRANCH  26  27
ENDBRANCH  22  26
ENDBRANCH  21  22
ENDBRANCH  20  21
ENDBRANCH  19  20
ENDBRANCH   8  19
BRANCH  10  33
HETATM   33  C   UNK N   1      25.195  19.455   3.227  0.00  0.00     0.174 C 
HETATM   34  C   UNK N   1      26.228  20.566   3.206  0.00  0.00     0.044 C 
BRANCH  33  35
HETATM   35  O   UNK N   1      23.945  20.001   3.523  0.00  0.00    -0.391 OA
HETATM   36  H   UNK N   1      23.732  20.945   3.453  0.00  0.00     0.210 HD
ENDBRANCH  33  35
ENDBRANCH  10  33
TORSDOF 11
ENDMDL
MODEL 2
REMARK VINA RESULT:      -6.3      2.447      4.051
REMARK  11 active torsions:
REMARK  status: ('A' for Active; 'I' for Inactive)
REMARK    1  A    between atoms: C_5  and  C_4 
REMARK    2  A    between atoms: C_12  and  C_4 
REMARK    3  A    between atoms: O_27  and  C_5 
REMARK    4  A    between atoms: C_14  and  C_9 
REMARK    5  A    between atoms: C_9  and  O_21 
REMARK    6  A    between atoms: P_29  and  O_22 
REMARK    7  A    between atoms: P_29  and  O_23 
REMARK    8  A    between atoms: P_30  and  O_25 
REMARK    9  A    between atoms: P_30  and  O_27 
REMARK   10  A    between atoms: P_29  and  O_28 
REMARK   11  A    between atoms: P_30  and  O_28 
ROOT
HETATM    1  C   UNK N   1      26.666  20.917   6.399  0.00  0.00     0.069 C 
HETATM    2  C   UNK N   1      33.122  15.924   8.297  0.00  0.00     0.089 C 
HETATM    3  C   UNK N   1      30.441  18.451   8.870  0.00  0.00     0.102 A 
HETATM    4  C   UNK N   1      28.129  18.718   7.897  0.00  0.00     0.170 C 
HETATM    5  C   UNK N   1      27.154  19.632   5.801  0.00  0.00     0.019 C 
HETATM    6  C   UNK N   1      31.834  16.661   8.192  0.00  0.00     0.078 A 
HETATM    7  C   UNK N   1      29.452  18.019   7.988  0.00  0.00     0.019 A 
HETATM    8  C   UNK N   1      27.232  19.408   4.499  0.00  0.00     0.006 C 
HETATM    9  C   UNK N   1      29.700  16.893   7.206  0.00  0.00     0.114 A 
HETATM   10  C   UNK N   1      27.650  17.296   5.818  0.00  0.00     0.189 C 
HETATM   11  N   UNK N   1      31.619  17.770   8.950  0.00  0.00    -0.355 N 
ATOM     12  HN  UNK N   1      32.347  18.096   9.584  1.00  0.00     0.166 HD
HETATM   13  N   UNK N   1      30.881  16.230   7.328  0.00  0.00    -0.332 N 
ATOM     14  HN  UNK N   1      31.054  15.398   6.762  1.00  0.00     0.168 HD
HETATM   15  N   UNK N   1      28.761  16.467   6.248  0.00  0.00    -0.338 N 
HETATM   16  N   UNK N   1      27.542  18.532   6.583  0.00  0.00    -0.342 N 
HETATM   17  S   UNK N   1      27.962  17.824   4.088  0.00  0.00    -0.076 SA
HETATM   18  H   UNK N   1      28.861  15.570   5.853  0.00  0.00     0.164 HD
ENDROOT
BRANCH   8  19
HETATM   19  C   UNK N   1      26.805  20.370   3.443  0.00  0.00     0.075 C 
BRANCH  19  20
HETATM   20  C   UNK N   1      25.311  20.210   3.202  0.00  0.00     0.185 C 
BRANCH  20  21
HETATM   21  O   UNK N   1      24.954  18.859   3.292  0.00  0.00    -0.296 OA
BRANCH  21  22
HETATM   22  P   UNK N   1      23.318  18.796   3.906  0.00  0.00     0.401 P 
HETATM   23  O   UNK N   1      23.336  18.576   5.446  0.00  0.00    -0.631 OA
BRANCH  22  24
HETATM   24  O   UNK N   1      22.452  17.463   3.222  0.00  0.00    -0.307 OA
HETATM   25  H   UNK N   1      21.524  17.295   3.449  0.00  0.00     0.222 HD
ENDBRANCH  22  24
BRANCH  22  26
HETATM   26  O   UNK N   1      22.413  20.273   3.509  0.00  0.00    -0.195 OA
BRANCH  26  27
HETATM   27  P   UNK N   1      21.200  20.156   2.206  0.00  0.00     0.399 P 
HETATM   28  O   UNK N   1      22.387  20.550   1.286  0.00  0.00    -0.631 OA
BRANCH  27  29
HETATM   29  O   UNK N   1      20.695  21.626   1.437  0.00  0.00    -0.307 OA
HETATM   30  H   UNK N   1      20.863  22.419   0.904  0.00  0.00     0.222 HD
ENDBRANCH  27  29
BRANCH  27  31
HETATM   31  O   UNK N   1      20.590  21.359   3.301  0.00  0.00    -0.307 OA
HETATM   32  H   UNK N   1      20.195  22.244   3.272  0.00  0.00     0.222 HD
ENDBRANCH  27  31
ENDBRANCH  26  27
ENDBRANCH  22  26
ENDBRANCH  21  22
ENDBRANCH  20  21
ENDBRANCH  19  20
ENDBRANCH   8  19
BRANCH  10  33
HETATM   33  C   UNK N   1      26.311  16.528   5.849  0.00  0.00     0.174 C 
HETATM   34  C   UNK N   1      26.395  15.257   6.674  0.00  0.00     0.044 C 
BRANCH  33  35
HETATM   35  O   UNK N   1      25.909  16.202   4.552  0.00  0.00    -0.391 OA
HETATM   36  H   UNK N   1      26.518  16.082   3.806  0.00  0.00     0.210 HD
ENDBRANCH  33  35
ENDBRANCH  10  33
TORSDOF 11
ENDMDL
MODEL 3
REMARK VINA RESULT:      -6.0      9.908     12.604
REMARK  11 active torsions:
REMARK  status: ('A' for Active; 'I' for Inactive)
REMARK    1  A    between atoms: C_5  and  C_4 
REMARK    2  A    between atoms: C_12  and  C_4 
REMARK    3  A    between atoms: O_27  and  C_5 
REMARK    4  A    between atoms: C_14  and  C_9 
REMARK    5  A    between atoms: C_9  and  O_21 
REMARK    6  A    between atoms: P_29  and  O_22 
REMARK    7  A    between atoms: P_29  and  O_23 
REMARK    8  A    between atoms: P_30  and  O_25 
REMARK    9  A    between atoms: P_30  and  O_27 
REMARK   10  A    between atoms: P_29  and  O_28 
REMARK   11  A    between atoms: P_30  and  O_28 
ROOT
HETATM    1  C   UNK N   1      33.404  12.186   9.106  0.00  0.00     0.069 C 
HETATM    2  C   UNK N   1      35.226  13.388  17.195  0.00  0.00     0.089 C 
HETATM    3  C   UNK N   1      34.360  11.485  14.109  0.00  0.00     0.102 A 
HETATM    4  C   UNK N   1      34.967  11.824  11.684  0.00  0.00     0.170 C 
HETATM    5  C   UNK N   1      34.174  13.258   9.815  0.00  0.00     0.019 C 
HETATM    6  C   UNK N   1      35.144  12.981  15.767  0.00  0.00     0.078 A 
HETATM    7  C   UNK N   1      34.996  12.238  13.123  0.00  0.00     0.019 A 
HETATM    8  C   UNK N   1      34.061  14.549   9.544  0.00  0.00     0.006 C 
HETATM    9  C   UNK N   1      35.698  13.379  13.505  0.00  0.00     0.114 A 
HETATM   10  C   UNK N   1      35.982  14.110  11.122  0.00  0.00     0.189 C 
HETATM   11  N   UNK N   1      34.438  11.874  15.412  0.00  0.00    -0.355 N 
ATOM     12  HN  UNK N   1      33.959  11.330  16.130  1.00  0.00     0.166 HD
HETATM   13  N   UNK N   1      35.767  13.725  14.819  0.00  0.00    -0.332 N 
ATOM     14  HN  UNK N   1      36.293  14.555  15.096  1.00  0.00     0.168 HD
HETATM   15  N   UNK N   1      36.291  14.212  12.537  0.00  0.00    -0.338 N 
HETATM   16  N   UNK N   1      35.118  12.977  10.816  0.00  0.00    -0.342 N 
HETATM   17  S   UNK N   1      35.021  15.596  10.636  0.00  0.00    -0.076 SA
HETATM   18  H   UNK N   1      36.941  14.891  12.830  0.00  0.00     0.164 HD
ENDROOT
BRANCH   8  19
HETATM   19  C   UNK N   1      33.197  15.120   8.471  0.00  0.00     0.075 C 
BRANCH  19  20
HETATM   20  C   UNK N   1      33.474  16.612   8.354  0.00  0.00     0.185 C 
BRANCH  20  21
HETATM   21  O   UNK N   1      32.724  17.157   7.305  0.00  0.00    -0.296 OA
BRANCH  21  22
HETATM   22  P   UNK N   1      33.566  16.783   5.818  0.00  0.00     0.401 P 
HETATM   23  O   UNK N   1      35.058  16.458   6.119  0.00  0.00    -0.631 OA
BRANCH  22  24
HETATM   24  O   UNK N   1      33.558  18.140   4.745  0.00  0.00    -0.307 OA
HETATM   25  H   UNK N   1      34.256  18.263   4.083  0.00  0.00     0.222 HD
ENDBRANCH  22  24
BRANCH  22  26
HETATM   26  O   UNK N   1      32.805  15.426   4.960  0.00  0.00    -0.195 OA
BRANCH  26  27
HETATM   27  P   UNK N   1      31.607  15.830   3.703  0.00  0.00     0.399 P 
HETATM   28  O   UNK N   1      32.850  16.284   2.890  0.00  0.00    -0.631 OA
BRANCH  27  29
HETATM   29  O   UNK N   1      31.326  17.508   3.362  0.00  0.00    -0.307 OA
HETATM   30  H   UNK N   1      31.608  18.378   3.040  0.00  0.00     0.222 HD
ENDBRANCH  27  29
BRANCH  27  31
HETATM   31  O   UNK N   1      31.158  16.773   5.092  0.00  0.00    -0.307 OA
HETATM   32  H   UNK N   1      30.664  17.581   5.301  0.00  0.00     0.222 HD
ENDBRANCH  27  31
ENDBRANCH  26  27
ENDBRANCH  22  26
ENDBRANCH  21  22
ENDBRANCH  20  21
ENDBRANCH  19  20
ENDBRANCH   8  19
BRANCH  10  33
HETATM   33  C   UNK N   1      37.259  14.061  10.255  0.00  0.00     0.174 C 
HETATM   34  C   UNK N   1      38.237  13.003  10.731  0.00  0.00     0.044 C 
BRANCH  33  35
HETATM   35  O   UNK N   1      37.896  15.304  10.260  0.00  0.00    -0.391 OA
HETATM   36  H   UNK N   1      38.099  15.815   9.461  0.00  0.00     0.210 HD
ENDBRANCH  33  35
ENDBRANCH  10  33
TORSDOF 11
ENDMDL
MODEL 4
REMARK VINA RESULT:      -5.9      9.667     12.309
REMARK  11 active torsions:
REMARK  status: ('A' for Active; 'I' for Inactive)
REMARK    1  A    between atoms: C_5  and  C_4 
REMARK    2  A    between atoms: C_12  and  C_4 
REMARK    3  A    between atoms: O_27  and  C_5 
REMARK    4  A    between atoms: C_14  and  C_9 
REMARK    5  A    between atoms: C_9  and  O_21 
REMARK    6  A    between atoms: P_29  and  O_22 
REMARK    7  A    between atoms: P_29  and  O_23 
REMARK    8  A    between atoms: P_30  and  O_25 
REMARK    9  A    between atoms: P_30  and  O_27 
REMARK   10  A    between atoms: P_29  and  O_28 
REMARK   11  A    between atoms: P_30  and  O_28 
ROOT
HETATM    1  C   UNK N   1      33.925  11.840   8.693  0.00  0.00     0.069 C 
HETATM    2  C   UNK N   1      34.968  13.490  16.841  0.00  0.00     0.089 C 
HETATM    3  C   UNK N   1      34.404  11.417  13.795  0.00  0.00     0.102 A 
HETATM    4  C   UNK N   1      35.237  11.629  11.423  0.00  0.00     0.170 C 
HETATM    5  C   UNK N   1      34.622  12.955   9.412  0.00  0.00     0.019 C 
HETATM    6  C   UNK N   1      35.023  13.006  15.436  0.00  0.00     0.078 A 
HETATM    7  C   UNK N   1      35.128  12.121  12.835  0.00  0.00     0.019 A 
HETATM    8  C   UNK N   1      34.532  14.228   9.062  0.00  0.00     0.006 C 
HETATM    9  C   UNK N   1      35.788  13.286  13.219  0.00  0.00     0.114 A 
HETATM   10  C   UNK N   1      36.295  13.890  10.837  0.00  0.00     0.189 C 
HETATM   11  N   UNK N   1      34.356  11.877  15.077  0.00  0.00    -0.355 N 
ATOM     12  HN  UNK N   1      33.813  11.368  15.774  1.00  0.00     0.166 HD
HETATM   13  N   UNK N   1      35.731  13.703  14.512  0.00  0.00    -0.332 N 
ATOM     14  HN  UNK N   1      36.226  14.550  14.792  1.00  0.00     0.168 HD
HETATM   15  N   UNK N   1      36.469  14.070  12.267  0.00  0.00    -0.338 N 
HETATM   16  N   UNK N   1      35.467  12.735  10.513  0.00  0.00    -0.342 N 
HETATM   17  S   UNK N   1      35.382  15.340  10.182  0.00  0.00    -0.076 SA
HETATM   18  H   UNK N   1      37.086  14.769  12.583  0.00  0.00     0.164 HD
ENDROOT
BRANCH   8  19
HETATM   19  C   UNK N   1      33.772  14.734   7.883  0.00  0.00     0.075 C 
BRANCH  19  20
HETATM   20  C   UNK N   1      32.304  14.868   8.260  0.00  0.00     0.185 C 
BRANCH  20  21
HETATM   21  O   UNK N   1      32.132  15.942   9.141  0.00  0.00    -0.296 OA
BRANCH  21  22
HETATM   22  P   UNK N   1      31.745  17.348   8.175  0.00  0.00     0.401 P 
HETATM   23  O   UNK N   1      31.460  16.922   6.706  0.00  0.00    -0.631 OA
BRANCH  22  24
HETATM   24  O   UNK N   1      33.079  18.449   8.125  0.00  0.00    -0.307 OA
HETATM   25  H   UNK N   1      32.975  19.378   8.384  0.00  0.00     0.222 HD
ENDBRANCH  22  24
BRANCH  22  26
HETATM   26  O   UNK N   1      30.354  18.234   8.837  0.00  0.00    -0.195 OA
BRANCH  26  27
HETATM   27  P   UNK N   1      28.731  17.658   8.374  0.00  0.00     0.399 P 
HETATM   28  O   UNK N   1      28.454  19.159   8.093  0.00  0.00    -0.631 OA
BRANCH  27  29
HETATM   29  O   UNK N   1      27.401  18.066   9.412  0.00  0.00    -0.307 OA
HETATM   30  H   UNK N   1      26.981  18.609  10.096  0.00  0.00     0.222 HD
ENDBRANCH  27  29
BRANCH  27  31
HETATM   31  O   UNK N   1      28.942  17.168  10.028  0.00  0.00    -0.307 OA
HETATM   32  H   UNK N   1      29.123  16.363  10.538  0.00  0.00     0.222 HD
ENDBRANCH  27  31
ENDBRANCH  26  27
ENDBRANCH  22  26
ENDBRANCH  21  22
ENDBRANCH  20  21
ENDBRANCH  19  20
ENDBRANCH   8  19
BRANCH  10  33
HETATM   33  C   UNK N   1      37.649  13.803  10.098  0.00  0.00     0.174 C 
HETATM   34  C   UNK N   1      38.559  12.742  10.688  0.00  0.00     0.044 C 
BRANCH  33  35
HETATM   35  O   UNK N   1      38.302  15.037  10.140  0.00  0.00    -0.391 OA
HETATM   36  H   UNK N   1      37.871  15.875  10.366  0.00  0.00     0.210 HD
ENDBRANCH  33  35
ENDBRANCH  10  33
TORSDOF 11
ENDMDL
MODEL 5
REMARK VINA RESULT:      -5.9      2.779      4.930
REMARK  11 active torsions:
REMARK  status: ('A' for Active; 'I' for Inactive)
REMARK    1  A    between atoms: C_5  and  C_4 
REMARK    2  A    between atoms: C_12  and  C_4 
REMARK    3  A    between atoms: O_27  and  C_5 
REMARK    4  A    between atoms: C_14  and  C_9 
REMARK    5  A    between atoms: C_9  and  O_21 
REMARK    6  A    between atoms: P_29  and  O_22 
REMARK    7  A    between atoms: P_29  and  O_23 
REMARK    8  A    between atoms: P_30  and  O_25 
REMARK    9  A    between atoms: P_30  and  O_27 
REMARK   10  A    between atoms: P_29  and  O_28 
REMARK   11  A    between atoms: P_30  and  O_28 
ROOT
HETATM    1  C   UNK N   1      26.841  20.732   6.591  0.00  0.00     0.069 C 
HETATM    2  C   UNK N   1      33.468  15.837   8.117  0.00  0.00     0.089 C 
HETATM    3  C   UNK N   1      30.780  18.315   8.845  0.00  0.00     0.102 A 
HETATM    4  C   UNK N   1      28.416  18.549   7.996  0.00  0.00     0.170 C 
HETATM    5  C   UNK N   1      27.317  19.459   5.960  0.00  0.00     0.019 C 
HETATM    6  C   UNK N   1      32.164  16.553   8.084  0.00  0.00     0.078 A 
HETATM    7  C   UNK N   1      29.753  17.872   8.014  0.00  0.00     0.019 A 
HETATM    8  C   UNK N   1      27.331  19.243   4.654  0.00  0.00     0.006 C 
HETATM    9  C   UNK N   1      29.978  16.755   7.212  0.00  0.00     0.114 A 
HETATM   10  C   UNK N   1      27.851  17.131   5.936  0.00  0.00     0.189 C 
HETATM   11  N   UNK N   1      31.971  17.653   8.859  0.00  0.00    -0.355 N 
ATOM     12  HN  UNK N   1      32.726  17.988   9.457  1.00  0.00     0.166 HD
HETATM   13  N   UNK N   1      31.175  16.111   7.268  0.00  0.00    -0.332 N 
ATOM     14  HN  UNK N   1      31.331  15.285   6.689  1.00  0.00     0.168 HD
HETATM   15  N   UNK N   1      28.997  16.318   6.302  0.00  0.00    -0.338 N 
HETATM   16  N   UNK N   1      27.764  18.361   6.714  0.00  0.00    -0.342 N 
HETATM   17  S   UNK N   1      28.064  17.674   4.196  0.00  0.00    -0.076 SA
HETATM   18  H   UNK N   1      29.091  15.426   5.896  0.00  0.00     0.164 HD
ENDROOT
BRANCH   8  19
HETATM   19  C   UNK N   1      26.834  20.205   3.628  0.00  0.00     0.075 C 
BRANCH  19  20
HETATM   20  C   UNK N   1      25.523  19.684   3.057  0.00  0.00     0.185 C 
BRANCH  20  21
HETATM   21  O   UNK N   1      24.465  20.009   3.914  0.00  0.00    -0.296 OA
BRANCH  21  22
HETATM   22  P   UNK N   1      23.515  18.557   4.138  0.00  0.00     0.401 P 
HETATM   23  O   UNK N   1      22.129  18.717   3.449  0.00  0.00    -0.631 OA
BRANCH  22  24
HETATM   24  O   UNK N   1      23.208  18.273   5.817  0.00  0.00    -0.307 OA
HETATM   25  H   UNK N   1      23.109  19.008   6.443  0.00  0.00     0.222 HD
ENDBRANCH  22  24
BRANCH  22  26
HETATM   26  O   UNK N   1      24.353  17.124   3.504  0.00  0.00    -0.195 OA
BRANCH  26  27
HETATM   27  P   UNK N   1      23.377  15.649   3.274  0.00  0.00     0.399 P 
HETATM   28  O   UNK N   1      23.358  15.612   4.826  0.00  0.00    -0.631 OA
BRANCH  27  29
HETATM   29  O   UNK N   1      24.099  14.128   3.690  0.00  0.00    -0.307 OA
HETATM   30  H   UNK N   1      24.126  13.298   4.190  0.00  0.00     0.222 HD
ENDBRANCH  27  29
BRANCH  27  31
HETATM   31  O   UNK N   1      24.887  15.335   2.473  0.00  0.00    -0.307 OA
HETATM   32  H   UNK N   1      25.541  14.624   2.394  0.00  0.00     0.222 HD
ENDBRANCH  27  31
ENDBRANCH  26  27
ENDBRANCH  22  26
ENDBRANCH  21  22
ENDBRANCH  20  21
ENDBRANCH  19  20
ENDBRANCH   8  19
BRANCH  10  33
HETATM   33  C   UNK N   1      26.529  16.340   6.032  0.00  0.00     0.174 C 
HETATM   34  C   UNK N   1      26.416  15.562   7.330  0.00  0.00     0.044 C 
BRANCH  33  35
HETATM   35  O   UNK N   1      26.415  15.454   4.959  0.00  0.00    -0.391 OA
HETATM   36  H   UNK N   1      27.146  14.916   4.616  0.00  0.00     0.210 HD
ENDBRANCH  33  35
ENDBRANCH  10  33
TORSDOF 11
ENDMDL
MODEL 6
REMARK VINA RESULT:      -5.8     10.411     12.499
REMARK  11 active torsions:
REMARK  status: ('A' for Active; 'I' for Inactive)
REMARK    1  A    between atoms: C_5  and  C_4 
REMARK    2  A    between atoms: C_12  and  C_4 
REMARK    3  A    between atoms: O_27  and  C_5 
REMARK    4  A    between atoms: C_14  and  C_9 
REMARK    5  A    between atoms: C_9  and  O_21 
REMARK    6  A    between atoms: P_29  and  O_22 
REMARK    7  A    between atoms: P_29  and  O_23 
REMARK    8  A    between atoms: P_30  and  O_25 
REMARK    9  A    between atoms: P_30  and  O_27 
REMARK   10  A    between atoms: P_29  and  O_28 
REMARK   11  A    between atoms: P_30  and  O_28 
ROOT
HETATM    1  C   UNK N   1      37.841  13.377   8.204  0.00  0.00     0.069 C 
HETATM    2  C   UNK N   1      34.068  10.394  15.065  0.00  0.00     0.089 C 
HETATM    3  C   UNK N   1      36.889  11.217  12.772  0.00  0.00     0.102 A 
HETATM    4  C   UNK N   1      37.273  13.133  11.177  0.00  0.00     0.170 C 
HETATM    5  C   UNK N   1      36.548  13.730   8.875  0.00  0.00     0.019 C 
HETATM    6  C   UNK N   1      34.900  11.092  14.050  0.00  0.00     0.078 A 
HETATM    7  C   UNK N   1      36.432  12.387  12.169  0.00  0.00     0.019 A 
HETATM    8  C   UNK N   1      35.416  13.950   8.225  0.00  0.00     0.006 C 
HETATM    9  C   UNK N   1      35.180  12.880  12.531  0.00  0.00     0.114 A 
HETATM   10  C   UNK N   1      35.203  14.558  10.666  0.00  0.00     0.189 C 
HETATM   11  N   UNK N   1      36.111  10.584  13.695  0.00  0.00    -0.355 N 
ATOM     12  HN  UNK N   1      36.441   9.720  14.125  1.00  0.00     0.166 HD
HETATM   13  N   UNK N   1      34.442  12.229  13.470  0.00  0.00    -0.332 N 
ATOM     14  HN  UNK N   1      33.531  12.601  13.741  1.00  0.00     0.168 HD
HETATM   15  N   UNK N   1      34.646  14.015  11.893  0.00  0.00    -0.338 N 
HETATM   16  N   UNK N   1      36.436  13.891  10.266  0.00  0.00    -0.342 N 
HETATM   17  S   UNK N   1      34.015  14.236   9.305  0.00  0.00    -0.076 SA
HETATM   18  H   UNK N   1      33.864  14.459  12.293  0.00  0.00     0.164 HD
ENDROOT
BRANCH   8  19
HETATM   19  C   UNK N   1      35.270  13.929   6.741  0.00  0.00     0.075 C 
BRANCH  19  20
HETATM   20  C   UNK N   1      35.346  15.356   6.217  0.00  0.00     0.185 C 
BRANCH  20  21
HETATM   21  O   UNK N   1      34.349  15.567   5.257  0.00  0.00    -0.296 OA
BRANCH  21  22
HETATM   22  P   UNK N   1      33.414  16.952   5.777  0.00  0.00     0.401 P 
HETATM   23  O   UNK N   1      34.355  18.028   6.390  0.00  0.00    -0.631 OA
BRANCH  22  24
HETATM   24  O   UNK N   1      32.290  16.508   7.015  0.00  0.00    -0.307 OA
HETATM   25  H   UNK N   1      32.587  16.102   7.844  0.00  0.00     0.222 HD
ENDBRANCH  22  24
BRANCH  22  26
HETATM   26  O   UNK N   1      32.478  17.648   4.437  0.00  0.00    -0.195 OA
BRANCH  26  27
HETATM   27  P   UNK N   1      31.677  16.506   3.326  0.00  0.00     0.399 P 
HETATM   28  O   UNK N   1      31.238  15.792   4.633  0.00  0.00    -0.631 OA
BRANCH  27  29
HETATM   29  O   UNK N   1      32.334  14.905   3.200  0.00  0.00    -0.307 OA
HETATM   30  H   UNK N   1      32.825  14.148   3.555  0.00  0.00     0.222 HD
ENDBRANCH  27  29
BRANCH  27  31
HETATM   31  O   UNK N   1      33.363  16.459   2.905  0.00  0.00    -0.307 OA
HETATM   32  H   UNK N   1      34.222  16.689   3.291  0.00  0.00     0.222 HD
ENDBRANCH  27  31
ENDBRANCH  26  27
ENDBRANCH  22  26
ENDBRANCH  21  22
ENDBRANCH  20  21
ENDBRANCH  19  20
ENDBRANCH   8  19
BRANCH  10  33
HETATM   33  C   UNK N   1      35.424  16.083  10.759  0.00  0.00     0.174 C 
HETATM   34  C   UNK N   1      34.714  16.835   9.648  0.00  0.00     0.044 C 
BRANCH  33  35
HETATM   35  O   UNK N   1      36.787  16.379  10.709  0.00  0.00    -0.391 OA
HETATM   36  H   UNK N   1      37.185  17.183  11.080  0.00  0.00     0.210 HD
ENDBRANCH  33  35
ENDBRANCH  10  33
TORSDOF 11
ENDMDL
MODEL 7
REMARK VINA RESULT:      -5.7      3.062      4.187
REMARK  11 active torsions:
REMARK  status: ('A' for Active; 'I' for Inactive)
REMARK    1  A    between atoms: C_5  and  C_4 
REMARK    2  A    between atoms: C_12  and  C_4 
REMARK    3  A    between atoms: O_27  and  C_5 
REMARK    4  A    between atoms: C_14  and  C_9 
REMARK    5  A    between atoms: C_9  and  O_21 
REMARK    6  A    between atoms: P_29  and  O_22 
REMARK    7  A    between atoms: P_29  and  O_23 
REMARK    8  A    between atoms: P_30  and  O_25 
REMARK    9  A    between atoms: P_30  and  O_27 
REMARK   10  A    between atoms: P_29  and  O_28 
REMARK   11  A    between atoms: P_30  and  O_28 
ROOT
HETATM    1  C   UNK N   1      25.327  15.279   2.540  0.00  0.00     0.069 C 
HETATM    2  C   UNK N   1      29.222  18.668   9.139  0.00  0.00     0.089 C 
HETATM    3  C   UNK N   1      28.880  16.802   5.930  0.00  0.00     0.102 A 
HETATM    4  C   UNK N   1      27.315  17.074   3.971  0.00  0.00     0.170 C 
HETATM    5  C   UNK N   1      24.975  16.428   3.435  0.00  0.00     0.019 C 
HETATM    6  C   UNK N   1      28.727  18.241   7.803  0.00  0.00     0.078 A 
HETATM    7  C   UNK N   1      27.802  17.456   5.335  0.00  0.00     0.019 A 
HETATM    8  C   UNK N   1      23.760  16.645   3.913  0.00  0.00     0.006 C 
HETATM    9  C   UNK N   1      27.198  18.507   6.022  0.00  0.00     0.114 A 
HETATM   10  C   UNK N   1      25.292  18.592   4.393  0.00  0.00     0.189 C 
HETATM   11  N   UNK N   1      29.318  17.200   7.158  0.00  0.00    -0.355 N 
ATOM     12  HN  UNK N   1      30.097  16.710   7.598  1.00  0.00     0.166 HD
HETATM   13  N   UNK N   1      27.676  18.886   7.238  0.00  0.00    -0.332 N 
ATOM     14  HN  UNK N   1      27.238  19.665   7.731  1.00  0.00     0.168 HD
HETATM   15  N   UNK N   1      26.060  19.146   5.494  0.00  0.00    -0.338 N 
HETATM   16  N   UNK N   1      25.910  17.403   3.819  0.00  0.00    -0.342 N 
HETATM   17  S   UNK N   1      23.673  18.029   5.047  0.00  0.00    -0.076 SA
HETATM   18  H   UNK N   1      25.772  20.001   5.887  0.00  0.00     0.164 HD
ENDROOT
BRANCH   8  19
HETATM   19  C   UNK N   1      22.561  15.816   3.596  0.00  0.00     0.075 C 
BRANCH  19  20
HETATM   20  C   UNK N   1      21.587  15.888   4.763  0.00  0.00     0.185 C 
BRANCH  20  21
HETATM   21  O   UNK N   1      21.008  14.632   4.982  0.00  0.00    -0.296 OA
BRANCH  21  22
HETATM   22  P   UNK N   1      21.645  14.024   6.493  0.00  0.00     0.401 P 
HETATM   23  O   UNK N   1      22.761  14.972   7.019  0.00  0.00    -0.631 OA
BRANCH  22  24
HETATM   24  O   UNK N   1      22.371  12.469   6.277  0.00  0.00    -0.307 OA
HETATM   25  H   UNK N   1      22.247  11.965   5.458  0.00  0.00     0.222 HD
ENDBRANCH  22  24
BRANCH  22  26
HETATM   26  O   UNK N   1      20.367  13.846   7.716  0.00  0.00    -0.195 OA
BRANCH  26  27
HETATM   27  P   UNK N   1      20.184  15.169   8.897  0.00  0.00     0.399 P 
HETATM   28  O   UNK N   1      19.538  14.071   9.785  0.00  0.00    -0.631 OA
BRANCH  27  29
HETATM   29  O   UNK N   1      18.581  15.748   9.222  0.00  0.00    -0.307 OA
HETATM   30  H   UNK N   1      17.748  16.167   8.955  0.00  0.00     0.222 HD
ENDBRANCH  27  29
BRANCH  27  31
HETATM   31  O   UNK N   1      19.314  15.685   7.484  0.00  0.00    -0.307 OA
HETATM   32  H   UNK N   1      19.179  15.409   6.565  0.00  0.00     0.222 HD
ENDBRANCH  27  31
ENDBRANCH  26  27
ENDBRANCH  22  26
ENDBRANCH  21  22
ENDBRANCH  20  21
ENDBRANCH  19  20
ENDBRANCH   8  19
BRANCH  10  33
HETATM   33  C   UNK N   1      25.025  19.642   3.292  0.00  0.00     0.174 C 
HETATM   34  C   UNK N   1      26.204  20.575   3.087  0.00  0.00     0.044 C 
BRANCH  33  35
HETATM   35  O   UNK N   1      23.895  20.399   3.609  0.00  0.00    -0.391 OA
HETATM   36  H   UNK N   1      23.246  20.153   4.286  0.00  0.00     0.210 HD
ENDBRANCH  33  35
ENDBRANCH  10  33
TORSDOF 11
ENDMDL
MODEL 8
REMARK VINA RESULT:      -5.7      2.178      4.315
REMARK  11 active torsions:
REMARK  status: ('A' for Active; 'I' for Inactive)
REMARK    1  A    between atoms: C_5  and  C_4 
REMARK    2  A    between atoms: C_12  and  C_4 
REMARK    3  A    between atoms: O_27  and  C_5 
REMARK    4  A    between atoms: C_14  and  C_9 
REMARK    5  A    between atoms: C_9  and  O_21 
REMARK    6  A    between atoms: P_29  and  O_22 
REMARK    7  A    between atoms: P_29  and  O_23 
REMARK    8  A    between atoms: P_30  and  O_25 
REMARK    9  A    between atoms: P_30  and  O_27 
REMARK   10  A    between atoms: P_29  and  O_28 
REMARK   11  A    between atoms: P_30  and  O_28 
ROOT
HETATM    1  C   UNK N   1      27.355  20.519   6.195  0.00  0.00     0.069 C 
HETATM    2  C   UNK N   1      32.180  14.385   3.148  0.00  0.00     0.089 C 
HETATM    3  C   UNK N   1      31.166  17.154   5.427  0.00  0.00     0.102 A 
HETATM    4  C   UNK N   1      28.915  17.915   6.272  0.00  0.00     0.170 C 
HETATM    5  C   UNK N   1      27.036  19.290   5.400  0.00  0.00     0.019 C 
HETATM    6  C   UNK N   1      31.340  15.311   3.952  0.00  0.00     0.078 A 
HETATM    7  C   UNK N   1      29.779  17.023   5.434  0.00  0.00     0.019 A 
HETATM    8  C   UNK N   1      26.192  19.270   4.381  0.00  0.00     0.006 C 
HETATM    9  C   UNK N   1      29.201  16.013   4.667  0.00  0.00     0.114 A 
HETATM   10  C   UNK N   1      26.896  16.934   5.032  0.00  0.00     0.189 C 
HETATM   11  N   UNK N   1      31.923  16.303   4.679  0.00  0.00    -0.355 N 
ATOM     12  HN  UNK N   1      32.936  16.411   4.663  1.00  0.00     0.166 HD
HETATM   13  N   UNK N   1      29.991  15.172   3.948  0.00  0.00    -0.332 N 
ATOM     14  HN  UNK N   1      29.564  14.426   3.397  1.00  0.00     0.168 HD
HETATM   15  N   UNK N   1      27.801  15.891   4.584  0.00  0.00    -0.338 N 
HETATM   16  N   UNK N   1      27.589  18.033   5.694  0.00  0.00    -0.342 N 
HETATM   17  S   UNK N   1      26.105  17.682   3.554  0.00  0.00    -0.076 SA
HETATM   18  H   UNK N   1      27.419  15.066   4.206  0.00  0.00     0.164 HD
ENDROOT
BRANCH   8  19
HETATM   19  C   UNK N   1      25.401  20.443   3.908  0.00  0.00     0.075 C 
BRANCH  19  20
HETATM   20  C   UNK N   1      24.022  19.968   3.473  0.00  0.00     0.185 C 
BRANCH  20  21
HETATM   21  O   UNK N   1      23.347  21.000   2.811  0.00  0.00    -0.296 OA
BRANCH  21  22
HETATM   22  P   UNK N   1      21.740  20.416   2.445  0.00  0.00     0.401 P 
HETATM   23  O   UNK N   1      21.466  20.535   0.918  0.00  0.00    -0.631 OA
BRANCH  22  24
HETATM   24  O   UNK N   1      20.538  21.371   3.243  0.00  0.00    -0.307 OA
HETATM   25  H   UNK N   1      20.577  21.532   4.199  0.00  0.00     0.222 HD
ENDBRANCH  22  24
BRANCH  22  26
HETATM   26  O   UNK N   1      21.518  18.735   2.978  0.00  0.00    -0.195 OA
BRANCH  26  27
HETATM   27  P   UNK N   1      20.207  17.804   2.204  0.00  0.00     0.399 P 
HETATM   28  O   UNK N   1      19.287  18.886   2.832  0.00  0.00    -0.631 OA
BRANCH  27  29
HETATM   29  O   UNK N   1      19.125  16.923   3.234  0.00  0.00    -0.307 OA
HETATM   30  H   UNK N   1      18.466  16.230   3.396  0.00  0.00     0.222 HD
ENDBRANCH  27  29
BRANCH  27  31
HETATM   31  O   UNK N   1      20.996  16.689   3.279  0.00  0.00    -0.307 OA
HETATM   32  H   UNK N   1      20.962  15.749   3.514  0.00  0.00     0.222 HD
ENDBRANCH  27  31
ENDBRANCH  26  27
ENDBRANCH  22  26
ENDBRANCH  21  22
ENDBRANCH  20  21
ENDBRANCH  19  20
ENDBRANCH   8  19
BRANCH  10  33
HETATM   33  C   UNK N   1      25.780  16.378   5.942  0.00  0.00     0.174 C 
HETATM   34  C   UNK N   1      25.732  14.861   5.932  0.00  0.00     0.044 C 
BRANCH  33  35
HETATM   35  O   UNK N   1      24.537  16.874   5.542  0.00  0.00    -0.391 OA
HETATM   36  H   UNK N   1      24.412  17.532   4.840  0.00  0.00     0.210 HD
ENDBRANCH  33  35
ENDBRANCH  10  33
TORSDOF 11
ENDMDL
MODEL 9
REMARK VINA RESULT:      -5.7     15.949     18.686
REMARK  11 active torsions:
REMARK  status: ('A' for Active; 'I' for Inactive)
REMARK    1  A    between atoms: C_5  and  C_4 
REMARK    2  A    between atoms: C_12  and  C_4 
REMARK    3  A    between atoms: O_27  and  C_5 
REMARK    4  A    between atoms: C_14  and  C_9 
REMARK    5  A    between atoms: C_9  and  O_21 
REMARK    6  A    between atoms: P_29  and  O_22 
REMARK    7  A    between atoms: P_29  and  O_23 
REMARK    8  A    between atoms: P_30  and  O_25 
REMARK    9  A    between atoms: P_30  and  O_27 
REMARK   10  A    between atoms: P_29  and  O_28 
REMARK   11  A    between atoms: P_30  and  O_28 
ROOT
HETATM    1  C   UNK N   1      37.174  15.226  16.050  0.00  0.00     0.069 C 
HETATM    2  C   UNK N   1      32.583  15.001   9.045  0.00  0.00     0.089 C 
HETATM    3  C   UNK N   1      35.318  16.087  11.333  0.00  0.00     0.102 A 
HETATM    4  C   UNK N   1      36.653  14.854  13.082  0.00  0.00     0.170 C 
HETATM    5  C   UNK N   1      36.315  14.158  15.444  0.00  0.00     0.019 C 
HETATM    6  C   UNK N   1      33.633  14.974  10.098  0.00  0.00     0.078 A 
HETATM    7  C   UNK N   1      35.570  14.918  12.048  0.00  0.00     0.019 A 
HETATM    8  C   UNK N   1      35.477  13.403  16.138  0.00  0.00     0.006 C 
HETATM    9  C   UNK N   1      34.813  13.784  11.761  0.00  0.00     0.114 A 
HETATM   10  C   UNK N   1      35.709  12.570  13.766  0.00  0.00     0.189 C 
HETATM   11  N   UNK N   1      34.347  16.098  10.376  0.00  0.00    -0.355 N 
ATOM     12  HN  UNK N   1      34.154  16.959   9.865  1.00  0.00     0.166 HD
HETATM   13  N   UNK N   1      33.866  13.830  10.787  0.00  0.00    -0.332 N 
ATOM     14  HN  UNK N   1      33.322  12.993  10.571  1.00  0.00     0.168 HD
HETATM   15  N   UNK N   1      34.981  12.603  12.511  0.00  0.00    -0.338 N 
HETATM   16  N   UNK N   1      36.352  13.841  14.076  0.00  0.00    -0.342 N 
HETATM   17  S   UNK N   1      34.503  12.295  15.122  0.00  0.00    -0.076 SA
HETATM   18  H   UNK N   1      34.589  11.767  12.170  0.00  0.00     0.164 HD
ENDROOT
BRANCH   8  19
HETATM   19  C   UNK N   1      35.301  13.468  17.618  0.00  0.00     0.075 C 
BRANCH  19  20
HETATM   20  C   UNK N   1      35.297  12.053  18.178  0.00  0.00     0.185 C 
BRANCH  20  21
HETATM   21  O   UNK N   1      35.302  12.092  19.577  0.00  0.00    -0.296 OA
BRANCH  21  22
HETATM   22  P   UNK N   1      35.165  10.442  20.142  0.00  0.00     0.401 P 
HETATM   23  O   UNK N   1      34.186   9.648  19.231  0.00  0.00    -0.631 OA
BRANCH  22  24
HETATM   24  O   UNK N   1      34.511  10.390  21.743  0.00  0.00    -0.307 OA
HETATM   25  H   UNK N   1      34.792  11.022  22.423  0.00  0.00     0.222 HD
ENDBRANCH  22  24
BRANCH  22  26
HETATM   26  O   UNK N   1      36.748   9.635  20.192  0.00  0.00    -0.195 OA
BRANCH  26  27
HETATM   27  P   UNK N   1      37.625   9.663  21.744  0.00  0.00     0.399 P 
HETATM   28  O   UNK N   1      36.548   8.636  22.187  0.00  0.00    -0.631 OA
BRANCH  27  29
HETATM   29  O   UNK N   1      36.839  10.401  23.104  0.00  0.00    -0.307 OA
HETATM   30  H   UNK N   1      36.078  10.823  23.531  0.00  0.00     0.222 HD
ENDBRANCH  27  29
BRANCH  27  31
HETATM   31  O   UNK N   1      37.116  11.302  21.469  0.00  0.00    -0.307 OA
HETATM   32  H   UNK N   1      36.702  12.032  21.954  0.00  0.00     0.222 HD
ENDBRANCH  27  31
ENDBRANCH  26  27
ENDBRANCH  22  26
ENDBRANCH  21  22
ENDBRANCH  20  21
ENDBRANCH  19  20
ENDBRANCH   8  19
BRANCH  10  33
HETATM   33  C   UNK N   1      36.742  11.423  13.804  0.00  0.00     0.174 C 
HETATM   34  C   UNK N   1      36.431  10.405  14.886  0.00  0.00     0.044 C 
BRANCH  33  35
HETATM   35  O   UNK N   1      38.025  11.933  14.014  0.00  0.00    -0.391 OA
HETATM   36  H   UNK N   1      38.313  12.365  14.834  0.00  0.00     0.210 HD
ENDBRANCH  33  35
ENDBRANCH  10  33
TORSDOF 11
ENDMDL
