MODEL 1
REMARK VINA RESULT:      -3.5      0.000      0.000
REMARK  6 active torsions:
REMARK  status: ('A' for Active; 'I' for Inactive)
REMARK    1  A    between atoms: N_2  and  C_3 
REMARK    2  A    between atoms: N_2  and  C_5 
REMARK    3  A    between atoms: N_2  and  C_7 
REMARK    4  A    between atoms: C_3  and  O_4 
REMARK    5  A    between atoms: C_5  and  O_6 
REMARK    6  A    between atoms: C_7  and  O_8 
ROOT
HETATM    1  C   UNK N   1      34.813  13.828   9.118  0.00  0.00     0.280 C 
HETATM    2  N   UNK N   1      35.201  14.958   9.954  0.00  0.00    -0.009 N 
ENDROOT
BRANCH   2   3
HETATM    3  C   UNK N   1      36.644  14.891  10.197  0.00  0.00     0.406 C 
BRANCH   3   4
HETATM    4  O   UNK N   1      37.100  16.025  10.880  0.00  0.00    -0.374 OA
HETATM    5  H   UNK N   1      36.714  16.898  11.050  0.00  0.00     0.211 HD
ENDBRANCH   3   4
ENDBRANCH   2   3
BRANCH   2   6
HETATM    6  C   UNK N   1      34.527  14.859  11.251  0.00  0.00     0.406 C 
BRANCH   6   7
HETATM    7  O   UNK N   1      33.135  14.951  11.117  0.00  0.00    -0.374 OA
HETATM    8  H   UNK N   1      32.627  14.945  10.291  0.00  0.00     0.211 HD
ENDBRANCH   6   7
ENDBRANCH   2   6
BRANCH   2   9
HETATM    9  C   UNK N   1      34.831  16.203   9.268  0.00  0.00     0.406 C 
BRANCH   9  10
HETATM   10  O   UNK N   1      34.603  17.239  10.181  0.00  0.00    -0.374 OA
HETATM   11  H   UNK N   1      34.076  18.045  10.069  0.00  0.00     0.211 HD
ENDBRANCH   9  10
ENDBRANCH   2   9
TORSDOF 6
ENDMDL
MODEL 2
REMARK VINA RESULT:      -3.5      0.065      2.525
REMARK  6 active torsions:
REMARK  status: ('A' for Active; 'I' for Inactive)
REMARK    1  A    between atoms: N_2  and  C_3 
REMARK    2  A    between atoms: N_2  and  C_5 
REMARK    3  A    between atoms: N_2  and  C_7 
REMARK    4  A    between atoms: C_3  and  O_4 
REMARK    5  A    between atoms: C_5  and  O_6 
REMARK    6  A    between atoms: C_7  and  O_8 
ROOT
HETATM    1  C   UNK N   1      34.774  13.779   9.207  0.00  0.00     0.280 C 
HETATM    2  N   UNK N   1      35.194  14.924  10.006  0.00  0.00    -0.009 N 
ENDROOT
BRANCH   2   3
HETATM    3  C   UNK N   1      34.481  14.893  11.285  0.00  0.00     0.406 C 
BRANCH   3   4
HETATM    4  O   UNK N   1      33.098  14.998  11.102  0.00  0.00    -0.374 OA
HETATM    5  H   UNK N   1      32.461  14.514  10.553  0.00  0.00     0.211 HD
ENDBRANCH   3   4
ENDBRANCH   2   3
BRANCH   2   6
HETATM    6  C   UNK N   1      34.818  16.162   9.318  0.00  0.00     0.406 C 
BRANCH   6   7
HETATM    7  O   UNK N   1      34.621  17.215  10.222  0.00  0.00    -0.374 OA
HETATM    8  H   UNK N   1      33.810  17.731  10.349  0.00  0.00     0.211 HD
ENDBRANCH   6   7
ENDBRANCH   2   6
BRANCH   2   9
HETATM    9  C   UNK N   1      36.648  14.858  10.202  0.00  0.00     0.406 C 
BRANCH   9  10
HETATM   10  O   UNK N   1      37.126  15.999  10.857  0.00  0.00    -0.374 OA
HETATM   11  H   UNK N   1      36.888  16.928  10.714  0.00  0.00     0.211 HD
ENDBRANCH   9  10
ENDBRANCH   2   9
TORSDOF 6
ENDMDL
MODEL 3
REMARK VINA RESULT:      -3.4      2.517      3.532
REMARK  6 active torsions:
REMARK  status: ('A' for Active; 'I' for Inactive)
REMARK    1  A    between atoms: N_2  and  C_3 
REMARK    2  A    between atoms: N_2  and  C_5 
REMARK    3  A    between atoms: N_2  and  C_7 
REMARK    4  A    between atoms: C_3  and  O_4 
REMARK    5  A    between atoms: C_5  and  O_6 
REMARK    6  A    between atoms: C_7  and  O_8 
ROOT
HETATM    1  C   UNK N   1      32.681  16.559   8.706  0.00  0.00     0.280 C 
HETATM    2  N   UNK N   1      33.999  17.047   8.316  0.00  0.00    -0.009 N 
ENDROOT
BRANCH   2   3
HETATM    3  C   UNK N   1      34.352  16.467   7.018  0.00  0.00     0.406 C 
BRANCH   3   4
HETATM    4  O   UNK N   1      34.424  17.447   6.022  0.00  0.00    -0.374 OA
HETATM    5  H   UNK N   1      33.777  17.807   5.396  0.00  0.00     0.211 HD
ENDBRANCH   3   4
ENDBRANCH   2   3
BRANCH   2   6
HETATM    6  C   UNK N   1      34.994  16.593   9.291  0.00  0.00     0.406 C 
BRANCH   6   7
HETATM    7  O   UNK N   1      34.724  17.090  10.573  0.00  0.00    -0.374 OA
HETATM    8  H   UNK N   1      34.412  17.980  10.800  0.00  0.00     0.211 HD
ENDBRANCH   6   7
ENDBRANCH   2   6
BRANCH   2   9
HETATM    9  C   UNK N   1      33.961  18.514   8.254  0.00  0.00     0.406 C 
BRANCH   9  10
HETATM   10  O   UNK N   1      35.241  19.063   8.402  0.00  0.00    -0.374 OA
HETATM   11  H   UNK N   1      36.080  18.612   8.581  0.00  0.00     0.211 HD
ENDBRANCH   9  10
ENDBRANCH   2   9
TORSDOF 6
ENDMDL
MODEL 4
REMARK VINA RESULT:      -3.4      2.361      3.006
REMARK  6 active torsions:
REMARK  status: ('A' for Active; 'I' for Inactive)
REMARK    1  A    between atoms: N_2  and  C_3 
REMARK    2  A    between atoms: N_2  and  C_5 
REMARK    3  A    between atoms: N_2  and  C_7 
REMARK    4  A    between atoms: C_3  and  O_4 
REMARK    5  A    between atoms: C_5  and  O_6 
REMARK    6  A    between atoms: C_7  and  O_8 
ROOT
HETATM    1  C   UNK N   1      34.458  16.356   6.967  0.00  0.00     0.280 C 
HETATM    2  N   UNK N   1      34.045  16.981   8.218  0.00  0.00    -0.009 N 
ENDROOT
BRANCH   2   3
HETATM    3  C   UNK N   1      34.981  16.586   9.273  0.00  0.00     0.406 C 
BRANCH   3   4
HETATM    4  O   UNK N   1      34.589  17.087  10.519  0.00  0.00    -0.374 OA
HETATM    5  H   UNK N   1      34.670  16.752  11.426  0.00  0.00     0.211 HD
ENDBRANCH   3   4
ENDBRANCH   2   3
BRANCH   2   6
HETATM    6  C   UNK N   1      32.718  16.488   8.595  0.00  0.00     0.406 C 
BRANCH   6   7
HETATM    7  O   UNK N   1      31.919  17.510   9.124  0.00  0.00    -0.374 OA
HETATM    8  H   UNK N   1      31.742  17.686  10.061  0.00  0.00     0.211 HD
ENDBRANCH   6   7
ENDBRANCH   2   6
BRANCH   2   9
HETATM    9  C   UNK N   1      34.028  18.438   8.036  0.00  0.00     0.406 C 
BRANCH   9  10
HETATM   10  O   UNK N   1      35.227  19.019   8.467  0.00  0.00    -0.374 OA
HETATM   11  H   UNK N   1      36.018  18.589   8.826  0.00  0.00     0.211 HD
ENDBRANCH   9  10
ENDBRANCH   2   9
TORSDOF 6
ENDMDL
MODEL 5
REMARK VINA RESULT:      -3.4      1.521      2.939
REMARK  6 active torsions:
REMARK  status: ('A' for Active; 'I' for Inactive)
REMARK    1  A    between atoms: N_2  and  C_3 
REMARK    2  A    between atoms: N_2  and  C_5 
REMARK    3  A    between atoms: N_2  and  C_7 
REMARK    4  A    between atoms: C_3  and  O_4 
REMARK    5  A    between atoms: C_5  and  O_6 
REMARK    6  A    between atoms: C_7  and  O_8 
ROOT
HETATM    1  C   UNK N   1      35.004  15.113   8.011  0.00  0.00     0.280 C 
HETATM    2  N   UNK N   1      34.360  15.772   9.141  0.00  0.00    -0.009 N 
ENDROOT
BRANCH   2   3
HETATM    3  C   UNK N   1      33.838  17.066   8.697  0.00  0.00     0.406 C 
BRANCH   3   4
HETATM    4  O   UNK N   1      32.539  17.283   9.171  0.00  0.00    -0.374 OA
HETATM    5  H   UNK N   1      31.710  16.785   9.090  0.00  0.00     0.211 HD
ENDBRANCH   3   4
ENDBRANCH   2   3
BRANCH   2   6
HETATM    6  C   UNK N   1      35.353  16.028  10.187  0.00  0.00     0.406 C 
BRANCH   6   7
HETATM    7  O   UNK N   1      35.061  17.198  10.900  0.00  0.00    -0.374 OA
HETATM    8  H   UNK N   1      34.212  17.664  10.934  0.00  0.00     0.211 HD
ENDBRANCH   6   7
ENDBRANCH   2   6
BRANCH   2   9
HETATM    9  C   UNK N   1      33.286  14.906   9.644  0.00  0.00     0.406 C 
BRANCH   9  10
HETATM   10  O   UNK N   1      33.150  15.016  11.033  0.00  0.00    -0.374 OA
HETATM   11  H   UNK N   1      33.802  15.314  11.687  0.00  0.00     0.211 HD
ENDBRANCH   9  10
ENDBRANCH   2   9
TORSDOF 6
ENDMDL
MODEL 6
REMARK VINA RESULT:      -3.3      1.650      2.621
REMARK  6 active torsions:
REMARK  status: ('A' for Active; 'I' for Inactive)
REMARK    1  A    between atoms: N_2  and  C_3 
REMARK    2  A    between atoms: N_2  and  C_5 
REMARK    3  A    between atoms: N_2  and  C_7 
REMARK    4  A    between atoms: C_3  and  O_4 
REMARK    5  A    between atoms: C_5  and  O_6 
REMARK    6  A    between atoms: C_7  and  O_8 
ROOT
HETATM    1  C   UNK N   1      34.508  15.079   7.831  0.00  0.00     0.280 C 
HETATM    2  N   UNK N   1      33.923  15.733   8.996  0.00  0.00    -0.009 N 
ENDROOT
BRANCH   2   3
HETATM    3  C   UNK N   1      33.976  14.810  10.132  0.00  0.00     0.406 C 
BRANCH   3   4
HETATM    4  O   UNK N   1      32.930  15.045  11.031  0.00  0.00    -0.374 OA
HETATM    5  H   UNK N   1      32.134  14.545  11.270  0.00  0.00     0.211 HD
ENDBRANCH   3   4
ENDBRANCH   2   3
BRANCH   2   6
HETATM    6  C   UNK N   1      32.514  16.032   8.730  0.00  0.00     0.406 C 
BRANCH   6   7
HETATM    7  O   UNK N   1      32.166  17.314   9.174  0.00  0.00    -0.374 OA
HETATM    8  H   UNK N   1      31.441  17.547   9.775  0.00  0.00     0.211 HD
ENDBRANCH   6   7
ENDBRANCH   2   6
BRANCH   2   9
HETATM    9  C   UNK N   1      34.674  16.965   9.273  0.00  0.00     0.406 C 
BRANCH   9  10
HETATM   10  O   UNK N   1      34.867  17.145  10.648  0.00  0.00    -0.374 OA
HETATM   11  H   UNK N   1      34.567  17.872  11.215  0.00  0.00     0.211 HD
ENDBRANCH   9  10
ENDBRANCH   2   9
TORSDOF 6
ENDMDL
MODEL 7
REMARK VINA RESULT:      -3.3      1.411      2.989
REMARK  6 active torsions:
REMARK  status: ('A' for Active; 'I' for Inactive)
REMARK    1  A    between atoms: N_2  and  C_3 
REMARK    2  A    between atoms: N_2  and  C_5 
REMARK    3  A    between atoms: N_2  and  C_7 
REMARK    4  A    between atoms: C_3  and  O_4 
REMARK    5  A    between atoms: C_5  and  O_6 
REMARK    6  A    between atoms: C_7  and  O_8 
ROOT
HETATM    1  C   UNK N   1      36.107  14.771   9.506  0.00  0.00     0.280 C 
HETATM    2  N   UNK N   1      35.134  14.764  10.592  0.00  0.00    -0.009 N 
ENDROOT
BRANCH   2   3
HETATM    3  C   UNK N   1      33.787  14.807  10.018  0.00  0.00     0.406 C 
BRANCH   3   4
HETATM    4  O   UNK N   1      32.824  15.091  10.994  0.00  0.00    -0.374 OA
HETATM    5  H   UNK N   1      32.705  15.826  11.616  0.00  0.00     0.211 HD
ENDBRANCH   3   4
ENDBRANCH   2   3
BRANCH   2   6
HETATM    6  C   UNK N   1      35.308  15.967  11.410  0.00  0.00     0.406 C 
BRANCH   6   7
HETATM    7  O   UNK N   1      34.921  17.122  10.716  0.00  0.00    -0.374 OA
HETATM    8  H   UNK N   1      35.326  18.001  10.776  0.00  0.00     0.211 HD
ENDBRANCH   6   7
ENDBRANCH   2   6
BRANCH   2   9
HETATM    9  C   UNK N   1      35.333  13.553  11.399  0.00  0.00     0.406 C 
BRANCH   9  10
HETATM   10  O   UNK N   1      34.458  13.518  12.491  0.00  0.00    -0.374 OA
HETATM   11  H   UNK N   1      34.591  13.123  13.366  0.00  0.00     0.211 HD
ENDBRANCH   9  10
ENDBRANCH   2   9
TORSDOF 6
ENDMDL
MODEL 8
REMARK VINA RESULT:      -3.3      2.265      3.299
REMARK  6 active torsions:
REMARK  status: ('A' for Active; 'I' for Inactive)
REMARK    1  A    between atoms: N_2  and  C_3 
REMARK    2  A    between atoms: N_2  and  C_5 
REMARK    3  A    between atoms: N_2  and  C_7 
REMARK    4  A    between atoms: C_3  and  O_4 
REMARK    5  A    between atoms: C_5  and  O_6 
REMARK    6  A    between atoms: C_7  and  O_8 
ROOT
HETATM    1  C   UNK N   1      35.018  13.125  10.755  0.00  0.00     0.280 C 
HETATM    2  N   UNK N   1      36.170  13.850  11.278  0.00  0.00    -0.009 N 
ENDROOT
BRANCH   2   3
HETATM    3  C   UNK N   1      36.608  14.825  10.277  0.00  0.00     0.406 C 
BRANCH   3   4
HETATM    4  O   UNK N   1      37.050  16.010  10.875  0.00  0.00    -0.374 OA
HETATM    5  H   UNK N   1      37.310  16.876  10.523  0.00  0.00     0.211 HD
ENDBRANCH   3   4
ENDBRANCH   2   3
BRANCH   2   6
HETATM    6  C   UNK N   1      37.275  12.914  11.500  0.00  0.00     0.406 C 
BRANCH   6   7
HETATM    7  O   UNK N   1      38.497  13.447  11.067  0.00  0.00    -0.374 OA
HETATM    8  H   UNK N   1      39.151  13.015  10.496  0.00  0.00     0.211 HD
ENDBRANCH   6   7
ENDBRANCH   2   6
BRANCH   2   9
HETATM    9  C   UNK N   1      35.785  14.509  12.533  0.00  0.00     0.406 C 
BRANCH   9  10
HETATM   10  O   UNK N   1      36.846  14.527  13.446  0.00  0.00    -0.374 OA
HETATM   11  H   UNK N   1      37.656  13.992  13.450  0.00  0.00     0.211 HD
ENDBRANCH   9  10
ENDBRANCH   2   9
TORSDOF 6
ENDMDL
MODEL 9
REMARK VINA RESULT:      -3.3      2.211      3.419
REMARK  6 active torsions:
REMARK  status: ('A' for Active; 'I' for Inactive)
REMARK    1  A    between atoms: N_2  and  C_3 
REMARK    2  A    between atoms: N_2  and  C_5 
REMARK    3  A    between atoms: N_2  and  C_7 
REMARK    4  A    between atoms: C_3  and  O_4 
REMARK    5  A    between atoms: C_5  and  O_6 
REMARK    6  A    between atoms: C_7  and  O_8 
ROOT
HETATM    1  C   UNK N   1      34.900  13.253  10.705  0.00  0.00     0.280 C 
HETATM    2  N   UNK N   1      36.100  13.911  11.210  0.00  0.00    -0.009 N 
ENDROOT
BRANCH   2   3
HETATM    3  C   UNK N   1      35.765  14.615  12.450  0.00  0.00     0.406 C 
BRANCH   3   4
HETATM    4  O   UNK N   1      36.807  14.537  13.380  0.00  0.00    -0.374 OA
HETATM    5  H   UNK N   1      36.880  14.775  14.318  0.00  0.00     0.211 HD
ENDBRANCH   3   4
ENDBRANCH   2   3
BRANCH   2   6
HETATM    6  C   UNK N   1      36.552  14.910  10.239  0.00  0.00     0.406 C 
BRANCH   6   7
HETATM    7  O   UNK N   1      37.026  16.067  10.872  0.00  0.00    -0.374 OA
HETATM    8  H   UNK N   1      37.918  16.441  10.811  0.00  0.00     0.211 HD
ENDBRANCH   6   7
ENDBRANCH   2   6
BRANCH   2   9
HETATM    9  C   UNK N   1      37.137  12.895  11.435  0.00  0.00     0.406 C 
BRANCH   9  10
HETATM   10  O   UNK N   1      38.407  13.383  11.104  0.00  0.00    -0.374 OA
HETATM   11  H   UNK N   1      38.945  13.198  10.318  0.00  0.00     0.211 HD
ENDBRANCH   9  10
ENDBRANCH   2   9
TORSDOF 6
ENDMDL
