MODEL 1
REMARK VINA RESULT:      -8.1      0.000      0.000
REMARK  12 active torsions:
REMARK  status: ('A' for Active; 'I' for Inactive)
REMARK    1  A    between atoms: C_1  and  C_5 
REMARK    2  A    between atoms: C_11  and  C_13 
REMARK    3  A    between atoms: C_12  and  O_14 
REMARK    4  A    between atoms: C_15  and  C_17 
REMARK    5  A    between atoms: C_18  and  C_19 
REMARK    6  A    between atoms: C_20  and  C_22 
REMARK    7  A    between atoms: C_23  and  C_24 
REMARK    8  A    between atoms: C_25  and  C_26 
REMARK    9  A    between atoms: C_28  and  C_29 
REMARK   10  A    between atoms: C_30  and  C_31 
REMARK   11  A    between atoms: C_34  and  C_33 
REMARK   12  A    between atoms: C_43  and  O_44 
ROOT
HETATM    1  C   UNK N   1      24.426  14.559   0.786  0.00  0.00     0.001 C 
HETATM    2  C   UNK N   1      25.206  15.006   1.775  0.00  0.00     0.001 C 
ENDROOT
BRANCH   1   3
HETATM    3  C   UNK N   1      23.067  14.013   1.008  0.00  0.00     0.007 C 
HETATM    4  C   UNK N   1      22.713  12.725   0.858  0.00  0.00    -0.062 C 
HETATM    5  C   UNK N   1      23.719  11.663   0.514  0.00  0.00     0.048 C 
BRANCH   4   6
HETATM    6  C   UNK N   1      21.277  12.388   0.969  0.00  0.00     0.007 C 
HETATM    7  C   UNK N   1      20.676  11.961   2.092  0.00  0.00     0.001 C 
BRANCH   7   8
HETATM    8  C   UNK N   1      21.403  11.633   3.341  0.00  0.00     0.007 C 
HETATM    9  C   UNK N   1      21.694  12.508   4.320  0.00  0.00    -0.062 C 
HETATM   10  C   UNK N   1      22.468  12.007   5.492  0.00  0.00     0.048 C 
BRANCH   9  11
HETATM   11  C   UNK N   1      21.364  13.951   4.270  0.00  0.00     0.006 C 
HETATM   12  C   UNK N   1      22.295  14.889   4.122  0.00  0.00     0.015 C 
BRANCH  12  13
HETATM   13  C   UNK N   1      22.027  16.363   4.155  0.00  0.00     0.118 A 
HETATM   14  C   UNK N   1      23.204  17.242   4.434  0.00  0.00     0.097 A 
HETATM   15  C   UNK N   1      23.111  18.756   4.268  0.00  0.00     0.073 C 
HETATM   16  C   UNK N   1      24.561  16.665   4.809  0.00  0.00     0.050 C 
HETATM   17  O   UNK N   1      22.281  16.860   5.438  0.00  0.00    -0.358 OA
HETATM   18  C   UNK N   1      21.994  19.158   3.313  0.00  0.00     0.122 C 
HETATM   19  C   UNK N   1      20.684  18.497   3.732  0.00  0.00     0.044 C 
HETATM   20  C   UNK N   1      20.744  16.981   3.538  0.00  0.00    -0.007 C 
HETATM   21  C   UNK N   1      20.694  16.671   2.048  0.00  0.00     0.018 C 
HETATM   22  C   UNK N   1      19.507  16.385   4.192  0.00  0.00     0.018 C 
BRANCH  18  23
HETATM   23  O   UNK N   1      21.846  20.543   3.337  0.00  0.00    -0.395 OA
HETATM   24  H   UNK N   1      21.848  21.069   4.151  0.00  0.00     0.210 HD
ENDBRANCH  18  23
ENDBRANCH  12  13
ENDBRANCH   9  11
ENDBRANCH   7   8
ENDBRANCH   4   6
ENDBRANCH   1   3
BRANCH   2  25
HETATM   25  C   UNK N   1      26.668  15.186   1.648  0.00  0.00     0.007 C 
HETATM   26  C   UNK N   1      27.589  14.555   2.396  0.00  0.00    -0.062 C 
HETATM   27  C   UNK N   1      27.193  13.587   3.476  0.00  0.00     0.048 C 
BRANCH  26  28
HETATM   28  C   UNK N   1      28.998  14.980   2.248  0.00  0.00     0.007 C 
HETATM   29  C   UNK N   1      29.560  16.054   2.825  0.00  0.00     0.001 C 
BRANCH  29  30
HETATM   30  C   UNK N   1      28.915  16.874   3.873  0.00  0.00     0.007 C 
HETATM   31  C   UNK N   1      28.889  16.508   5.166  0.00  0.00    -0.062 C 
HETATM   32  C   UNK N   1      28.079  17.317   6.120  0.00  0.00     0.048 C 
BRANCH  31  33
HETATM   33  C   UNK N   1      29.527  15.263   5.656  0.00  0.00     0.006 C 
HETATM   34  C   UNK N   1      30.760  15.184   6.194  0.00  0.00     0.015 C 
BRANCH  34  35
HETATM   35  C   UNK N   1      31.644  16.360   6.564  0.00  0.00     0.118 A 
HETATM   36  C   UNK N   1      32.819  16.621   5.660  0.00  0.00     0.097 A 
HETATM   37  C   UNK N   1      33.932  17.588   6.052  0.00  0.00     0.073 C 
HETATM   38  C   UNK N   1      32.931  15.974   4.292  0.00  0.00     0.050 C 
HETATM   39  O   UNK N   1      31.630  17.404   5.639  0.00  0.00    -0.358 OA
HETATM   40  C   UNK N   1      34.056  17.754   7.562  0.00  0.00     0.122 C 
HETATM   41  C   UNK N   1      32.694  18.022   8.195  0.00  0.00     0.044 C 
HETATM   42  C   UNK N   1      31.760  16.817   8.035  0.00  0.00    -0.007 C 
HETATM   43  C   UNK N   1      32.280  15.664   8.881  0.00  0.00     0.018 C 
HETATM   44  C   UNK N   1      30.399  17.214   8.573  0.00  0.00     0.018 C 
BRANCH  40  45
HETATM   45  O   UNK N   1      34.913  18.819   7.837  0.00  0.00    -0.395 OA
HETATM   46  H   UNK N   1      34.932  19.348   8.650  0.00  0.00     0.210 HD
ENDBRANCH  40  45
ENDBRANCH  34  35
ENDBRANCH  31  33
ENDBRANCH  29  30
ENDBRANCH  26  28
ENDBRANCH   2  25
TORSDOF 12
ENDMDL
MODEL 2
REMARK VINA RESULT:      -7.9      1.892      3.530
REMARK  12 active torsions:
REMARK  status: ('A' for Active; 'I' for Inactive)
REMARK    1  A    between atoms: C_1  and  C_5 
REMARK    2  A    between atoms: C_11  and  C_13 
REMARK    3  A    between atoms: C_12  and  O_14 
REMARK    4  A    between atoms: C_15  and  C_17 
REMARK    5  A    between atoms: C_18  and  C_19 
REMARK    6  A    between atoms: C_20  and  C_22 
REMARK    7  A    between atoms: C_23  and  C_24 
REMARK    8  A    between atoms: C_25  and  C_26 
REMARK    9  A    between atoms: C_28  and  C_29 
REMARK   10  A    between atoms: C_30  and  C_31 
REMARK   11  A    between atoms: C_34  and  C_33 
REMARK   12  A    between atoms: C_43  and  O_44 
ROOT
HETATM    1  C   UNK N   1      25.863  15.453   5.878  0.00  0.00     0.001 C 
HETATM    2  C   UNK N   1      26.296  14.840   4.772  0.00  0.00     0.001 C 
ENDROOT
BRANCH   1   3
HETATM    3  C   UNK N   1      24.508  15.250   6.441  0.00  0.00     0.007 C 
HETATM    4  C   UNK N   1      24.144  14.236   7.244  0.00  0.00    -0.062 C 
HETATM    5  C   UNK N   1      25.136  13.217   7.729  0.00  0.00     0.048 C 
BRANCH   4   6
HETATM    6  C   UNK N   1      22.710  14.105   7.583  0.00  0.00     0.007 C 
HETATM    7  C   UNK N   1      21.797  13.481   6.821  0.00  0.00     0.001 C 
BRANCH   7   8
HETATM    8  C   UNK N   1      22.078  12.958   5.463  0.00  0.00     0.007 C 
HETATM    9  C   UNK N   1      22.004  13.675   4.327  0.00  0.00    -0.062 C 
HETATM   10  C   UNK N   1      22.286  12.972   3.043  0.00  0.00     0.048 C 
BRANCH   9  11
HETATM   11  C   UNK N   1      21.582  15.094   4.265  0.00  0.00     0.006 C 
HETATM   12  C   UNK N   1      22.274  16.014   3.598  0.00  0.00     0.015 C 
BRANCH  12  13
HETATM   13  C   UNK N   1      21.942  17.474   3.577  0.00  0.00     0.118 A 
HETATM   14  C   UNK N   1      23.102  18.416   3.645  0.00  0.00     0.097 A 
HETATM   15  C   UNK N   1      22.916  19.911   3.401  0.00  0.00     0.073 C 
HETATM   16  C   UNK N   1      24.522  17.919   3.873  0.00  0.00     0.050 C 
HETATM   17  O   UNK N   1      22.335  18.064   4.783  0.00  0.00    -0.358 OA
HETATM   18  C   UNK N   1      21.667  20.204   2.580  0.00  0.00     0.122 C 
HETATM   19  C   UNK N   1      20.455  19.521   3.206  0.00  0.00     0.044 C 
HETATM   20  C   UNK N   1      20.562  17.999   3.098  0.00  0.00    -0.007 C 
HETATM   21  C   UNK N   1      20.336  17.589   1.649  0.00  0.00     0.018 C 
HETATM   22  C   UNK N   1      19.450  17.399   3.944  0.00  0.00     0.018 C 
BRANCH  18  23
HETATM   23  O   UNK N   1      21.457  21.581   2.539  0.00  0.00    -0.395 OA
HETATM   24  H   UNK N   1      22.031  22.196   2.057  0.00  0.00     0.210 HD
ENDBRANCH  18  23
ENDBRANCH  12  13
ENDBRANCH   9  11
ENDBRANCH   7   8
ENDBRANCH   4   6
ENDBRANCH   1   3
BRANCH   2  25
HETATM   25  C   UNK N   1      27.459  15.298   3.983  0.00  0.00     0.007 C 
HETATM   26  C   UNK N   1      28.081  14.574   3.037  0.00  0.00    -0.062 C 
HETATM   27  C   UNK N   1      27.639  13.177   2.702  0.00  0.00     0.048 C 
BRANCH  26  28
HETATM   28  C   UNK N   1      29.330  15.124   2.466  0.00  0.00     0.007 C 
HETATM   29  C   UNK N   1      30.544  15.075   3.035  0.00  0.00     0.001 C 
BRANCH  29  30
HETATM   30  C   UNK N   1      30.873  14.276   4.236  0.00  0.00     0.007 C 
HETATM   31  C   UNK N   1      31.670  14.736   5.216  0.00  0.00    -0.062 C 
HETATM   32  C   UNK N   1      32.073  13.802   6.304  0.00  0.00     0.048 C 
BRANCH  31  33
HETATM   33  C   UNK N   1      32.267  16.093   5.190  0.00  0.00     0.006 C 
HETATM   34  C   UNK N   1      31.753  17.178   5.801  0.00  0.00     0.015 C 
BRANCH  34  35
HETATM   35  C   UNK N   1      30.586  17.181   6.769  0.00  0.00     0.118 A 
HETATM   36  C   UNK N   1      29.298  17.770   6.260  0.00  0.00     0.097 A 
HETATM   37  C   UNK N   1      28.134  18.082   7.195  0.00  0.00     0.073 C 
HETATM   38  C   UNK N   1      29.073  18.038   4.783  0.00  0.00     0.050 C 
HETATM   39  O   UNK N   1      29.518  16.369   6.386  0.00  0.00    -0.358 OA
HETATM   40  C   UNK N   1      28.586  18.318   8.632  0.00  0.00     0.122 C 
HETATM   41  C   UNK N   1      29.529  17.212   9.094  0.00  0.00     0.044 C 
HETATM   42  C   UNK N   1      30.835  17.223   8.293  0.00  0.00    -0.007 C 
HETATM   43  C   UNK N   1      31.625  18.477   8.639  0.00  0.00     0.018 C 
HETATM   44  C   UNK N   1      31.653  16.021   8.727  0.00  0.00     0.018 C 
BRANCH  40  45
HETATM   45  O   UNK N   1      27.468  18.354   9.464  0.00  0.00    -0.395 OA
HETATM   46  H   UNK N   1      27.223  17.691  10.128  0.00  0.00     0.210 HD
ENDBRANCH  40  45
ENDBRANCH  34  35
ENDBRANCH  31  33
ENDBRANCH  29  30
ENDBRANCH  26  28
ENDBRANCH   2  25
TORSDOF 12
ENDMDL
MODEL 3
REMARK VINA RESULT:      -7.9      1.707      2.354
REMARK  12 active torsions:
REMARK  status: ('A' for Active; 'I' for Inactive)
REMARK    1  A    between atoms: C_1  and  C_5 
REMARK    2  A    between atoms: C_11  and  C_13 
REMARK    3  A    between atoms: C_12  and  O_14 
REMARK    4  A    between atoms: C_15  and  C_17 
REMARK    5  A    between atoms: C_18  and  C_19 
REMARK    6  A    between atoms: C_20  and  C_22 
REMARK    7  A    between atoms: C_23  and  C_24 
REMARK    8  A    between atoms: C_25  and  C_26 
REMARK    9  A    between atoms: C_28  and  C_29 
REMARK   10  A    between atoms: C_30  and  C_31 
REMARK   11  A    between atoms: C_34  and  C_33 
REMARK   12  A    between atoms: C_43  and  O_44 
ROOT
HETATM    1  C   UNK N   1      24.348  14.563   1.023  0.00  0.00     0.001 C 
HETATM    2  C   UNK N   1      25.132  15.053   1.988  0.00  0.00     0.001 C 
ENDROOT
BRANCH   1   3
HETATM    3  C   UNK N   1      23.024  13.952   1.283  0.00  0.00     0.007 C 
HETATM    4  C   UNK N   1      22.543  12.853   0.678  0.00  0.00    -0.062 C 
HETATM    5  C   UNK N   1      23.367  12.065  -0.301  0.00  0.00     0.048 C 
BRANCH   4   6
HETATM    6  C   UNK N   1      21.139  12.476   0.948  0.00  0.00     0.007 C 
HETATM    7  C   UNK N   1      20.746  11.631   1.915  0.00  0.00     0.001 C 
BRANCH   7   8
HETATM    8  C   UNK N   1      21.683  10.847   2.754  0.00  0.00     0.007 C 
HETATM    9  C   UNK N   1      21.840  10.992   4.082  0.00  0.00    -0.062 C 
HETATM   10  C   UNK N   1      22.860  10.140   4.758  0.00  0.00     0.048 C 
BRANCH   9  11
HETATM   11  C   UNK N   1      21.122  11.998   4.899  0.00  0.00     0.006 C 
HETATM   12  C   UNK N   1      21.706  13.112   5.331  0.00  0.00     0.015 C 
BRANCH  12  13
HETATM   13  C   UNK N   1      21.055  14.116   6.232  0.00  0.00     0.118 A 
HETATM   14  C   UNK N   1      21.461  14.073   7.671  0.00  0.00     0.097 A 
HETATM   15  C   UNK N   1      21.049  15.180   8.638  0.00  0.00     0.073 C 
HETATM   16  C   UNK N   1      22.368  12.978   8.213  0.00  0.00     0.050 C 
HETATM   17  O   UNK N   1      20.280  13.456   7.192  0.00  0.00    -0.358 OA
HETATM   18  C   UNK N   1      20.731  16.481   7.912  0.00  0.00     0.122 C 
HETATM   19  C   UNK N   1      19.725  16.227   6.794  0.00  0.00     0.044 C 
HETATM   20  C   UNK N   1      20.341  15.378   5.680  0.00  0.00    -0.007 C 
HETATM   21  C   UNK N   1      21.338  16.230   4.905  0.00  0.00     0.018 C 
HETATM   22  C   UNK N   1      19.219  14.977   4.735  0.00  0.00     0.018 C 
BRANCH  18  23
HETATM   23  O   UNK N   1      20.198  17.395   8.820  0.00  0.00    -0.395 OA
HETATM   24  H   UNK N   1      20.722  17.838   9.505  0.00  0.00     0.210 HD
ENDBRANCH  18  23
ENDBRANCH  12  13
ENDBRANCH   9  11
ENDBRANCH   7   8
ENDBRANCH   4   6
ENDBRANCH   1   3
BRANCH   2  25
HETATM   25  C   UNK N   1      26.579  15.304   1.821  0.00  0.00     0.007 C 
HETATM   26  C   UNK N   1      27.557  14.613   2.432  0.00  0.00    -0.062 C 
HETATM   27  C   UNK N   1      27.246  13.494   3.386  0.00  0.00     0.048 C 
BRANCH  26  28
HETATM   28  C   UNK N   1      28.942  15.109   2.280  0.00  0.00     0.007 C 
HETATM   29  C   UNK N   1      29.470  16.173   2.904  0.00  0.00     0.001 C 
BRANCH  29  30
HETATM   30  C   UNK N   1      28.813  16.906   4.008  0.00  0.00     0.007 C 
HETATM   31  C   UNK N   1      28.822  16.463   5.277  0.00  0.00    -0.062 C 
HETATM   32  C   UNK N   1      27.999  17.184   6.289  0.00  0.00     0.048 C 
BRANCH  31  33
HETATM   33  C   UNK N   1      29.512  15.215   5.683  0.00  0.00     0.006 C 
HETATM   34  C   UNK N   1      30.769  15.146   6.165  0.00  0.00     0.015 C 
BRANCH  34  35
HETATM   35  C   UNK N   1      31.637  16.328   6.550  0.00  0.00     0.118 A 
HETATM   36  C   UNK N   1      32.778  16.648   5.621  0.00  0.00     0.097 A 
HETATM   37  C   UNK N   1      33.881  17.626   6.014  0.00  0.00     0.073 C 
HETATM   38  C   UNK N   1      32.861  16.054   4.227  0.00  0.00     0.050 C 
HETATM   39  O   UNK N   1      31.572  17.404   5.665  0.00  0.00    -0.358 OA
HETATM   40  C   UNK N   1      34.048  17.741   7.525  0.00  0.00     0.122 C 
HETATM   41  C   UNK N   1      32.701  17.954   8.208  0.00  0.00     0.044 C 
HETATM   42  C   UNK N   1      31.790  16.735   8.032  0.00  0.00    -0.007 C 
HETATM   43  C   UNK N   1      32.361  15.564   8.819  0.00  0.00     0.018 C 
HETATM   44  C   UNK N   1      30.437  17.080   8.626  0.00  0.00     0.018 C 
BRANCH  40  45
HETATM   45  O   UNK N   1      34.890  18.814   7.812  0.00  0.00    -0.395 OA
HETATM   46  H   UNK N   1      34.928  19.309   8.646  0.00  0.00     0.210 HD
ENDBRANCH  40  45
ENDBRANCH  34  35
ENDBRANCH  31  33
ENDBRANCH  29  30
ENDBRANCH  26  28
ENDBRANCH   2  25
TORSDOF 12
ENDMDL
MODEL 4
REMARK VINA RESULT:      -7.8      2.682      4.813
REMARK  12 active torsions:
REMARK  status: ('A' for Active; 'I' for Inactive)
REMARK    1  A    between atoms: C_1  and  C_5 
REMARK    2  A    between atoms: C_11  and  C_13 
REMARK    3  A    between atoms: C_12  and  O_14 
REMARK    4  A    between atoms: C_15  and  C_17 
REMARK    5  A    between atoms: C_18  and  C_19 
REMARK    6  A    between atoms: C_20  and  C_22 
REMARK    7  A    between atoms: C_23  and  C_24 
REMARK    8  A    between atoms: C_25  and  C_26 
REMARK    9  A    between atoms: C_28  and  C_29 
REMARK   10  A    between atoms: C_30  and  C_31 
REMARK   11  A    between atoms: C_34  and  C_33 
REMARK   12  A    between atoms: C_43  and  O_44 
ROOT
HETATM    1  C   UNK N   1      25.566  14.215   6.687  0.00  0.00     0.001 C 
HETATM    2  C   UNK N   1      26.370  13.889   5.670  0.00  0.00     0.001 C 
ENDROOT
BRANCH   1   3
HETATM    3  C   UNK N   1      24.657  13.248   7.344  0.00  0.00     0.007 C 
HETATM    4  C   UNK N   1      24.618  12.990   8.663  0.00  0.00    -0.062 C 
HETATM    5  C   UNK N   1      25.471  13.747   9.641  0.00  0.00     0.048 C 
BRANCH   4   6
HETATM    6  C   UNK N   1      23.756  11.880   9.123  0.00  0.00     0.007 C 
HETATM    7  C   UNK N   1      22.484  12.018   9.534  0.00  0.00     0.001 C 
BRANCH   7   8
HETATM    8  C   UNK N   1      21.816  13.328   9.716  0.00  0.00     0.007 C 
HETATM    9  C   UNK N   1      21.106  13.973   8.774  0.00  0.00    -0.062 C 
HETATM   10  C   UNK N   1      20.534  15.305   9.125  0.00  0.00     0.048 C 
BRANCH   9  11
HETATM   11  C   UNK N   1      20.925  13.482   7.387  0.00  0.00     0.006 C 
HETATM   12  C   UNK N   1      21.169  14.244   6.325  0.00  0.00     0.015 C 
BRANCH  12  13
HETATM   13  C   UNK N   1      20.918  13.828   4.908  0.00  0.00     0.118 A 
HETATM   14  C   UNK N   1      19.715  14.424   4.248  0.00  0.00     0.097 A 
HETATM   15  C   UNK N   1      19.481  14.263   2.749  0.00  0.00     0.073 C 
HETATM   16  C   UNK N   1      18.725  15.284   5.019  0.00  0.00     0.050 C 
HETATM   17  O   UNK N   1      19.707  13.132   4.829  0.00  0.00    -0.358 OA
HETATM   18  C   UNK N   1      20.774  13.978   1.996  0.00  0.00     0.122 C 
HETATM   19  C   UNK N   1      21.508  12.805   2.639  0.00  0.00     0.044 C 
HETATM   20  C   UNK N   1      22.020  13.173   4.034  0.00  0.00    -0.007 C 
HETATM   21  C   UNK N   1      23.195  14.131   3.892  0.00  0.00     0.018 C 
HETATM   22  C   UNK N   1      22.522  11.896   4.690  0.00  0.00     0.018 C 
BRANCH  18  23
HETATM   23  O   UNK N   1      20.476  13.670   0.670  0.00  0.00    -0.395 OA
HETATM   24  H   UNK N   1      19.898  14.212   0.111  0.00  0.00     0.210 HD
ENDBRANCH  18  23
ENDBRANCH  12  13
ENDBRANCH   9  11
ENDBRANCH   7   8
ENDBRANCH   4   6
ENDBRANCH   1   3
BRANCH   2  25
HETATM   25  C   UNK N   1      26.982  14.880   4.759  0.00  0.00     0.007 C 
HETATM   26  C   UNK N   1      27.145  14.712   3.435  0.00  0.00    -0.062 C 
HETATM   27  C   UNK N   1      26.717  13.446   2.748  0.00  0.00     0.048 C 
BRANCH  26  28
HETATM   28  C   UNK N   1      27.927  15.734   2.708  0.00  0.00     0.007 C 
HETATM   29  C   UNK N   1      29.265  15.840   2.696  0.00  0.00     0.001 C 
BRANCH  29  30
HETATM   30  C   UNK N   1      30.189  14.824   3.242  0.00  0.00     0.007 C 
HETATM   31  C   UNK N   1      31.399  15.137   3.739  0.00  0.00    -0.062 C 
HETATM   32  C   UNK N   1      32.322  14.030   4.116  0.00  0.00     0.048 C 
BRANCH  31  33
HETATM   33  C   UNK N   1      31.899  16.531   3.805  0.00  0.00     0.006 C 
HETATM   34  C   UNK N   1      31.740  17.362   4.854  0.00  0.00     0.015 C 
BRANCH  34  35
HETATM   35  C   UNK N   1      31.192  16.978   6.215  0.00  0.00     0.118 A 
HETATM   36  C   UNK N   1      29.811  17.482   6.544  0.00  0.00     0.097 A 
HETATM   37  C   UNK N   1      29.246  17.404   7.959  0.00  0.00     0.073 C 
HETATM   38  C   UNK N   1      28.893  18.046   5.475  0.00  0.00     0.050 C 
HETATM   39  O   UNK N   1      30.081  16.134   6.171  0.00  0.00    -0.358 OA
HETATM   40  C   UNK N   1      30.337  17.364   9.022  0.00  0.00     0.122 C 
HETATM   41  C   UNK N   1      31.399  16.325   8.676  0.00  0.00     0.044 C 
HETATM   42  C   UNK N   1      32.150  16.704   7.395  0.00  0.00    -0.007 C 
HETATM   43  C   UNK N   1      32.994  17.943   7.655  0.00  0.00     0.018 C 
HETATM   44  C   UNK N   1      33.089  15.562   7.056  0.00  0.00     0.018 C 
BRANCH  40  45
HETATM   45  O   UNK N   1      29.765  17.051  10.254  0.00  0.00    -0.395 OA
HETATM   46  H   UNK N   1      30.218  16.656  11.016  0.00  0.00     0.210 HD
ENDBRANCH  40  45
ENDBRANCH  34  35
ENDBRANCH  31  33
ENDBRANCH  29  30
ENDBRANCH  26  28
ENDBRANCH   2  25
TORSDOF 12
ENDMDL
MODEL 5
REMARK VINA RESULT:      -7.8      2.625      4.609
REMARK  12 active torsions:
REMARK  status: ('A' for Active; 'I' for Inactive)
REMARK    1  A    between atoms: C_1  and  C_5 
REMARK    2  A    between atoms: C_11  and  C_13 
REMARK    3  A    between atoms: C_12  and  O_14 
REMARK    4  A    between atoms: C_15  and  C_17 
REMARK    5  A    between atoms: C_18  and  C_19 
REMARK    6  A    between atoms: C_20  and  C_22 
REMARK    7  A    between atoms: C_23  and  C_24 
REMARK    8  A    between atoms: C_25  and  C_26 
REMARK    9  A    between atoms: C_28  and  C_29 
REMARK   10  A    between atoms: C_30  and  C_31 
REMARK   11  A    between atoms: C_34  and  C_33 
REMARK   12  A    between atoms: C_43  and  O_44 
ROOT
HETATM    1  C   UNK N   1      25.591  14.541   7.066  0.00  0.00     0.001 C 
HETATM    2  C   UNK N   1      26.413  14.486   6.013  0.00  0.00     0.001 C 
ENDROOT
BRANCH   1   3
HETATM    3  C   UNK N   1      24.695  13.427   7.455  0.00  0.00     0.007 C 
HETATM    4  C   UNK N   1      24.584  12.914   8.692  0.00  0.00    -0.062 C 
HETATM    5  C   UNK N   1      25.329  13.498   9.859  0.00  0.00     0.048 C 
BRANCH   4   6
HETATM    6  C   UNK N   1      23.756  11.701   8.864  0.00  0.00     0.007 C 
HETATM    7  C   UNK N   1      22.454  11.704   9.198  0.00  0.00     0.001 C 
BRANCH   7   8
HETATM    8  C   UNK N   1      21.706  12.925   9.580  0.00  0.00     0.007 C 
HETATM    9  C   UNK N   1      21.102  13.763   8.720  0.00  0.00    -0.062 C 
HETATM   10  C   UNK N   1      20.424  14.966   9.283  0.00  0.00     0.048 C 
BRANCH   9  11
HETATM   11  C   UNK N   1      21.137  13.611   7.246  0.00  0.00     0.006 C 
HETATM   12  C   UNK N   1      21.247  14.652   6.425  0.00  0.00     0.015 C 
BRANCH  12  13
HETATM   13  C   UNK N   1      21.198  14.562   4.931  0.00  0.00     0.118 A 
HETATM   14  C   UNK N   1      19.932  15.025   4.283  0.00  0.00     0.097 A 
HETATM   15  C   UNK N   1      19.842  15.199   2.770  0.00  0.00     0.073 C 
HETATM   16  C   UNK N   1      18.714  15.423   5.104  0.00  0.00     0.050 C 
HETATM   17  O   UNK N   1      20.200  13.659   4.546  0.00  0.00    -0.358 OA
HETATM   18  C   UNK N   1      21.212  15.406   2.137  0.00  0.00     0.122 C 
HETATM   19  C   UNK N   1      22.166  14.300   2.578  0.00  0.00     0.044 C 
HETATM   20  C   UNK N   1      22.481  14.407   4.072  0.00  0.00    -0.007 C 
HETATM   21  C   UNK N   1      23.394  15.605   4.299  0.00  0.00     0.018 C 
HETATM   22  C   UNK N   1      23.234  13.149   4.473  0.00  0.00     0.018 C 
BRANCH  18  23
HETATM   23  O   UNK N   1      21.084  15.384   0.749  0.00  0.00    -0.395 OA
HETATM   24  H   UNK N   1      20.724  14.631   0.255  0.00  0.00     0.210 HD
ENDBRANCH  18  23
ENDBRANCH  12  13
ENDBRANCH   9  11
ENDBRANCH   7   8
ENDBRANCH   4   6
ENDBRANCH   1   3
BRANCH   2  25
HETATM   25  C   UNK N   1      27.013  15.680   5.380  0.00  0.00     0.007 C 
HETATM   26  C   UNK N   1      27.118  15.878   4.055  0.00  0.00    -0.062 C 
HETATM   27  C   UNK N   1      26.628  14.855   3.068  0.00  0.00     0.048 C 
BRANCH  26  28
HETATM   28  C   UNK N   1      27.898  17.049   3.598  0.00  0.00     0.007 C 
HETATM   29  C   UNK N   1      29.207  17.056   3.305  0.00  0.00     0.001 C 
BRANCH  29  30
HETATM   30  C   UNK N   1      30.045  15.844   3.189  0.00  0.00     0.007 C 
HETATM   31  C   UNK N   1      31.375  15.861   3.388  0.00  0.00    -0.062 C 
HETATM   32  C   UNK N   1      32.155  14.626   3.092  0.00  0.00     0.048 C 
BRANCH  31  33
HETATM   33  C   UNK N   1      32.111  17.091   3.765  0.00  0.00     0.006 C 
HETATM   34  C   UNK N   1      32.456  17.433   5.022  0.00  0.00     0.015 C 
BRANCH  34  35
HETATM   35  C   UNK N   1      32.323  16.552   6.249  0.00  0.00     0.118 A 
HETATM   36  C   UNK N   1      31.139  16.823   7.140  0.00  0.00     0.097 A 
HETATM   37  C   UNK N   1      31.025  16.206   8.530  0.00  0.00     0.073 C 
HETATM   38  C   UNK N   1      29.976  17.682   6.680  0.00  0.00     0.050 C 
HETATM   39  O   UNK N   1      31.204  15.719   6.242  0.00  0.00    -0.358 OA
HETATM   40  C   UNK N   1      32.383  15.847   9.123  0.00  0.00     0.122 C 
HETATM   41  C   UNK N   1      33.227  15.066   8.120  0.00  0.00     0.044 C 
HETATM   42  C   UNK N   1      33.576  15.925   6.900  0.00  0.00    -0.007 C 
HETATM   43  C   UNK N   1      34.531  17.032   7.322  0.00  0.00     0.018 C 
HETATM   44  C   UNK N   1      34.300  15.039   5.904  0.00  0.00     0.018 C 
BRANCH  40  45
HETATM   45  O   UNK N   1      32.193  15.077  10.270  0.00  0.00    -0.395 OA
HETATM   46  H   UNK N   1      32.796  15.013  11.027  0.00  0.00     0.210 HD
ENDBRANCH  40  45
ENDBRANCH  34  35
ENDBRANCH  31  33
ENDBRANCH  29  30
ENDBRANCH  26  28
ENDBRANCH   2  25
TORSDOF 12
ENDMDL
MODEL 6
REMARK VINA RESULT:      -7.8     12.293     15.823
REMARK  12 active torsions:
REMARK  status: ('A' for Active; 'I' for Inactive)
REMARK    1  A    between atoms: C_1  and  C_5 
REMARK    2  A    between atoms: C_11  and  C_13 
REMARK    3  A    between atoms: C_12  and  O_14 
REMARK    4  A    between atoms: C_15  and  C_17 
REMARK    5  A    between atoms: C_18  and  C_19 
REMARK    6  A    between atoms: C_20  and  C_22 
REMARK    7  A    between atoms: C_23  and  C_24 
REMARK    8  A    between atoms: C_25  and  C_26 
REMARK    9  A    between atoms: C_28  and  C_29 
REMARK   10  A    between atoms: C_30  and  C_31 
REMARK   11  A    between atoms: C_34  and  C_33 
REMARK   12  A    between atoms: C_43  and  O_44 
ROOT
HETATM    1  C   UNK N   1      30.027  19.674  -8.672  0.00  0.00     0.001 C 
HETATM    2  C   UNK N   1      29.011  19.655  -7.804  0.00  0.00     0.001 C 
ENDROOT
BRANCH   1   3
HETATM    3  C   UNK N   1      31.403  19.252  -8.321  0.00  0.00     0.007 C 
HETATM    4  C   UNK N   1      32.212  18.514  -9.100  0.00  0.00    -0.062 C 
HETATM    5  C   UNK N   1      31.811  18.099 -10.487  0.00  0.00     0.048 C 
BRANCH   4   6
HETATM    6  C   UNK N   1      33.494  18.055  -8.522  0.00  0.00     0.007 C 
HETATM    7  C   UNK N   1      34.619  18.787  -8.477  0.00  0.00     0.001 C 
BRANCH   7   8
HETATM    8  C   UNK N   1      34.767  20.109  -9.131  0.00  0.00     0.007 C 
HETATM    9  C   UNK N   1      34.629  21.297  -8.516  0.00  0.00    -0.062 C 
HETATM   10  C   UNK N   1      34.777  22.528  -9.344  0.00  0.00     0.048 C 
BRANCH   9  11
HETATM   11  C   UNK N   1      34.259  21.458  -7.091  0.00  0.00     0.006 C 
HETATM   12  C   UNK N   1      33.087  21.959  -6.711  0.00  0.00     0.015 C 
BRANCH  12  13
HETATM   13  C   UNK N   1      32.699  22.225  -5.289  0.00  0.00     0.118 A 
HETATM   14  C   UNK N   1      32.051  23.546  -5.017  0.00  0.00     0.097 A 
HETATM   15  C   UNK N   1      31.406  23.842  -3.666  0.00  0.00     0.073 C 
HETATM   16  C   UNK N   1      31.930  24.613  -6.095  0.00  0.00     0.050 C 
HETATM   17  O   UNK N   1      33.430  23.312  -4.796  0.00  0.00    -0.358 OA
HETATM   18  C   UNK N   1      31.013  22.567  -2.931  0.00  0.00     0.122 C 
HETATM   19  C   UNK N   1      32.204  21.617  -2.855  0.00  0.00     0.044 C 
HETATM   20  C   UNK N   1      32.576  21.087  -4.242  0.00  0.00    -0.007 C 
HETATM   21  C   UNK N   1      31.514  20.093  -4.692  0.00  0.00     0.018 C 
HETATM   22  C   UNK N   1      33.898  20.348  -4.111  0.00  0.00     0.018 C 
BRANCH  18  23
HETATM   23  O   UNK N   1      30.594  22.892  -1.642  0.00  0.00    -0.395 OA
HETATM   24  H   UNK N   1      31.176  23.277  -0.970  0.00  0.00     0.210 HD
ENDBRANCH  18  23
ENDBRANCH  12  13
ENDBRANCH   9  11
ENDBRANCH   7   8
ENDBRANCH   4   6
ENDBRANCH   1   3
BRANCH   2  25
HETATM   25  C   UNK N   1      27.756  20.413  -7.994  0.00  0.00     0.007 C 
HETATM   26  C   UNK N   1      27.506  21.630  -7.482  0.00  0.00    -0.062 C 
HETATM   27  C   UNK N   1      28.515  22.342  -6.626  0.00  0.00     0.048 C 
BRANCH  26  28
HETATM   28  C   UNK N   1      26.136  22.167  -7.632  0.00  0.00     0.007 C 
HETATM   29  C   UNK N   1      25.808  23.341  -8.193  0.00  0.00     0.001 C 
BRANCH  29  30
HETATM   30  C   UNK N   1      26.748  24.201  -8.943  0.00  0.00     0.007 C 
HETATM   31  C   UNK N   1      26.688  25.544  -8.906  0.00  0.00    -0.062 C 
HETATM   32  C   UNK N   1      27.572  26.322  -9.819  0.00  0.00     0.048 C 
BRANCH  31  33
HETATM   33  C   UNK N   1      25.691  26.277  -8.090  0.00  0.00     0.006 C 
HETATM   34  C   UNK N   1      25.907  26.756  -6.849  0.00  0.00     0.015 C 
BRANCH  34  35
HETATM   35  C   UNK N   1      27.244  26.797  -6.134  0.00  0.00     0.118 A 
HETATM   36  C   UNK N   1      27.421  25.829  -4.994  0.00  0.00     0.097 A 
HETATM   37  C   UNK N   1      28.594  25.940  -4.025  0.00  0.00     0.073 C 
HETATM   38  C   UNK N   1      26.471  24.665  -4.782  0.00  0.00     0.050 C 
HETATM   39  O   UNK N   1      28.010  25.640  -6.277  0.00  0.00    -0.358 OA
HETATM   40  C   UNK N   1      29.150  27.356  -3.940  0.00  0.00     0.122 C 
HETATM   41  C   UNK N   1      29.387  27.933  -5.332  0.00  0.00     0.044 C 
HETATM   42  C   UNK N   1      28.068  28.103  -6.095  0.00  0.00    -0.007 C 
HETATM   43  C   UNK N   1      27.244  29.199  -5.435  0.00  0.00     0.018 C 
HETATM   44  C   UNK N   1      28.405  28.556  -7.503  0.00  0.00     0.018 C 
BRANCH  40  45
HETATM   45  O   UNK N   1      30.353  27.335  -3.236  0.00  0.00    -0.395 OA
HETATM   46  H   UNK N   1      30.491  27.633  -2.323  0.00  0.00     0.210 HD
ENDBRANCH  40  45
ENDBRANCH  34  35
ENDBRANCH  31  33
ENDBRANCH  29  30
ENDBRANCH  26  28
ENDBRANCH   2  25
TORSDOF 12
ENDMDL
MODEL 7
REMARK VINA RESULT:      -7.5     12.075     15.336
REMARK  12 active torsions:
REMARK  status: ('A' for Active; 'I' for Inactive)
REMARK    1  A    between atoms: C_1  and  C_5 
REMARK    2  A    between atoms: C_11  and  C_13 
REMARK    3  A    between atoms: C_12  and  O_14 
REMARK    4  A    between atoms: C_15  and  C_17 
REMARK    5  A    between atoms: C_18  and  C_19 
REMARK    6  A    between atoms: C_20  and  C_22 
REMARK    7  A    between atoms: C_23  and  C_24 
REMARK    8  A    between atoms: C_25  and  C_26 
REMARK    9  A    between atoms: C_28  and  C_29 
REMARK   10  A    between atoms: C_30  and  C_31 
REMARK   11  A    between atoms: C_34  and  C_33 
REMARK   12  A    between atoms: C_43  and  O_44 
ROOT
HETATM    1  C   UNK N   1      29.141  20.435 -10.052  0.00  0.00     0.001 C 
HETATM    2  C   UNK N   1      28.064  20.927  -9.433  0.00  0.00     0.001 C 
ENDROOT
BRANCH   1   3
HETATM    3  C   UNK N   1      29.923  19.288  -9.534  0.00  0.00     0.007 C 
HETATM    4  C   UNK N   1      30.513  18.345 -10.288  0.00  0.00    -0.062 C 
HETATM    5  C   UNK N   1      30.501  18.412 -11.789  0.00  0.00     0.048 C 
BRANCH   4   6
HETATM    6  C   UNK N   1      31.118  17.187  -9.595  0.00  0.00     0.007 C 
HETATM    7  C   UNK N   1      32.374  17.151  -9.120  0.00  0.00     0.001 C 
BRANCH   7   8
HETATM    8  C   UNK N   1      33.373  18.220  -9.354  0.00  0.00     0.007 C 
HETATM    9  C   UNK N   1      33.582  19.275  -8.546  0.00  0.00    -0.062 C 
HETATM   10  C   UNK N   1      34.607  20.275  -8.961  0.00  0.00     0.048 C 
BRANCH   9  11
HETATM   11  C   UNK N   1      32.802  19.548  -7.316  0.00  0.00     0.006 C 
HETATM   12  C   UNK N   1      32.796  20.740  -6.727  0.00  0.00     0.015 C 
BRANCH  12  13
HETATM   13  C   UNK N   1      32.099  21.045  -5.437  0.00  0.00     0.118 A 
HETATM   14  C   UNK N   1      32.947  21.015  -4.205  0.00  0.00     0.097 A 
HETATM   15  C   UNK N   1      32.413  21.528  -2.871  0.00  0.00     0.073 C 
HETATM   16  C   UNK N   1      34.397  20.557  -4.245  0.00  0.00     0.050 C 
HETATM   17  O   UNK N   1      32.139  19.922  -4.603  0.00  0.00    -0.358 OA
HETATM   18  C   UNK N   1      31.268  22.515  -3.056  0.00  0.00     0.122 C 
HETATM   19  C   UNK N   1      30.199  21.914  -3.963  0.00  0.00     0.044 C 
HETATM   20  C   UNK N   1      30.717  21.749  -5.393  0.00  0.00    -0.007 C 
HETATM   21  C   UNK N   1      30.824  23.123  -6.041  0.00  0.00     0.018 C 
HETATM   22  C   UNK N   1      29.688  20.937  -6.163  0.00  0.00     0.018 C 
BRANCH  18  23
HETATM   23  O   UNK N   1      30.712  22.812  -1.813  0.00  0.00    -0.395 OA
HETATM   24  H   UNK N   1      30.406  22.137  -1.188  0.00  0.00     0.210 HD
ENDBRANCH  18  23
ENDBRANCH  12  13
ENDBRANCH   9  11
ENDBRANCH   7   8
ENDBRANCH   4   6
ENDBRANCH   1   3
BRANCH   2  25
HETATM   25  C   UNK N   1      27.508  22.271  -9.699  0.00  0.00     0.007 C 
HETATM   26  C   UNK N   1      26.407  22.778  -9.119  0.00  0.00    -0.062 C 
HETATM   27  C   UNK N   1      25.609  21.982  -8.125  0.00  0.00     0.048 C 
BRANCH  26  28
HETATM   28  C   UNK N   1      25.899  24.070  -9.628  0.00  0.00     0.007 C 
HETATM   29  C   UNK N   1      26.577  25.228  -9.650  0.00  0.00     0.001 C 
BRANCH  29  30
HETATM   30  C   UNK N   1      28.021  25.357  -9.360  0.00  0.00     0.007 C 
HETATM   31  C   UNK N   1      28.516  26.318  -8.560  0.00  0.00    -0.062 C 
HETATM   32  C   UNK N   1      29.995  26.467  -8.456  0.00  0.00     0.048 C 
BRANCH  31  33
HETATM   33  C   UNK N   1      27.654  27.314  -7.879  0.00  0.00     0.006 C 
HETATM   34  C   UNK N   1      27.143  27.178  -6.640  0.00  0.00     0.015 C 
BRANCH  34  35
HETATM   35  C   UNK N   1      27.495  26.086  -5.650  0.00  0.00     0.118 A 
HETATM   36  C   UNK N   1      26.418  25.073  -5.364  0.00  0.00     0.097 A 
HETATM   37  C   UNK N   1      26.532  24.088  -4.204  0.00  0.00     0.073 C 
HETATM   38  C   UNK N   1      25.188  24.947  -6.244  0.00  0.00     0.050 C 
HETATM   39  O   UNK N   1      27.539  24.804  -6.199  0.00  0.00    -0.358 OA
HETATM   40  C   UNK N   1      27.440  24.598  -3.092  0.00  0.00     0.122 C 
HETATM   41  C   UNK N   1      28.761  25.110  -3.657  0.00  0.00     0.044 C 
HETATM   42  C   UNK N   1      28.546  26.339  -4.547  0.00  0.00    -0.007 C 
HETATM   43  C   UNK N   1      28.097  27.510  -3.684  0.00  0.00     0.018 C 
HETATM   44  C   UNK N   1      29.882  26.701  -5.166  0.00  0.00     0.018 C 
BRANCH  40  45
HETATM   45  O   UNK N   1      27.690  23.563  -2.192  0.00  0.00    -0.395 OA
HETATM   46  H   UNK N   1      27.036  23.114  -1.634  0.00  0.00     0.210 HD
ENDBRANCH  40  45
ENDBRANCH  34  35
ENDBRANCH  31  33
ENDBRANCH  29  30
ENDBRANCH  26  28
ENDBRANCH   2  25
TORSDOF 12
ENDMDL
MODEL 8
REMARK VINA RESULT:      -7.5     12.359     15.228
REMARK  12 active torsions:
REMARK  status: ('A' for Active; 'I' for Inactive)
REMARK    1  A    between atoms: C_1  and  C_5 
REMARK    2  A    between atoms: C_11  and  C_13 
REMARK    3  A    between atoms: C_12  and  O_14 
REMARK    4  A    between atoms: C_15  and  C_17 
REMARK    5  A    between atoms: C_18  and  C_19 
REMARK    6  A    between atoms: C_20  and  C_22 
REMARK    7  A    between atoms: C_23  and  C_24 
REMARK    8  A    between atoms: C_25  and  C_26 
REMARK    9  A    between atoms: C_28  and  C_29 
REMARK   10  A    between atoms: C_30  and  C_31 
REMARK   11  A    between atoms: C_34  and  C_33 
REMARK   12  A    between atoms: C_43  and  O_44 
ROOT
HETATM    1  C   UNK N   1      30.252  26.571  -3.813  0.00  0.00     0.001 C 
HETATM    2  C   UNK N   1      30.002  25.343  -3.346  0.00  0.00     0.001 C 
ENDROOT
BRANCH   1   3
HETATM    3  C   UNK N   1      29.193  27.576  -4.062  0.00  0.00     0.007 C 
HETATM    4  C   UNK N   1      29.120  28.787  -3.485  0.00  0.00    -0.062 C 
HETATM    5  C   UNK N   1      30.191  29.286  -2.556  0.00  0.00     0.048 C 
BRANCH   4   6
HETATM    6  C   UNK N   1      27.908  29.597  -3.733  0.00  0.00     0.007 C 
HETATM    7  C   UNK N   1      27.515  30.037  -4.940  0.00  0.00     0.001 C 
BRANCH   7   8
HETATM    8  C   UNK N   1      28.324  29.889  -6.173  0.00  0.00     0.007 C 
HETATM    9  C   UNK N   1      28.211  28.882  -7.056  0.00  0.00    -0.062 C 
HETATM   10  C   UNK N   1      29.137  28.876  -8.225  0.00  0.00     0.048 C 
BRANCH   9  11
HETATM   11  C   UNK N   1      27.282  27.738  -6.900  0.00  0.00     0.006 C 
HETATM   12  C   UNK N   1      27.646  26.485  -7.157  0.00  0.00     0.015 C 
BRANCH  12  13
HETATM   13  C   UNK N   1      26.724  25.306  -7.101  0.00  0.00     0.118 A 
HETATM   14  C   UNK N   1      26.074  24.914  -8.390  0.00  0.00     0.097 A 
HETATM   15  C   UNK N   1      25.301  23.604  -8.515  0.00  0.00     0.073 C 
HETATM   16  C   UNK N   1      26.226  25.755  -9.649  0.00  0.00     0.050 C 
HETATM   17  O   UNK N   1      25.422  25.710  -7.417  0.00  0.00    -0.358 OA
HETATM   18  C   UNK N   1      25.737  22.584  -7.471  0.00  0.00     0.122 C 
HETATM   19  C   UNK N   1      25.687  23.204  -6.078  0.00  0.00     0.044 C 
HETATM   20  C   UNK N   1      26.747  24.297  -5.922  0.00  0.00    -0.007 C 
HETATM   21  C   UNK N   1      28.120  23.645  -5.836  0.00  0.00     0.018 C 
HETATM   22  C   UNK N   1      26.476  25.015  -4.610  0.00  0.00     0.018 C 
BRANCH  18  23
HETATM   23  O   UNK N   1      24.884  21.483  -7.521  0.00  0.00    -0.395 OA
HETATM   24  H   UNK N   1      23.936  21.548  -7.712  0.00  0.00     0.210 HD
ENDBRANCH  18  23
ENDBRANCH  12  13
ENDBRANCH   9  11
ENDBRANCH   7   8
ENDBRANCH   4   6
ENDBRANCH   1   3
BRANCH   2  25
HETATM   25  C   UNK N   1      30.952  24.216  -3.453  0.00  0.00     0.007 C 
HETATM   26  C   UNK N   1      30.818  23.033  -2.830  0.00  0.00    -0.062 C 
HETATM   27  C   UNK N   1      29.652  22.754  -1.924  0.00  0.00     0.048 C 
BRANCH  26  28
HETATM   28  C   UNK N   1      31.947  22.083  -2.916  0.00  0.00     0.007 C 
HETATM   29  C   UNK N   1      31.972  20.954  -3.641  0.00  0.00     0.001 C 
BRANCH  29  30
HETATM   30  C   UNK N   1      30.949  20.579  -4.641  0.00  0.00     0.007 C 
HETATM   31  C   UNK N   1      30.986  21.014  -5.913  0.00  0.00    -0.062 C 
HETATM   32  C   UNK N   1      29.828  20.715  -6.801  0.00  0.00     0.048 C 
BRANCH  31  33
HETATM   33  C   UNK N   1      32.068  21.886  -6.428  0.00  0.00     0.006 C 
HETATM   34  C   UNK N   1      33.243  21.451  -6.925  0.00  0.00     0.015 C 
BRANCH  34  35
HETATM   35  C   UNK N   1      33.601  20.008  -7.219  0.00  0.00     0.118 A 
HETATM   36  C   UNK N   1      34.668  19.395  -6.350  0.00  0.00     0.097 A 
HETATM   37  C   UNK N   1      35.314  18.057  -6.697  0.00  0.00     0.073 C 
HETATM   38  C   UNK N   1      35.117  20.052  -5.058  0.00  0.00     0.050 C 
HETATM   39  O   UNK N   1      33.280  19.115  -6.197  0.00  0.00    -0.358 OA
HETATM   40  C   UNK N   1      35.247  17.746  -8.188  0.00  0.00     0.122 C 
HETATM   41  C   UNK N   1      33.836  17.958  -8.726  0.00  0.00     0.044 C 
HETATM   42  C   UNK N   1      33.425  19.432  -8.642  0.00  0.00    -0.007 C 
HETATM   43  C   UNK N   1      34.262  20.244  -9.620  0.00  0.00     0.018 C 
HETATM   44  C   UNK N   1      31.974  19.532  -9.074  0.00  0.00     0.018 C 
BRANCH  40  45
HETATM   45  O   UNK N   1      35.630  16.422  -8.397  0.00  0.00    -0.395 OA
HETATM   46  H   UNK N   1      35.249  15.807  -9.043  0.00  0.00     0.210 HD
ENDBRANCH  40  45
ENDBRANCH  34  35
ENDBRANCH  31  33
ENDBRANCH  29  30
ENDBRANCH  26  28
ENDBRANCH   2  25
TORSDOF 12
ENDMDL
MODEL 9
REMARK VINA RESULT:      -7.5      2.136      3.988
REMARK  12 active torsions:
REMARK  status: ('A' for Active; 'I' for Inactive)
REMARK    1  A    between atoms: C_1  and  C_5 
REMARK    2  A    between atoms: C_11  and  C_13 
REMARK    3  A    between atoms: C_12  and  O_14 
REMARK    4  A    between atoms: C_15  and  C_17 
REMARK    5  A    between atoms: C_18  and  C_19 
REMARK    6  A    between atoms: C_20  and  C_22 
REMARK    7  A    between atoms: C_23  and  C_24 
REMARK    8  A    between atoms: C_25  and  C_26 
REMARK    9  A    between atoms: C_28  and  C_29 
REMARK   10  A    between atoms: C_30  and  C_31 
REMARK   11  A    between atoms: C_34  and  C_33 
REMARK   12  A    between atoms: C_43  and  O_44 
ROOT
HETATM    1  C   UNK N   1      25.420  15.449   5.747  0.00  0.00     0.001 C 
HETATM    2  C   UNK N   1      25.896  14.832   4.661  0.00  0.00     0.001 C 
ENDROOT
BRANCH   1   3
HETATM    3  C   UNK N   1      24.084  15.168   6.320  0.00  0.00     0.007 C 
HETATM    4  C   UNK N   1      23.834  14.315   7.328  0.00  0.00    -0.062 C 
HETATM    5  C   UNK N   1      24.941  13.599   8.050  0.00  0.00     0.048 C 
BRANCH   4   6
HETATM    6  C   UNK N   1      22.421  14.042   7.666  0.00  0.00     0.007 C 
HETATM    7  C   UNK N   1      21.790  12.878   7.436  0.00  0.00     0.001 C 
BRANCH   7   8
HETATM    8  C   UNK N   1      22.389  11.754   6.679  0.00  0.00     0.007 C 
HETATM    9  C   UNK N   1      22.226  11.532   5.363  0.00  0.00    -0.062 C 
HETATM   10  C   UNK N   1      22.876  10.326   4.776  0.00  0.00     0.048 C 
BRANCH   9  11
HETATM   11  C   UNK N   1      21.378  12.365   4.478  0.00  0.00     0.006 C 
HETATM   12  C   UNK N   1      21.858  13.406   3.804  0.00  0.00     0.015 C 
BRANCH  12  13
HETATM   13  C   UNK N   1      21.028  14.331   2.969  0.00  0.00     0.118 A 
HETATM   14  C   UNK N   1      20.628  15.622   3.611  0.00  0.00     0.097 A 
HETATM   15  C   UNK N   1      19.984  16.739   2.795  0.00  0.00     0.073 C 
HETATM   16  C   UNK N   1      20.922  15.909   5.076  0.00  0.00     0.050 C 
HETATM   17  O   UNK N   1      19.769  14.496   3.557  0.00  0.00    -0.358 OA
HETATM   18  C   UNK N   1      20.317  16.627   1.313  0.00  0.00     0.122 C 
HETATM   19  C   UNK N   1      19.994  15.225   0.807  0.00  0.00     0.044 C 
HETATM   20  C   UNK N   1      20.932  14.186   1.427  0.00  0.00    -0.007 C 
HETATM   21  C   UNK N   1      22.316  14.341   0.812  0.00  0.00     0.018 C 
HETATM   22  C   UNK N   1      20.398  12.810   1.060  0.00  0.00     0.018 C 
BRANCH  18  23
HETATM   23  O   UNK N   1      19.566  17.563   0.602  0.00  0.00    -0.395 OA
HETATM   24  H   UNK N   1      19.134  18.327   1.013  0.00  0.00     0.210 HD
ENDBRANCH  18  23
ENDBRANCH  12  13
ENDBRANCH   9  11
ENDBRANCH   7   8
ENDBRANCH   4   6
ENDBRANCH   1   3
BRANCH   2  25
HETATM   25  C   UNK N   1      27.023  15.346   3.853  0.00  0.00     0.007 C 
HETATM   26  C   UNK N   1      27.731  14.622   2.970  0.00  0.00    -0.062 C 
HETATM   27  C   UNK N   1      27.436  13.167   2.734  0.00  0.00     0.048 C 
BRANCH  26  28
HETATM   28  C   UNK N   1      28.930  15.251   2.375  0.00  0.00     0.007 C 
HETATM   29  C   UNK N   1      30.171  15.217   2.884  0.00  0.00     0.001 C 
BRANCH  29  30
HETATM   30  C   UNK N   1      30.587  14.365   4.019  0.00  0.00     0.007 C 
HETATM   31  C   UNK N   1      31.461  14.779   4.953  0.00  0.00    -0.062 C 
HETATM   32  C   UNK N   1      31.941  13.796   5.965  0.00  0.00     0.048 C 
BRANCH  31  33
HETATM   33  C   UNK N   1      32.065  16.133   4.938  0.00  0.00     0.006 C 
HETATM   34  C   UNK N   1      31.578  17.205   5.593  0.00  0.00     0.015 C 
BRANCH  34  35
HETATM   35  C   UNK N   1      30.445  17.190   6.600  0.00  0.00     0.118 A 
HETATM   36  C   UNK N   1      29.149  17.814   6.155  0.00  0.00     0.097 A 
HETATM   37  C   UNK N   1      28.022  18.109   7.140  0.00  0.00     0.073 C 
HETATM   38  C   UNK N   1      28.878  18.134   4.697  0.00  0.00     0.050 C 
HETATM   39  O   UNK N   1      29.353  16.406   6.227  0.00  0.00    -0.358 OA
HETATM   40  C   UNK N   1      28.526  18.290   8.567  0.00  0.00     0.122 C 
HETATM   41  C   UNK N   1      29.468  17.156   8.960  0.00  0.00     0.044 C 
HETATM   42  C   UNK N   1      30.746  17.177   8.115  0.00  0.00    -0.007 C 
HETATM   43  C   UNK N   1      31.566  18.409   8.476  0.00  0.00     0.018 C 
HETATM   44  C   UNK N   1      31.561  15.951   8.480  0.00  0.00     0.018 C 
BRANCH  40  45
HETATM   45  O   UNK N   1      27.438  18.312   9.438  0.00  0.00    -0.395 OA
HETATM   46  H   UNK N   1      27.467  18.488  10.392  0.00  0.00     0.210 HD
ENDBRANCH  40  45
ENDBRANCH  34  35
ENDBRANCH  31  33
ENDBRANCH  29  30
ENDBRANCH  26  28
ENDBRANCH   2  25
TORSDOF 12
ENDMDL
