REMARK  8 active torsions:
REMARK  status: ('A' for Active; 'I' for Inactive)
REMARK    1  A    between atoms: C_6  and  C_2 
REMARK    2  A    between atoms: O_23  and  C_2 
REMARK    3  A    between atoms: C_7  and  O_18 
REMARK    4  A    between atoms: C_8  and  O_19 
REMARK    5  A    between atoms: C_10  and  N_17 
REMARK    6  A    between atoms: P_25  and  O_20 
REMARK    7  A    between atoms: P_25  and  O_21 
REMARK    8  A    between atoms: P_25  and  O_23 
ROOT
HETATM    1  C   UNK N   1      -0.173  -4.039  -0.308  0.00  0.00     0.180 C 
HETATM    2  C   UNK N   1       1.196  -4.543   0.153  0.00  0.00     0.182 C 
HETATM    3  C   UNK N   1       2.057  -3.292   0.115  0.00  0.00     0.198 C 
HETATM    4  C   UNK N   1       1.119  -2.258  -0.493  0.00  0.00     0.262 C 
HETATM    5  O   UNK N   1      -0.177  -2.648  -0.082  0.00  0.00    -0.353 OA
ENDROOT
BRANCH   4   6
HETATM    6  N   UNK N   1       1.417  -0.886  -0.061  0.00  0.00    -0.297 N 
HETATM    7  C   UNK N   1       0.522   0.010   0.438  0.00  0.00     0.188 A 
HETATM    8  N   UNK N   1       1.116   1.203   0.722  0.00  0.00    -0.348 N 
HETATM    9  C   UNK N   1       2.406   1.019   0.394  0.00  0.00     0.093 A 
ATOM     10  HN  UNK N   1       0.680   2.045   1.098  1.00  0.00     0.167 HD
HETATM   11  C   UNK N   1       3.474   1.893   0.499  0.00  0.00     0.122 A 
HETATM   12  C   UNK N   1       2.586  -0.230  -0.078  0.00  0.00     0.140 A 
HETATM   13  N   UNK N   1       4.704   1.434   0.116  0.00  0.00    -0.360 N 
HETATM   14  C   UNK N   1       4.870   0.154  -0.359  0.00  0.00     0.182 A 
ATOM     15  HN  UNK N   1       5.513   2.052   0.183  1.00  0.00     0.166 HD
HETATM   16  N   UNK N   1       3.799  -0.692  -0.463  0.00  0.00    -0.336 N 
ATOM     17  HN  UNK N   1       3.912  -1.641  -0.820  1.00  0.00     0.168 HD
ENDBRANCH   4   6
BRANCH   3  18
HETATM   18  O   UNK N   1       3.230  -3.451  -0.629  0.00  0.00    -0.388 OA
HETATM   19  H   UNK N   1       3.541  -4.211  -1.146  0.00  0.00     0.210 HD
ENDBRANCH   3  18
BRANCH   2  20
HETATM   20  O   UNK N   1       1.656  -5.576  -0.668  0.00  0.00    -0.390 OA
HETATM   21  H   UNK N   1       1.195  -6.212  -1.238  0.00  0.00     0.210 HD
ENDBRANCH   2  20
BRANCH   1  22
HETATM   22  C   UNK N   1      -1.270  -4.770   0.465  0.00  0.00     0.215 C 
BRANCH  22  23
HETATM   23  O   UNK N   1      -2.469  -4.044   0.515  0.00  0.00    -0.294 OA
BRANCH  23  24
HETATM   24  P   UNK N   1      -3.651  -4.911  -0.435  0.00  0.00     0.390 P 
HETATM   25  O   UNK N   1      -3.723  -5.825   0.821  0.00  0.00    -0.632 OA
BRANCH  24  26
HETATM   26  O   UNK N   1      -5.357  -4.866  -0.116  0.00  0.00    -0.307 OA
HETATM   27  H   UNK N   1      -5.812  -4.027   0.061  0.00  0.00     0.222 HD
ENDBRANCH  24  26
BRANCH  24  28
HETATM   28  O   UNK N   1      -4.219  -3.355   0.088  0.00  0.00    -0.307 OA
HETATM   29  H   UNK N   1      -3.625  -2.646   0.380  0.00  0.00     0.222 HD
ENDBRANCH  24  28
ENDBRANCH  23  24
ENDBRANCH  22  23
ENDBRANCH   1  22
TORSDOF 8
