REMARK  17 active torsions:
REMARK  status: ('A' for Active; 'I' for Inactive)
REMARK    1  A    between atoms: C_1  and  N_2 
REMARK    2  A    between atoms: C_4  and  O_9 
REMARK    3  A    between atoms: C_7  and  C_13 
REMARK    4  A    between atoms: C_8  and  O_14 
REMARK    5  A    between atoms: C_13  and  O_16 
REMARK    6  A    between atoms: O_16  and  P_18 
REMARK    7  A    between atoms: P_18  and  O_19 
REMARK    8  A    between atoms: P_18  and  O_20 
REMARK    9  A    between atoms: O_19  and  P_22 
REMARK   10  A    between atoms: P_22  and  O_23 
REMARK   11  A    between atoms: P_22  and  O_24 
REMARK   12  A    between atoms: C_26  and  O_23 
REMARK   13  A    between atoms: C_27  and  N_30 
REMARK   14  A    between atoms: C_29  and  O_33 
REMARK       I    between atoms: N_30  and  C_34 
REMARK   15  A    between atoms: C_31  and  C_35 
REMARK   16  A    between atoms: C_32  and  O_36 
REMARK   17  A    between atoms: C_35  and  O_39 
ROOT
HETATM    1  P   UNK N   1      14.557 -10.428  -1.501  0.00  0.00     0.401 P 
HETATM    2  O   UNK N   1      14.314 -11.092  -2.882  0.00  0.00    -0.631 OA
ENDROOT
BRANCH   1   3
HETATM    3  O   UNK N   1      15.095 -11.719  -0.461  0.00  0.00    -0.294 OA
BRANCH   3   4
HETATM    4  C   UNK N   1      16.207 -11.208   0.202  0.00  0.00     0.215 C 
BRANCH   4   5
HETATM    5  C   UNK N   1      16.952 -12.284   1.002  0.00  0.00     0.180 C 
HETATM    6  O   UNK N   1      18.038 -11.669   1.652  0.00  0.00    -0.353 OA
HETATM    7  C   UNK N   1      19.061 -11.577   0.671  0.00  0.00     0.263 C 
HETATM    8  C   UNK N   1      18.727 -12.559  -0.455  0.00  0.00     0.198 C 
HETATM    9  C   UNK N   1      17.602 -13.338   0.139  0.00  0.00     0.182 C 
BRANCH   7  10
HETATM   10  N   UNK N   1      19.214 -10.161   0.267  0.00  0.00    -0.280 N 
HETATM   11  C   UNK N   1      18.876  -9.644  -0.982  0.00  0.00     0.331 A 
HETATM   12  N   UNK N   1      19.017  -8.303  -1.228  0.00  0.00    -0.275 N 
HETATM   13  O   UNK N   1      18.433 -10.357  -1.863  0.00  0.00    -0.246 OA
HETATM   14  C   UNK N   1      19.491  -7.456  -0.268  0.00  0.00     0.250 A 
HETATM   15  H   UNK N   1      18.773  -7.945  -2.112  0.00  0.00     0.173 HD
HETATM   16  O   UNK N   1      19.606  -6.268  -0.505  0.00  0.00    -0.268 OA
HETATM   17  C   UNK N   1      19.839  -7.953   0.980  0.00  0.00     0.092 A 
HETATM   18  C   UNK N   1      19.687  -9.315   1.227  0.00  0.00     0.104 A 
ENDBRANCH   7  10
BRANCH   8  19
HETATM   19  O   UNK N   1      19.808 -13.390  -0.742  0.00  0.00    -0.388 OA
HETATM   20  H   UNK N   1      19.683 -14.331  -0.942  0.00  0.00     0.210 HD
ENDBRANCH   8  19
BRANCH   9  21
HETATM   21  O   UNK N   1      16.750 -13.863  -0.834  0.00  0.00    -0.390 OA
HETATM   22  H   UNK N   1      16.138 -13.533  -1.510  0.00  0.00     0.210 HD
ENDBRANCH   9  21
ENDBRANCH   4   5
ENDBRANCH   3   4
ENDBRANCH   1   3
BRANCH   1  23
HETATM   23  O   UNK N   1      13.021  -9.746  -1.040  0.00  0.00    -0.195 OA
BRANCH  23  24
HETATM   24  P   UNK N   1      13.107  -9.186   0.621  0.00  0.00     0.404 P 
HETATM   25  O   UNK N   1      14.140 -10.009   1.429  0.00  0.00    -0.631 OA
BRANCH  24  26
HETATM   26  O   UNK N   1      11.622  -9.485   1.484  0.00  0.00    -0.263 OA
BRANCH  26  27
HETATM   27  C   UNK N   1      10.711 -10.155   0.649  0.00  0.00     0.297 C 
HETATM   28  C   UNK N   1      11.208 -11.534   0.127  0.00  0.00     0.171 C 
HETATM   29  C   UNK N   1      10.083 -12.173  -0.713  0.00  0.00     0.177 C 
HETATM   30  C   UNK N   1       8.721 -12.092  -0.021  0.00  0.00     0.180 C 
HETATM   31  C   UNK N   1       8.533 -10.635   0.421  0.00  0.00     0.179 C 
HETATM   32  O   UNK N   1       9.519 -10.334   1.368  0.00  0.00    -0.348 OA
BRANCH  28  33
HETATM   33  N   UNK N   1      11.675 -12.389   1.199  0.00  0.00    -0.349 N 
HETATM   34  C   UNK N   1      12.580 -13.378   0.975  0.00  0.00     0.214 C 
HETATM   35  C   UNK N   1      13.071 -14.203   2.111  0.00  0.00     0.117 C 
HETATM   36  O   UNK N   1      13.007 -13.594  -0.150  0.00  0.00    -0.274 OA
HETATM   37  H   UNK N   1      11.330 -12.251   2.110  0.00  0.00     0.163 HD
ENDBRANCH  28  33
BRANCH  29  38
HETATM   38  O   UNK N   1      10.383 -13.485  -1.087  0.00  0.00    -0.391 OA
HETATM   39  H   UNK N   1       9.697 -14.120  -1.347  0.00  0.00     0.210 HD
ENDBRANCH  29  38
BRANCH  30  40
HETATM   40  O   UNK N   1       7.724 -12.469  -0.923  0.00  0.00    -0.390 OA
HETATM   41  H   UNK N   1       7.151 -12.000  -1.549  0.00  0.00     0.210 HD
ENDBRANCH  30  40
BRANCH  31  42
HETATM   42  C   UNK N   1       7.167 -10.364   1.022  0.00  0.00     0.198 C 
BRANCH  42  43
HETATM   43  O   UNK N   1       6.253 -10.097   0.003  0.00  0.00    -0.398 OA
HETATM   44  H   UNK N   1       6.097  -9.454  -0.706  0.00  0.00     0.209 HD
ENDBRANCH  42  43
ENDBRANCH  31  42
ENDBRANCH  26  27
ENDBRANCH  24  26
BRANCH  24  45
HETATM   45  O   UNK N   1      13.590  -7.524   0.742  0.00  0.00    -0.307 OA
HETATM   46  H   UNK N   1      14.529  -7.293   0.809  0.00  0.00     0.222 HD
ENDBRANCH  24  45
ENDBRANCH  23  24
ENDBRANCH   1  23
BRANCH   1  47
HETATM   47  O   UNK N   1      15.749  -9.198  -1.791  0.00  0.00    -0.307 OA
HETATM   48  H   UNK N   1      16.677  -9.431  -1.953  0.00  0.00     0.222 HD
ENDBRANCH   1  47
TORSDOF 17
