MODEL 1
REMARK VINA RESULT:      -5.3      0.000      0.000
REMARK  12 active torsions:
REMARK  status: ('A' for Active; 'I' for Inactive)
REMARK    1  A    between atoms: C_3  and  C_1 
REMARK    2  A    between atoms: C_5  and  C_1 
REMARK    3  A    between atoms: C_4  and  C_2 
REMARK    4  A    between atoms: S_15  and  C_2 
REMARK    5  A    between atoms: C_6  and  C_3 
REMARK    6  A    between atoms: C_3  and  N_8 
REMARK    7  A    between atoms: C_7  and  C_4 
REMARK    8  A    between atoms: C_4  and  N_9 
REMARK    9  A    between atoms: C_5  and  O_10 
REMARK   10  A    between atoms: S_15  and  C_5 
REMARK   11  A    between atoms: O_12  and  C_6 
REMARK   12  A    between atoms: O_14  and  C_7 
ROOT
HETATM    1  C   UNK N   1      34.682  13.777  10.489  0.00  0.00     0.181 C 
ENDROOT
BRANCH   1   2
HETATM    2  C   UNK N   1      35.540  12.863  11.360  0.00  0.00     0.078 C 
BRANCH   2   3
HETATM    3  C   UNK N   1      36.641  13.591  12.132  0.00  0.00     0.176 C 
BRANCH   3   4
HETATM    4  C   UNK N   1      36.292  13.599  13.595  0.00  0.00     0.163 C 
HETATM    5  O   UNK N   1      35.133  13.717  13.960  0.00  0.00    -0.648 OA
BRANCH   4   6
HETATM    6  O   UNK N   1      37.268  13.469  14.515  0.00  0.00    -0.775 OA
HETATM    7  H   UNK N   1      37.093  13.362  15.430  0.00  0.00     0.167 HD
ENDBRANCH   4   6
ENDBRANCH   3   4
BRANCH   3   8
HETATM    8  N   UNK N   1      37.930  12.949  11.911  0.00  0.00    -0.417 N 
HETATM    9  H   UNK N   1      38.178  12.012  12.230  0.00  0.00     0.150 HD
HETATM   10  H   UNK N   1      38.638  13.475  11.401  0.00  0.00     0.150 HD
ENDBRANCH   3   8
ENDBRANCH   2   3
ENDBRANCH   1   2
BRANCH   1  11
HETATM   11  O   UNK N   1      33.794  14.518  11.273  0.00  0.00    -0.385 OA
HETATM   12  H   UNK N   1      33.239  14.306  12.040  0.00  0.00     0.211 HD
ENDBRANCH   1  11
BRANCH   1  13
HETATM   13  S   UNK N   1      35.775  14.870   9.516  0.00  0.00    -0.135 SA
BRANCH  13  14
HETATM   14  C   UNK N   1      34.430  15.749   8.646  0.00  0.00     0.112 C 
BRANCH  14  15
HETATM   15  C   UNK N   1      34.227  17.171   9.164  0.00  0.00     0.182 C 
BRANCH  15  16
HETATM   16  C   UNK N   1      34.666  18.204   8.157  0.00  0.00     0.163 C 
HETATM   17  O   UNK N   1      34.437  18.049   6.966  0.00  0.00    -0.648 OA
BRANCH  16  18
HETATM   18  O   UNK N   1      35.316  19.309   8.570  0.00  0.00    -0.775 OA
HETATM   19  H   UNK N   1      35.703  19.388   9.419  0.00  0.00     0.167 HD
ENDBRANCH  16  18
ENDBRANCH  15  16
BRANCH  15  20
HETATM   20  N   UNK N   1      34.940  17.335  10.424  0.00  0.00    -0.417 N 
HETATM   21  H   UNK N   1      34.616  17.883  11.220  0.00  0.00     0.150 HD
HETATM   22  H   UNK N   1      35.839  16.861  10.516  0.00  0.00     0.150 HD
ENDBRANCH  15  20
ENDBRANCH  14  15
ENDBRANCH  13  14
ENDBRANCH   1  13
TORSDOF 12
ENDMDL
MODEL 2
REMARK VINA RESULT:      -5.0      1.239      6.266
REMARK  12 active torsions:
REMARK  status: ('A' for Active; 'I' for Inactive)
REMARK    1  A    between atoms: C_3  and  C_1 
REMARK    2  A    between atoms: C_5  and  C_1 
REMARK    3  A    between atoms: C_4  and  C_2 
REMARK    4  A    between atoms: S_15  and  C_2 
REMARK    5  A    between atoms: C_6  and  C_3 
REMARK    6  A    between atoms: C_3  and  N_8 
REMARK    7  A    between atoms: C_7  and  C_4 
REMARK    8  A    between atoms: C_4  and  N_9 
REMARK    9  A    between atoms: C_5  and  O_10 
REMARK   10  A    between atoms: S_15  and  C_5 
REMARK   11  A    between atoms: O_12  and  C_6 
REMARK   12  A    between atoms: O_14  and  C_7 
ROOT
HETATM    1  C   UNK N   1      34.371  15.265  10.514  0.00  0.00     0.181 C 
ENDROOT
BRANCH   1   2
HETATM    2  C   UNK N   1      34.448  15.950   9.152  0.00  0.00     0.078 C 
BRANCH   2   3
HETATM    3  C   UNK N   1      33.829  17.348   9.121  0.00  0.00     0.176 C 
BRANCH   3   4
HETATM    4  C   UNK N   1      34.568  18.189   8.116  0.00  0.00     0.163 C 
HETATM    5  O   UNK N   1      34.497  17.944   6.923  0.00  0.00    -0.648 OA
BRANCH   4   6
HETATM    6  O   UNK N   1      35.314  19.230   8.536  0.00  0.00    -0.775 OA
HETATM    7  H   UNK N   1      36.029  19.134   9.134  0.00  0.00     0.167 HD
ENDBRANCH   4   6
ENDBRANCH   3   4
BRANCH   3   8
HETATM    8  N   UNK N   1      32.413  17.272   8.789  0.00  0.00    -0.417 N 
HETATM    9  H   UNK N   1      31.924  17.914   8.164  0.00  0.00     0.150 HD
HETATM   10  H   UNK N   1      31.868  16.522   9.213  0.00  0.00     0.150 HD
ENDBRANCH   3   8
ENDBRANCH   2   3
ENDBRANCH   1   2
BRANCH   1  11
HETATM   11  O   UNK N   1      33.041  15.078  10.901  0.00  0.00    -0.385 OA
HETATM   12  H   UNK N   1      32.237  15.613  10.814  0.00  0.00     0.211 HD
ENDBRANCH   1  11
BRANCH   1  13
HETATM   13  S   UNK N   1      35.265  13.674  10.433  0.00  0.00    -0.135 SA
BRANCH  13  14
HETATM   14  C   UNK N   1      35.047  13.249  12.197  0.00  0.00     0.112 C 
BRANCH  14  15
HETATM   15  C   UNK N   1      36.377  13.037  12.916  0.00  0.00     0.182 C 
BRANCH  15  16
HETATM   16  C   UNK N   1      36.467  13.853  14.182  0.00  0.00     0.163 C 
HETATM   17  O   UNK N   1      36.166  13.364  15.261  0.00  0.00    -0.648 OA
BRANCH  16  18
HETATM   18  O   UNK N   1      36.884  15.133  14.126  0.00  0.00    -0.775 OA
HETATM   19  H   UNK N   1      36.297  15.862  14.121  0.00  0.00     0.167 HD
ENDBRANCH  16  18
ENDBRANCH  15  16
BRANCH  15  20
HETATM   20  N   UNK N   1      37.474  13.355  12.012  0.00  0.00    -0.417 N 
HETATM   21  H   UNK N   1      37.599  14.239  11.521  0.00  0.00     0.150 HD
HETATM   22  H   UNK N   1      38.177  12.631  11.858  0.00  0.00     0.150 HD
ENDBRANCH  15  20
ENDBRANCH  14  15
ENDBRANCH  13  14
ENDBRANCH   1  13
TORSDOF 12
ENDMDL
MODEL 3
REMARK VINA RESULT:      -5.0      1.864      6.601
REMARK  12 active torsions:
REMARK  status: ('A' for Active; 'I' for Inactive)
REMARK    1  A    between atoms: C_3  and  C_1 
REMARK    2  A    between atoms: C_5  and  C_1 
REMARK    3  A    between atoms: C_4  and  C_2 
REMARK    4  A    between atoms: S_15  and  C_2 
REMARK    5  A    between atoms: C_6  and  C_3 
REMARK    6  A    between atoms: C_3  and  N_8 
REMARK    7  A    between atoms: C_7  and  C_4 
REMARK    8  A    between atoms: C_4  and  N_9 
REMARK    9  A    between atoms: C_5  and  O_10 
REMARK   10  A    between atoms: S_15  and  C_5 
REMARK   11  A    between atoms: O_12  and  C_6 
REMARK   12  A    between atoms: O_14  and  C_7 
ROOT
HETATM    1  C   UNK N   1      35.872  15.657  10.371  0.00  0.00     0.181 C 
ENDROOT
BRANCH   1   2
HETATM    2  C   UNK N   1      35.051  16.907  10.069  0.00  0.00     0.078 C 
BRANCH   2   3
HETATM    3  C   UNK N   1      34.283  16.844   8.748  0.00  0.00     0.176 C 
BRANCH   3   4
HETATM    4  C   UNK N   1      34.596  18.074   7.940  0.00  0.00     0.163 C 
HETATM    5  O   UNK N   1      34.277  18.146   6.764  0.00  0.00    -0.648 OA
BRANCH   4   6
HETATM    6  O   UNK N   1      35.233  19.111   8.519  0.00  0.00    -0.775 OA
HETATM    7  H   UNK N   1      35.772  19.709   8.040  0.00  0.00     0.167 HD
ENDBRANCH   4   6
ENDBRANCH   3   4
BRANCH   3   8
HETATM    8  N   UNK N   1      34.633  15.638   8.010  0.00  0.00    -0.417 N 
HETATM    9  H   UNK N   1      34.519  14.686   8.359  0.00  0.00     0.150 HD
HETATM   10  H   UNK N   1      35.020  15.753   7.075  0.00  0.00     0.150 HD
ENDBRANCH   3   8
ENDBRANCH   2   3
ENDBRANCH   1   2
BRANCH   1  11
HETATM   11  O   UNK N   1      37.131  15.999  10.873  0.00  0.00    -0.385 OA
HETATM   12  H   UNK N   1      37.691  15.639  11.579  0.00  0.00     0.211 HD
ENDBRANCH   1  11
BRANCH   1  13
HETATM   13  S   UNK N   1      34.952  14.611  11.554  0.00  0.00    -0.135 SA
BRANCH  13  14
HETATM   14  C   UNK N   1      36.146  14.790  12.926  0.00  0.00     0.112 C 
BRANCH  14  15
HETATM   15  C   UNK N   1      36.344  13.490  13.703  0.00  0.00     0.182 C 
BRANCH  15  16
HETATM   16  C   UNK N   1      36.627  13.746  15.162  0.00  0.00     0.163 C 
HETATM   17  O   UNK N   1      35.972  13.188  16.031  0.00  0.00    -0.648 OA
BRANCH  16  18
HETATM   18  O   UNK N   1      37.610  14.596  15.515  0.00  0.00    -0.775 OA
HETATM   19  H   UNK N   1      37.975  15.228  14.929  0.00  0.00     0.167 HD
ENDBRANCH  16  18
ENDBRANCH  15  16
BRANCH  15  20
HETATM   20  N   UNK N   1      37.417  12.718  13.092  0.00  0.00    -0.417 N 
HETATM   21  H   UNK N   1      37.885  12.946  12.215  0.00  0.00     0.150 HD
HETATM   22  H   UNK N   1      37.726  11.878  13.582  0.00  0.00     0.150 HD
ENDBRANCH  15  20
ENDBRANCH  14  15
ENDBRANCH  13  14
ENDBRANCH   1  13
TORSDOF 12
ENDMDL
MODEL 4
REMARK VINA RESULT:      -4.9      2.586      5.633
REMARK  12 active torsions:
REMARK  status: ('A' for Active; 'I' for Inactive)
REMARK    1  A    between atoms: C_3  and  C_1 
REMARK    2  A    between atoms: C_5  and  C_1 
REMARK    3  A    between atoms: C_4  and  C_2 
REMARK    4  A    between atoms: S_15  and  C_2 
REMARK    5  A    between atoms: C_6  and  C_3 
REMARK    6  A    between atoms: C_3  and  N_8 
REMARK    7  A    between atoms: C_7  and  C_4 
REMARK    8  A    between atoms: C_4  and  N_9 
REMARK    9  A    between atoms: C_5  and  O_10 
REMARK   10  A    between atoms: S_15  and  C_5 
REMARK   11  A    between atoms: O_12  and  C_6 
REMARK   12  A    between atoms: O_14  and  C_7 
ROOT
HETATM    1  C   UNK N   1      34.784  15.540  10.852  0.00  0.00     0.181 C 
ENDROOT
BRANCH   1   2
HETATM    2  C   UNK N   1      34.940  16.089   9.436  0.00  0.00     0.078 C 
BRANCH   2   3
HETATM    3  C   UNK N   1      33.927  17.175   9.073  0.00  0.00     0.176 C 
BRANCH   3   4
HETATM    4  C   UNK N   1      34.561  18.131   8.100  0.00  0.00     0.163 C 
HETATM    5  O   UNK N   1      34.436  17.971   6.896  0.00  0.00    -0.648 OA
BRANCH   4   6
HETATM    6  O   UNK N   1      35.270  19.181   8.560  0.00  0.00    -0.775 OA
HETATM    7  H   UNK N   1      36.021  19.083   9.111  0.00  0.00     0.167 HD
ENDBRANCH   4   6
ENDBRANCH   3   4
BRANCH   3   8
HETATM    8  N   UNK N   1      32.723  16.582   8.505  0.00  0.00    -0.417 N 
HETATM    9  H   UNK N   1      31.919  17.108   8.163  0.00  0.00     0.150 HD
HETATM   10  H   UNK N   1      32.681  15.565   8.446  0.00  0.00     0.150 HD
ENDBRANCH   3   8
ENDBRANCH   2   3
ENDBRANCH   1   2
BRANCH   1  11
HETATM   11  O   UNK N   1      33.455  15.186  11.103  0.00  0.00    -0.385 OA
HETATM   12  H   UNK N   1      32.744  14.823  10.553  0.00  0.00     0.211 HD
ENDBRANCH   1  11
BRANCH   1  13
HETATM   13  S   UNK N   1      35.899  14.108  11.062  0.00  0.00    -0.135 SA
BRANCH  13  14
HETATM   14  C   UNK N   1      35.528  13.346   9.442  0.00  0.00     0.112 C 
BRANCH  14  15
HETATM   15  C   UNK N   1      34.491  12.230   9.544  0.00  0.00     0.182 C 
BRANCH  15  16
HETATM   16  C   UNK N   1      33.261  12.530   8.723  0.00  0.00     0.163 C 
HETATM   17  O   UNK N   1      33.036  11.915   7.691  0.00  0.00    -0.648 OA
BRANCH  16  18
HETATM   18  O   UNK N   1      32.401  13.483   9.129  0.00  0.00    -0.775 OA
HETATM   19  H   UNK N   1      32.405  14.356   8.789  0.00  0.00     0.167 HD
ENDBRANCH  16  18
ENDBRANCH  15  16
BRANCH  15  20
HETATM   20  N   UNK N   1      34.145  12.014  10.942  0.00  0.00    -0.417 N 
HETATM   21  H   UNK N   1      33.801  12.729  11.583  0.00  0.00     0.150 HD
HETATM   22  H   UNK N   1      34.256  11.070  11.311  0.00  0.00     0.150 HD
ENDBRANCH  15  20
ENDBRANCH  14  15
ENDBRANCH  13  14
ENDBRANCH   1  13
TORSDOF 12
ENDMDL
MODEL 5
REMARK VINA RESULT:      -4.8     15.469     17.314
REMARK  12 active torsions:
REMARK  status: ('A' for Active; 'I' for Inactive)
REMARK    1  A    between atoms: C_3  and  C_1 
REMARK    2  A    between atoms: C_5  and  C_1 
REMARK    3  A    between atoms: C_4  and  C_2 
REMARK    4  A    between atoms: S_15  and  C_2 
REMARK    5  A    between atoms: C_6  and  C_3 
REMARK    6  A    between atoms: C_3  and  N_8 
REMARK    7  A    between atoms: C_7  and  C_4 
REMARK    8  A    between atoms: C_4  and  N_9 
REMARK    9  A    between atoms: C_5  and  O_10 
REMARK   10  A    between atoms: S_15  and  C_5 
REMARK   11  A    between atoms: O_12  and  C_6 
REMARK   12  A    between atoms: O_14  and  C_7 
ROOT
HETATM    1  C   UNK N   1      21.460  18.226   4.781  0.00  0.00     0.181 C 
ENDROOT
BRANCH   1   2
HETATM    2  C   UNK N   1      21.220  18.486   3.296  0.00  0.00     0.078 C 
BRANCH   2   3
HETATM    3  C   UNK N   1      20.217  19.605   3.014  0.00  0.00     0.176 C 
BRANCH   3   4
HETATM    4  C   UNK N   1      20.874  20.646   2.148  0.00  0.00     0.163 C 
HETATM    5  O   UNK N   1      21.845  21.269   2.548  0.00  0.00    -0.648 OA
BRANCH   4   6
HETATM    6  O   UNK N   1      20.390  20.891   0.914  0.00  0.00    -0.775 OA
HETATM    7  H   UNK N   1      20.432  20.265   0.219  0.00  0.00     0.167 HD
ENDBRANCH   4   6
ENDBRANCH   3   4
BRANCH   3   8
HETATM    8  N   UNK N   1      19.025  19.073   2.367  0.00  0.00    -0.417 N 
HETATM    9  H   UNK N   1      18.487  18.274   2.701  0.00  0.00     0.150 HD
HETATM   10  H   UNK N   1      18.705  19.533   1.516  0.00  0.00     0.150 HD
ENDBRANCH   3   8
ENDBRANCH   2   3
ENDBRANCH   1   2
BRANCH   1  11
HETATM   11  O   UNK N   1      21.094  19.337   5.545  0.00  0.00    -0.385 OA
HETATM   12  H   UNK N   1      20.250  19.656   5.901  0.00  0.00     0.211 HD
ENDBRANCH   1  11
BRANCH   1  13
HETATM   13  S   UNK N   1      20.523  16.741   5.284  0.00  0.00    -0.135 SA
BRANCH  13  14
HETATM   14  C   UNK N   1      21.100  16.737   7.018  0.00  0.00     0.112 C 
BRANCH  14  15
HETATM   15  C   UNK N   1      19.948  16.679   8.019  0.00  0.00     0.182 C 
BRANCH  15  16
HETATM   16  C   UNK N   1      19.664  18.030   8.626  0.00  0.00     0.163 C 
HETATM   17  O   UNK N   1      20.368  18.994   8.359  0.00  0.00    -0.648 OA
BRANCH  16  18
HETATM   18  O   UNK N   1      18.625  18.180   9.470  0.00  0.00    -0.775 OA
HETATM   19  H   UNK N   1      17.788  18.501   9.200  0.00  0.00     0.167 HD
ENDBRANCH  16  18
ENDBRANCH  15  16
BRANCH  15  20
HETATM   20  N   UNK N   1      20.250  15.696   9.051  0.00  0.00    -0.417 N 
HETATM   21  H   UNK N   1      21.006  15.013   9.014  0.00  0.00     0.150 HD
HETATM   22  H   UNK N   1      19.654  15.691   9.879  0.00  0.00     0.150 HD
ENDBRANCH  15  20
ENDBRANCH  14  15
ENDBRANCH  13  14
ENDBRANCH   1  13
TORSDOF 12
ENDMDL
MODEL 6
REMARK VINA RESULT:      -4.6      2.134      5.513
REMARK  12 active torsions:
REMARK  status: ('A' for Active; 'I' for Inactive)
REMARK    1  A    between atoms: C_3  and  C_1 
REMARK    2  A    between atoms: C_5  and  C_1 
REMARK    3  A    between atoms: C_4  and  C_2 
REMARK    4  A    between atoms: S_15  and  C_2 
REMARK    5  A    between atoms: C_6  and  C_3 
REMARK    6  A    between atoms: C_3  and  N_8 
REMARK    7  A    between atoms: C_7  and  C_4 
REMARK    8  A    between atoms: C_4  and  N_9 
REMARK    9  A    between atoms: C_5  and  O_10 
REMARK   10  A    between atoms: S_15  and  C_5 
REMARK   11  A    between atoms: O_12  and  C_6 
REMARK   12  A    between atoms: O_14  and  C_7 
ROOT
HETATM    1  C   UNK N   1      36.838  14.093   9.378  0.00  0.00     0.181 C 
ENDROOT
BRANCH   1   2
HETATM    2  C   UNK N   1      35.425  14.644   9.209  0.00  0.00     0.078 C 
BRANCH   2   3
HETATM    3  C   UNK N   1      34.915  15.434  10.415  0.00  0.00     0.176 C 
BRANCH   3   4
HETATM    4  C   UNK N   1      34.895  16.899  10.070  0.00  0.00     0.163 C 
HETATM    5  O   UNK N   1      35.854  17.612  10.319  0.00  0.00    -0.648 OA
BRANCH   4   6
HETATM    6  O   UNK N   1      33.809  17.430   9.474  0.00  0.00    -0.775 OA
HETATM    7  H   UNK N   1      32.999  16.966   9.388  0.00  0.00     0.167 HD
ENDBRANCH   4   6
ENDBRANCH   3   4
BRANCH   3   8
HETATM    8  N   UNK N   1      33.587  14.977  10.802  0.00  0.00    -0.417 N 
HETATM    9  H   UNK N   1      32.809  15.587  11.050  0.00  0.00     0.150 HD
HETATM   10  H   UNK N   1      33.424  13.971  10.827  0.00  0.00     0.150 HD
ENDBRANCH   3   8
ENDBRANCH   2   3
ENDBRANCH   1   2
BRANCH   1  11
HETATM   11  O   UNK N   1      37.600  14.925  10.203  0.00  0.00    -0.385 OA
HETATM   12  H   UNK N   1      38.128  14.774  11.002  0.00  0.00     0.211 HD
ENDBRANCH   1  11
BRANCH   1  13
HETATM   13  S   UNK N   1      36.739  12.401  10.059  0.00  0.00    -0.135 SA
BRANCH  13  14
HETATM   14  C   UNK N   1      37.712  12.750  11.566  0.00  0.00     0.112 C 
BRANCH  14  15
HETATM   15  C   UNK N   1      36.932  12.462  12.847  0.00  0.00     0.182 C 
BRANCH  15  16
HETATM   16  C   UNK N   1      36.128  13.657  13.296  0.00  0.00     0.163 C 
HETATM   17  O   UNK N   1      34.909  13.599  13.362  0.00  0.00    -0.648 OA
BRANCH  16  18
HETATM   18  O   UNK N   1      36.757  14.800  13.630  0.00  0.00    -0.775 OA
HETATM   19  H   UNK N   1      36.525  15.313  14.378  0.00  0.00     0.167 HD
ENDBRANCH  16  18
ENDBRANCH  15  16
BRANCH  15  20
HETATM   20  N   UNK N   1      37.852  12.030  13.890  0.00  0.00    -0.417 N 
HETATM   21  H   UNK N   1      37.592  11.533  14.740  0.00  0.00     0.150 HD
HETATM   22  H   UNK N   1      38.841  12.245  13.757  0.00  0.00     0.150 HD
ENDBRANCH  15  20
ENDBRANCH  14  15
ENDBRANCH  13  14
ENDBRANCH   1  13
TORSDOF 12
ENDMDL
MODEL 7
REMARK VINA RESULT:      -4.6     13.280     15.148
REMARK  12 active torsions:
REMARK  status: ('A' for Active; 'I' for Inactive)
REMARK    1  A    between atoms: C_3  and  C_1 
REMARK    2  A    between atoms: C_5  and  C_1 
REMARK    3  A    between atoms: C_4  and  C_2 
REMARK    4  A    between atoms: S_15  and  C_2 
REMARK    5  A    between atoms: C_6  and  C_3 
REMARK    6  A    between atoms: C_3  and  N_8 
REMARK    7  A    between atoms: C_7  and  C_4 
REMARK    8  A    between atoms: C_4  and  N_9 
REMARK    9  A    between atoms: C_5  and  O_10 
REMARK   10  A    between atoms: S_15  and  C_5 
REMARK   11  A    between atoms: O_12  and  C_6 
REMARK   12  A    between atoms: O_14  and  C_7 
ROOT
HETATM    1  C   UNK N   1      20.557  14.902   9.400  0.00  0.00     0.181 C 
ENDROOT
BRANCH   1   2
HETATM    2  C   UNK N   1      20.216  16.056   8.461  0.00  0.00     0.078 C 
BRANCH   2   3
HETATM    3  C   UNK N   1      19.280  17.100   9.070  0.00  0.00     0.176 C 
BRANCH   3   4
HETATM    4  C   UNK N   1      19.914  18.458   8.950  0.00  0.00     0.163 C 
HETATM    5  O   UNK N   1      20.462  18.802   7.915  0.00  0.00    -0.648 OA
BRANCH   4   6
HETATM    6  O   UNK N   1      19.874  19.309   9.994  0.00  0.00    -0.775 OA
HETATM    7  H   UNK N   1      19.744  20.232   9.893  0.00  0.00     0.167 HD
ENDBRANCH   4   6
ENDBRANCH   3   4
BRANCH   3   8
HETATM    8  N   UNK N   1      17.984  17.074   8.405  0.00  0.00    -0.417 N 
HETATM    9  H   UNK N   1      17.267  16.363   8.550  0.00  0.00     0.150 HD
HETATM   10  H   UNK N   1      17.777  17.823   7.745  0.00  0.00     0.150 HD
ENDBRANCH   3   8
ENDBRANCH   2   3
ENDBRANCH   1   2
BRANCH   1  11
HETATM   11  O   UNK N   1      19.411  14.170   9.722  0.00  0.00    -0.385 OA
HETATM   12  H   UNK N   1      18.468  14.280   9.524  0.00  0.00     0.211 HD
ENDBRANCH   1  11
BRANCH   1  13
HETATM   13  S   UNK N   1      21.816  13.841   8.608  0.00  0.00    -0.135 SA
BRANCH  13  14
HETATM   14  C   UNK N   1      22.194  12.857  10.100  0.00  0.00     0.112 C 
BRANCH  14  15
HETATM   15  C   UNK N   1      23.410  11.952   9.913  0.00  0.00     0.182 C 
BRANCH  15  16
HETATM   16  C   UNK N   1      24.681  12.616  10.381  0.00  0.00     0.163 C 
HETATM   17  O   UNK N   1      25.271  13.410   9.662  0.00  0.00    -0.648 OA
BRANCH  16  18
HETATM   18  O   UNK N   1      25.172  12.336  11.603  0.00  0.00    -0.775 OA
HETATM   19  H   UNK N   1      25.534  11.503  11.831  0.00  0.00     0.167 HD
ENDBRANCH  16  18
ENDBRANCH  15  16
BRANCH  15  20
HETATM   20  N   UNK N   1      23.512  11.560   8.514  0.00  0.00    -0.417 N 
HETATM   21  H   UNK N   1      23.979  10.722   8.167  0.00  0.00     0.150 HD
HETATM   22  H   UNK N   1      23.081  12.175   7.824  0.00  0.00     0.150 HD
ENDBRANCH  15  20
ENDBRANCH  14  15
ENDBRANCH  13  14
ENDBRANCH   1  13
TORSDOF 12
ENDMDL
MODEL 8
REMARK VINA RESULT:      -4.4      4.827      7.936
REMARK  12 active torsions:
REMARK  status: ('A' for Active; 'I' for Inactive)
REMARK    1  A    between atoms: C_3  and  C_1 
REMARK    2  A    between atoms: C_5  and  C_1 
REMARK    3  A    between atoms: C_4  and  C_2 
REMARK    4  A    between atoms: S_15  and  C_2 
REMARK    5  A    between atoms: C_6  and  C_3 
REMARK    6  A    between atoms: C_3  and  N_8 
REMARK    7  A    between atoms: C_7  and  C_4 
REMARK    8  A    between atoms: C_4  and  N_9 
REMARK    9  A    between atoms: C_5  and  O_10 
REMARK   10  A    between atoms: S_15  and  C_5 
REMARK   11  A    between atoms: O_12  and  C_6 
REMARK   12  A    between atoms: O_14  and  C_7 
ROOT
HETATM    1  C   UNK N   1      30.807  17.638   8.242  0.00  0.00     0.181 C 
ENDROOT
BRANCH   1   2
HETATM    2  C   UNK N   1      29.443  17.711   7.559  0.00  0.00     0.078 C 
BRANCH   2   3
HETATM    3  C   UNK N   1      28.566  18.867   8.042  0.00  0.00     0.176 C 
BRANCH   3   4
HETATM    4  C   UNK N   1      27.787  19.412   6.876  0.00  0.00     0.163 C 
HETATM    5  O   UNK N   1      28.129  19.171   5.729  0.00  0.00    -0.648 OA
BRANCH   4   6
HETATM    6  O   UNK N   1      26.696  20.172   7.098  0.00  0.00    -0.775 OA
HETATM    7  H   UNK N   1      26.295  20.692   6.429  0.00  0.00     0.167 HD
ENDBRANCH   4   6
ENDBRANCH   3   4
BRANCH   3   8
HETATM    8  N   UNK N   1      27.669  18.422   9.100  0.00  0.00    -0.417 N 
HETATM    9  H   UNK N   1      26.667  18.609   9.133  0.00  0.00     0.150 HD
HETATM   10  H   UNK N   1      28.073  17.882   9.864  0.00  0.00     0.150 HD
ENDBRANCH   3   8
ENDBRANCH   2   3
ENDBRANCH   1   2
BRANCH   1  11
HETATM   11  O   UNK N   1      30.667  17.660   9.632  0.00  0.00    -0.385 OA
HETATM   12  H   UNK N   1      30.364  17.011  10.285  0.00  0.00     0.211 HD
ENDBRANCH   1  11
BRANCH   1  13
HETATM   13  S   UNK N   1      31.668  16.124   7.689  0.00  0.00    -0.135 SA
BRANCH  13  14
HETATM   14  C   UNK N   1      33.030  16.233   8.903  0.00  0.00     0.112 C 
BRANCH  14  15
HETATM   15  C   UNK N   1      34.382  16.500   8.245  0.00  0.00     0.182 C 
BRANCH  15  16
HETATM   16  C   UNK N   1      34.444  17.875   7.629  0.00  0.00     0.163 C 
HETATM   17  O   UNK N   1      34.643  18.861   8.325  0.00  0.00    -0.648 OA
BRANCH  16  18
HETATM   18  O   UNK N   1      34.282  18.022   6.301  0.00  0.00    -0.775 OA
HETATM   19  H   UNK N   1      33.700  18.651   5.922  0.00  0.00     0.167 HD
ENDBRANCH  16  18
ENDBRANCH  15  16
BRANCH  15  20
HETATM   20  N   UNK N   1      34.649  15.470   7.250  0.00  0.00    -0.417 N 
HETATM   21  H   UNK N   1      35.517  14.944   7.162  0.00  0.00     0.150 HD
HETATM   22  H   UNK N   1      33.904  15.258   6.586  0.00  0.00     0.150 HD
ENDBRANCH  15  20
ENDBRANCH  14  15
ENDBRANCH  13  14
ENDBRANCH   1  13
TORSDOF 12
ENDMDL
MODEL 9
REMARK VINA RESULT:      -4.4      5.763      8.824
REMARK  12 active torsions:
REMARK  status: ('A' for Active; 'I' for Inactive)
REMARK    1  A    between atoms: C_3  and  C_1 
REMARK    2  A    between atoms: C_5  and  C_1 
REMARK    3  A    between atoms: C_4  and  C_2 
REMARK    4  A    between atoms: S_15  and  C_2 
REMARK    5  A    between atoms: C_6  and  C_3 
REMARK    6  A    between atoms: C_3  and  N_8 
REMARK    7  A    between atoms: C_7  and  C_4 
REMARK    8  A    between atoms: C_4  and  N_9 
REMARK    9  A    between atoms: C_5  and  O_10 
REMARK   10  A    between atoms: S_15  and  C_5 
REMARK   11  A    between atoms: O_12  and  C_6 
REMARK   12  A    between atoms: O_14  and  C_7 
ROOT
HETATM    1  C   UNK N   1      28.525  18.721   8.554  0.00  0.00     0.181 C 
ENDROOT
BRANCH   1   2
HETATM    2  C   UNK N   1      28.734  18.104   7.174  0.00  0.00     0.078 C 
BRANCH   2   3
HETATM    3  C   UNK N   1      27.671  18.498   6.148  0.00  0.00     0.176 C 
BRANCH   3   4
HETATM    4  C   UNK N   1      28.314  18.608   4.792  0.00  0.00     0.163 C 
HETATM    5  O   UNK N   1      28.740  17.616   4.220  0.00  0.00    -0.648 OA
BRANCH   4   6
HETATM    6  O   UNK N   1      28.419  19.813   4.197  0.00  0.00    -0.775 OA
HETATM    7  H   UNK N   1      28.550  19.914   3.275  0.00  0.00     0.167 HD
ENDBRANCH   4   6
ENDBRANCH   3   4
BRANCH   3   8
HETATM    8  N   UNK N   1      26.591  17.521   6.130  0.00  0.00    -0.417 N 
HETATM    9  H   UNK N   1      26.406  16.842   6.867  0.00  0.00     0.150 HD
HETATM   10  H   UNK N   1      25.974  17.515   5.318  0.00  0.00     0.150 HD
ENDBRANCH   3   8
ENDBRANCH   2   3
ENDBRANCH   1   2
BRANCH   1  11
HETATM   11  O   UNK N   1      27.441  18.126   9.204  0.00  0.00    -0.385 OA
HETATM   12  H   UNK N   1      26.955  18.327  10.019  0.00  0.00     0.211 HD
ENDBRANCH   1  11
BRANCH   1  13
HETATM   13  S   UNK N   1      30.060  18.536   9.528  0.00  0.00    -0.135 SA
BRANCH  13  14
HETATM   14  C   UNK N   1      30.961  17.563   8.270  0.00  0.00     0.112 C 
BRANCH  14  15
HETATM   15  C   UNK N   1      32.458  17.861   8.261  0.00  0.00     0.182 C 
BRANCH  15  16
HETATM   16  C   UNK N   1      33.059  17.675   6.890  0.00  0.00     0.163 C 
HETATM   17  O   UNK N   1      32.373  17.286   5.956  0.00  0.00    -0.648 OA
BRANCH  16  18
HETATM   18  O   UNK N   1      34.364  17.940   6.689  0.00  0.00    -0.775 OA
HETATM   19  H   UNK N   1      34.996  17.956   7.380  0.00  0.00     0.167 HD
ENDBRANCH  16  18
ENDBRANCH  15  16
BRANCH  15  20
HETATM   20  N   UNK N   1      33.128  17.019   9.242  0.00  0.00    -0.417 N 
HETATM   21  H   UNK N   1      33.611  16.145   9.040  0.00  0.00     0.150 HD
HETATM   22  H   UNK N   1      33.110  17.330  10.214  0.00  0.00     0.150 HD
ENDBRANCH  15  20
ENDBRANCH  14  15
ENDBRANCH  13  14
ENDBRANCH   1  13
TORSDOF 12
ENDMDL
