MODEL 1
REMARK VINA RESULT:      -7.5      0.000      0.000
REMARK  5 active torsions:
REMARK  status: ('A' for Active; 'I' for Inactive)
REMARK       I    between atoms: N_15  and  C_1 
REMARK    1  A    between atoms: C_7  and  O_16 
REMARK    2  A    between atoms: C_24  and  S_10 
REMARK    3  A    between atoms: S_10  and  N_11 
REMARK       I    between atoms: N_11  and  C_14 
REMARK       I    between atoms: C_14  and  N_15 
REMARK    4  A    between atoms: C_25  and  C_20 
REMARK    5  A    between atoms: C_20  and  O_21 
ROOT
HETATM    1  C   UNK N   1      20.328  17.073   3.231  0.00  0.00     0.692 A 
HETATM    2  N   UNK N   1      19.790  16.302   2.247  0.00  0.00    -0.180 N 
ATOM      3  HN  UNK N   1      19.490  15.350   2.457  1.00  0.00     0.185 HD
HETATM    4  C   UNK N   1      19.652  16.793   0.991  0.00  0.00     0.096 A 
HETATM    5  N   UNK N   1      20.080  18.047   0.701  0.00  0.00    -0.311 N 
ATOM      6  HN  UNK N   1      19.989  18.410  -0.248  1.00  0.00     0.170 HD
HETATM    7  C   UNK N   1      20.631  18.821   1.675  0.00  0.00     0.238 A 
HETATM    8  N   UNK N   1      20.736  18.337   2.937  0.00  0.00    -0.154 N 
ATOM      9  HN  UNK N   1      21.126  18.926   3.672  1.00  0.00     0.188 HD
HETATM   10  N   UNK N   1      20.821  14.795   6.085  0.00  0.00    -0.231 N 
HETATM   11  C   UNK N   1      20.517  15.219   4.833  0.00  0.00     0.350 C 
HETATM   12  N   UNK N   1      20.510  16.562   4.557  0.00  0.00    -0.136 N 
HETATM   13  O   UNK N   1      20.340  14.398   3.944  0.00  0.00    -0.245 OA
HETATM   14  C   UNK N   1      19.034  15.955  -0.070  0.00  0.00     0.089 C 
HETATM   15  C   UNK N   1      20.829  17.499   5.612  0.00  0.00     0.180 C 
HETATM   16  H   UNK N   1      20.802  15.447   6.824  0.00  0.00     0.183 HD
ENDROOT
BRANCH  10  17
HETATM   17  S   UNK N   1      21.247  13.127   6.442  0.00  0.00     0.267 S 
HETATM   18  O   UNK N   1      20.024  12.292   6.026  0.00  0.00    -0.200 OA
HETATM   19  O   UNK N   1      22.272  12.753   5.360  0.00  0.00    -0.200 OA
BRANCH  17  20
HETATM   20  C   UNK N   1      21.866  12.716   8.084  0.00  0.00     0.096 A 
HETATM   21  C   UNK N   1      21.405  13.319   9.296  0.00  0.00     0.062 A 
HETATM   22  C   UNK N   1      21.964  12.888  10.512  0.00  0.00     0.019 A 
HETATM   23  C   UNK N   1      22.959  11.913  10.548  0.00  0.00     0.001 A 
HETATM   24  C   UNK N   1      23.414  11.342   9.364  0.00  0.00     0.002 A 
HETATM   25  C   UNK N   1      22.866  11.737   8.146  0.00  0.00     0.026 A 
BRANCH  21  26
HETATM   26  C   UNK N   1      20.377  14.400   9.374  0.00  0.00     0.294 C 
HETATM   27  O   UNK N   1      19.270  14.137   9.827  0.00  0.00    -0.259 OA
BRANCH  26  28
HETATM   28  O   UNK N   1      20.661  15.668   9.003  0.00  0.00    -0.322 OA
HETATM   29  C   UNK N   1      19.693  16.640   8.889  0.00  0.00     0.213 C 
ENDBRANCH  26  28
ENDBRANCH  21  26
ENDBRANCH  17  20
ENDBRANCH  10  17
BRANCH   7  30
HETATM   30  O   UNK N   1      21.087  20.063   1.400  0.00  0.00    -0.327 OA
HETATM   31  C   UNK N   1      21.195  21.040   2.361  0.00  0.00     0.213 C 
ENDBRANCH   7  30
TORSDOF 5
ENDMDL
MODEL 2
REMARK VINA RESULT:      -7.3     13.748     16.505
REMARK  5 active torsions:
REMARK  status: ('A' for Active; 'I' for Inactive)
REMARK       I    between atoms: N_15  and  C_1 
REMARK    1  A    between atoms: C_7  and  O_16 
REMARK    2  A    between atoms: C_24  and  S_10 
REMARK    3  A    between atoms: S_10  and  N_11 
REMARK       I    between atoms: N_11  and  C_14 
REMARK       I    between atoms: C_14  and  N_15 
REMARK    4  A    between atoms: C_25  and  C_20 
REMARK    5  A    between atoms: C_20  and  O_21 
ROOT
HETATM    1  C   UNK N   1      36.338  14.305  11.417  0.00  0.00     0.692 A 
HETATM    2  N   UNK N   1      36.851  13.053  11.275  0.00  0.00    -0.180 N 
ATOM      3  HN  UNK N   1      36.962  12.654  10.342  1.00  0.00     0.185 HD
HETATM    4  C   UNK N   1      37.215  12.333  12.365  0.00  0.00     0.096 A 
HETATM    5  N   UNK N   1      37.038  12.848  13.608  0.00  0.00    -0.311 N 
ATOM      6  HN  UNK N   1      37.299  12.300  14.428  1.00  0.00     0.170 HD
HETATM    7  C   UNK N   1      36.514  14.094  13.761  0.00  0.00     0.238 A 
HETATM    8  N   UNK N   1      36.182  14.821  12.666  0.00  0.00    -0.154 N 
ATOM      9  HN  UNK N   1      35.813  15.765  12.781  1.00  0.00     0.188 HD
HETATM   10  N   UNK N   1      35.143  15.248   8.062  0.00  0.00    -0.231 N 
HETATM   11  C   UNK N   1      35.657  14.493   9.063  0.00  0.00     0.350 C 
HETATM   12  N   UNK N   1      35.920  15.068  10.280  0.00  0.00    -0.136 N 
HETATM   13  O   UNK N   1      35.798  13.289   8.899  0.00  0.00    -0.245 OA
HETATM   14  C   UNK N   1      37.805  10.980  12.198  0.00  0.00     0.089 C 
HETATM   15  C   UNK N   1      35.640  16.475  10.467  0.00  0.00     0.180 C 
HETATM   16  H   UNK N   1      35.183  16.230   8.140  0.00  0.00     0.183 HD
ENDROOT
BRANCH  10  17
HETATM   17  S   UNK N   1      34.407  14.547   6.628  0.00  0.00     0.267 S 
HETATM   18  O   UNK N   1      35.453  13.571   6.065  0.00  0.00    -0.200 OA
HETATM   19  O   UNK N   1      33.337  13.589   7.175  0.00  0.00    -0.200 OA
BRANCH  17  20
HETATM   20  C   UNK N   1      33.709  15.643   5.378  0.00  0.00     0.096 A 
HETATM   21  C   UNK N   1      33.361  17.011   5.607  0.00  0.00     0.062 A 
HETATM   22  C   UNK N   1      32.842  17.757   4.534  0.00  0.00     0.019 A 
HETATM   23  C   UNK N   1      32.646  17.183   3.279  0.00  0.00     0.001 A 
HETATM   24  C   UNK N   1      32.971  15.847   3.068  0.00  0.00     0.002 A 
HETATM   25  C   UNK N   1      33.503  15.089   4.109  0.00  0.00     0.026 A 
BRANCH  21  26
HETATM   26  C   UNK N   1      33.489  17.716   6.917  0.00  0.00     0.294 C 
HETATM   27  O   UNK N   1      34.570  18.200   7.230  0.00  0.00    -0.259 OA
BRANCH  26  28
HETATM   28  O   UNK N   1      32.426  17.875   7.737  0.00  0.00    -0.322 OA
HETATM   29  C   UNK N   1      31.798  16.814   8.350  0.00  0.00     0.213 C 
ENDBRANCH  26  28
ENDBRANCH  21  26
ENDBRANCH  17  20
ENDBRANCH  10  17
BRANCH   7  30
HETATM   30  O   UNK N   1      36.306  14.613  14.991  0.00  0.00    -0.327 OA
HETATM   31  C   UNK N   1      37.322  15.143  15.751  0.00  0.00     0.213 C 
ENDBRANCH   7  30
TORSDOF 5
ENDMDL
MODEL 3
REMARK VINA RESULT:      -7.3     12.487     15.358
REMARK  5 active torsions:
REMARK  status: ('A' for Active; 'I' for Inactive)
REMARK       I    between atoms: N_15  and  C_1 
REMARK    1  A    between atoms: C_7  and  O_16 
REMARK    2  A    between atoms: C_24  and  S_10 
REMARK    3  A    between atoms: S_10  and  N_11 
REMARK       I    between atoms: N_11  and  C_14 
REMARK       I    between atoms: C_14  and  N_15 
REMARK    4  A    between atoms: C_25  and  C_20 
REMARK    5  A    between atoms: C_20  and  O_21 
ROOT
HETATM    1  C   UNK N   1      34.798  14.094  10.997  0.00  0.00     0.692 A 
HETATM    2  N   UNK N   1      34.321  12.957  10.421  0.00  0.00    -0.180 N 
ATOM      3  HN  UNK N   1      33.768  13.015   9.566  1.00  0.00     0.185 HD
HETATM    4  C   UNK N   1      34.578  11.747  10.979  0.00  0.00     0.096 A 
HETATM    5  N   UNK N   1      35.285  11.669  12.134  0.00  0.00    -0.311 N 
ATOM      6  HN  UNK N   1      35.465  10.760  12.560  1.00  0.00     0.170 HD
HETATM    7  C   UNK N   1      35.755  12.801  12.723  0.00  0.00     0.238 A 
HETATM    8  N   UNK N   1      35.524  14.005  12.144  0.00  0.00    -0.154 N 
ATOM      9  HN  UNK N   1      35.897  14.852  12.573  1.00  0.00     0.188 HD
HETATM   10  N   UNK N   1      33.181  16.854   9.167  0.00  0.00    -0.231 N 
HETATM   11  C   UNK N   1      33.481  15.591   9.560  0.00  0.00     0.350 C 
HETATM   12  N   UNK N   1      34.512  15.382  10.439  0.00  0.00    -0.136 N 
HETATM   13  O   UNK N   1      32.773  14.662   9.196  0.00  0.00    -0.245 OA
HETATM   14  C   UNK N   1      34.081  10.509  10.326  0.00  0.00     0.089 C 
HETATM   15  C   UNK N   1      35.259  16.520  10.930  0.00  0.00     0.180 C 
HETATM   16  H   UNK N   1      33.840  17.569   9.328  0.00  0.00     0.183 HD
ENDROOT
BRANCH  10  17
HETATM   17  S   UNK N   1      31.663  17.267   8.382  0.00  0.00     0.267 S 
HETATM   18  O   UNK N   1      30.584  16.464   9.126  0.00  0.00    -0.200 OA
HETATM   19  O   UNK N   1      31.370  18.702   8.845  0.00  0.00    -0.200 OA
BRANCH  17  20
HETATM   20  C   UNK N   1      31.543  17.133   6.588  0.00  0.00     0.096 A 
HETATM   21  C   UNK N   1      32.666  17.064   5.705  0.00  0.00     0.062 A 
HETATM   22  C   UNK N   1      32.425  16.942   4.326  0.00  0.00     0.019 A 
HETATM   23  C   UNK N   1      31.129  16.909   3.816  0.00  0.00     0.001 A 
HETATM   24  C   UNK N   1      30.041  16.993   4.679  0.00  0.00     0.002 A 
HETATM   25  C   UNK N   1      30.249  17.098   6.052  0.00  0.00     0.026 A 
BRANCH  21  26
HETATM   26  C   UNK N   1      34.094  17.132   6.136  0.00  0.00     0.294 C 
HETATM   27  O   UNK N   1      34.460  18.063   6.843  0.00  0.00    -0.259 OA
BRANCH  26  28
HETATM   28  O   UNK N   1      34.975  16.161   5.805  0.00  0.00    -0.322 OA
HETATM   29  C   UNK N   1      35.326  15.152   6.672  0.00  0.00     0.213 C 
ENDBRANCH  26  28
ENDBRANCH  21  26
ENDBRANCH  17  20
ENDBRANCH  10  17
BRANCH   7  30
HETATM   30  O   UNK N   1      36.439  12.746  13.887  0.00  0.00    -0.327 OA
HETATM   31  C   UNK N   1      36.563  13.830  14.724  0.00  0.00     0.213 C 
ENDBRANCH   7  30
TORSDOF 5
ENDMDL
MODEL 4
REMARK VINA RESULT:      -7.2      3.405      3.944
REMARK  5 active torsions:
REMARK  status: ('A' for Active; 'I' for Inactive)
REMARK       I    between atoms: N_15  and  C_1 
REMARK    1  A    between atoms: C_7  and  O_16 
REMARK    2  A    between atoms: C_24  and  S_10 
REMARK    3  A    between atoms: S_10  and  N_11 
REMARK       I    between atoms: N_11  and  C_14 
REMARK       I    between atoms: C_14  and  N_15 
REMARK    4  A    between atoms: C_25  and  C_20 
REMARK    5  A    between atoms: C_20  and  O_21 
ROOT
HETATM    1  C   UNK N   1      24.234  17.403   4.967  0.00  0.00     0.692 A 
HETATM    2  N   UNK N   1      25.164  16.648   4.320  0.00  0.00    -0.180 N 
ATOM      3  HN  UNK N   1      24.944  15.687   4.061  1.00  0.00     0.185 HD
HETATM    4  C   UNK N   1      26.379  17.169   4.019  0.00  0.00     0.096 A 
HETATM    5  N   UNK N   1      26.685  18.437   4.391  0.00  0.00    -0.311 N 
ATOM      6  HN  UNK N   1      27.605  18.823   4.177  1.00  0.00     0.170 HD
HETATM    7  C   UNK N   1      25.767  19.195   5.049  0.00  0.00     0.238 A 
HETATM    8  N   UNK N   1      24.542  18.680   5.319  0.00  0.00    -0.154 N 
ATOM      9  HN  UNK N   1      23.845  19.257   5.790  1.00  0.00     0.188 HD
HETATM   10  N   UNK N   1      21.528  15.061   5.844  0.00  0.00    -0.231 N 
HETATM   11  C   UNK N   1      22.720  15.512   5.380  0.00  0.00     0.350 C 
HETATM   12  N   UNK N   1      22.956  16.861   5.320  0.00  0.00    -0.136 N 
HETATM   13  O   UNK N   1      23.601  14.711   5.103  0.00  0.00    -0.245 OA
HETATM   14  C   UNK N   1      27.376  16.349   3.284  0.00  0.00     0.089 C 
HETATM   15  C   UNK N   1      21.923  17.775   5.757  0.00  0.00     0.180 C 
HETATM   16  H   UNK N   1      20.775  15.693   5.910  0.00  0.00     0.183 HD
ENDROOT
BRANCH  10  17
HETATM   17  S   UNK N   1      21.273  13.391   6.333  0.00  0.00     0.267 S 
HETATM   18  O   UNK N   1      19.775  13.123   6.113  0.00  0.00    -0.200 OA
HETATM   19  O   UNK N   1      21.915  12.561   5.211  0.00  0.00    -0.200 OA
BRANCH  17  20
HETATM   20  C   UNK N   1      21.864  12.854   7.949  0.00  0.00     0.096 A 
HETATM   21  C   UNK N   1      21.418  13.397   9.195  0.00  0.00     0.062 A 
HETATM   22  C   UNK N   1      21.952  12.869  10.383  0.00  0.00     0.019 A 
HETATM   23  C   UNK N   1      22.908  11.857  10.362  0.00  0.00     0.001 A 
HETATM   24  C   UNK N   1      23.350  11.345   9.147  0.00  0.00     0.002 A 
HETATM   25  C   UNK N   1      22.827  11.837   7.953  0.00  0.00     0.026 A 
BRANCH  21  26
HETATM   26  C   UNK N   1      20.430  14.508   9.335  0.00  0.00     0.294 C 
HETATM   27  O   UNK N   1      19.333  14.272   9.826  0.00  0.00    -0.259 OA
BRANCH  26  28
HETATM   28  O   UNK N   1      20.742  15.775   8.980  0.00  0.00    -0.322 OA
HETATM   29  C   UNK N   1      19.786  16.706   8.643  0.00  0.00     0.213 C 
ENDBRANCH  26  28
ENDBRANCH  21  26
ENDBRANCH  17  20
ENDBRANCH  10  17
BRANCH   7  30
HETATM   30  O   UNK N   1      26.063  20.451   5.451  0.00  0.00    -0.327 OA
HETATM   31  C   UNK N   1      27.356  20.886   5.625  0.00  0.00     0.213 C 
ENDBRANCH   7  30
TORSDOF 5
ENDMDL
MODEL 5
REMARK VINA RESULT:      -7.1     12.227     15.106
REMARK  5 active torsions:
REMARK  status: ('A' for Active; 'I' for Inactive)
REMARK       I    between atoms: N_15  and  C_1 
REMARK    1  A    between atoms: C_7  and  O_16 
REMARK    2  A    between atoms: C_24  and  S_10 
REMARK    3  A    between atoms: S_10  and  N_11 
REMARK       I    between atoms: N_11  and  C_14 
REMARK       I    between atoms: C_14  and  N_15 
REMARK    4  A    between atoms: C_25  and  C_20 
REMARK    5  A    between atoms: C_20  and  O_21 
ROOT
HETATM    1  C   UNK N   1      34.955  14.080  11.156  0.00  0.00     0.692 A 
HETATM    2  N   UNK N   1      34.546  12.882  10.655  0.00  0.00    -0.180 N 
ATOM      3  HN  UNK N   1      34.358  12.788   9.657  1.00  0.00     0.185 HD
HETATM    4  C   UNK N   1      34.388  11.815  11.477  0.00  0.00     0.096 A 
HETATM    5  N   UNK N   1      34.605  11.945  12.809  0.00  0.00    -0.311 N 
ATOM      6  HN  UNK N   1      34.472  11.146  13.428  1.00  0.00     0.170 HD
HETATM    7  C   UNK N   1      35.001  13.142  13.321  0.00  0.00     0.238 A 
HETATM    8  N   UNK N   1      35.190  14.197  12.491  0.00  0.00    -0.154 N 
ATOM      9  HN  UNK N   1      35.511  15.088  12.871  1.00  0.00     0.188 HD
HETATM   10  N   UNK N   1      34.572  16.470   8.378  0.00  0.00    -0.231 N 
HETATM   11  C   UNK N   1      34.504  15.310   9.076  0.00  0.00     0.350 C 
HETATM   12  N   UNK N   1      35.098  15.226  10.309  0.00  0.00    -0.136 N 
HETATM   13  O   UNK N   1      33.840  14.380   8.639  0.00  0.00    -0.245 OA
HETATM   14  C   UNK N   1      33.973  10.503  10.916  0.00  0.00     0.089 C 
HETATM   15  C   UNK N   1      35.785  16.384  10.838  0.00  0.00     0.180 C 
HETATM   16  H   UNK N   1      35.232  17.150   8.650  0.00  0.00     0.183 HD
ENDROOT
BRANCH  10  17
HETATM   17  S   UNK N   1      33.529  16.810   7.004  0.00  0.00     0.267 S 
HETATM   18  O   UNK N   1      34.284  17.853   6.163  0.00  0.00    -0.200 OA
HETATM   19  O   UNK N   1      33.632  15.555   6.124  0.00  0.00    -0.200 OA
BRANCH  17  20
HETATM   20  C   UNK N   1      31.805  17.247   7.302  0.00  0.00     0.096 A 
HETATM   21  C   UNK N   1      30.762  17.127   6.332  0.00  0.00     0.062 A 
HETATM   22  C   UNK N   1      29.456  17.487   6.707  0.00  0.00     0.019 A 
HETATM   23  C   UNK N   1      29.175  17.970   7.984  0.00  0.00     0.001 A 
HETATM   24  C   UNK N   1      30.197  18.099   8.917  0.00  0.00     0.002 A 
HETATM   25  C   UNK N   1      31.498  17.734   8.579  0.00  0.00     0.026 A 
BRANCH  21  26
HETATM   26  C   UNK N   1      30.954  16.663   4.925  0.00  0.00     0.294 C 
HETATM   27  O   UNK N   1      30.547  15.553   4.604  0.00  0.00    -0.259 OA
BRANCH  26  28
HETATM   28  O   UNK N   1      31.521  17.460   3.992  0.00  0.00    -0.322 OA
HETATM   29  C   UNK N   1      32.488  17.011   3.122  0.00  0.00     0.213 C 
ENDBRANCH  26  28
ENDBRANCH  21  26
ENDBRANCH  17  20
ENDBRANCH  10  17
BRANCH   7  30
HETATM   30  O   UNK N   1      35.197  13.299  14.649  0.00  0.00    -0.327 OA
HETATM   31  C   UNK N   1      36.385  13.754  15.171  0.00  0.00     0.213 C 
ENDBRANCH   7  30
TORSDOF 5
ENDMDL
MODEL 6
REMARK VINA RESULT:      -7.0      2.777      7.073
REMARK  5 active torsions:
REMARK  status: ('A' for Active; 'I' for Inactive)
REMARK       I    between atoms: N_15  and  C_1 
REMARK    1  A    between atoms: C_7  and  O_16 
REMARK    2  A    between atoms: C_24  and  S_10 
REMARK    3  A    between atoms: S_10  and  N_11 
REMARK       I    between atoms: N_11  and  C_14 
REMARK       I    between atoms: C_14  and  N_15 
REMARK    4  A    between atoms: C_25  and  C_20 
REMARK    5  A    between atoms: C_20  and  O_21 
ROOT
HETATM    1  C   UNK N   1      21.586  16.584   6.198  0.00  0.00     0.692 A 
HETATM    2  N   UNK N   1      21.355  15.425   6.871  0.00  0.00    -0.180 N 
ATOM      3  HN  UNK N   1      21.638  14.535   6.461  1.00  0.00     0.185 HD
HETATM    4  C   UNK N   1      20.752  15.447   8.086  0.00  0.00     0.096 A 
HETATM    5  N   UNK N   1      20.345  16.626   8.620  0.00  0.00    -0.311 N 
ATOM      6  HN  UNK N   1      19.878  16.641   9.527  1.00  0.00     0.170 HD
HETATM    7  C   UNK N   1      20.561  17.789   7.948  0.00  0.00     0.238 A 
HETATM    8  N   UNK N   1      21.194  17.764   6.749  0.00  0.00    -0.154 N 
ATOM      9  HN  UNK N   1      21.378  18.638   6.257  1.00  0.00     0.188 HD
HETATM   10  N   UNK N   1      22.715  15.545   2.847  0.00  0.00    -0.231 N 
HETATM   11  C   UNK N   1      22.240  15.456   4.114  0.00  0.00     0.350 C 
HETATM   12  N   UNK N   1      22.195  16.578   4.901  0.00  0.00    -0.136 N 
HETATM   13  O   UNK N   1      21.775  14.397   4.511  0.00  0.00    -0.245 OA
HETATM   14  C   UNK N   1      20.533  14.180   8.829  0.00  0.00     0.089 C 
HETATM   15  C   UNK N   1      22.657  17.837   4.357  0.00  0.00     0.180 C 
HETATM   16  H   UNK N   1      23.230  16.345   2.589  0.00  0.00     0.183 HD
ENDROOT
BRANCH  10  17
HETATM   17  S   UNK N   1      22.448  14.291   1.645  0.00  0.00     0.267 S 
HETATM   18  O   UNK N   1      23.454  14.579   0.519  0.00  0.00    -0.200 OA
HETATM   19  O   UNK N   1      23.034  13.020   2.280  0.00  0.00    -0.200 OA
BRANCH  17  20
HETATM   20  C   UNK N   1      20.773  13.996   1.046  0.00  0.00     0.096 A 
HETATM   21  C   UNK N   1      19.848  15.028   0.690  0.00  0.00     0.062 A 
HETATM   22  C   UNK N   1      18.578  14.653   0.219  0.00  0.00     0.019 A 
HETATM   23  C   UNK N   1      18.208  13.314   0.117  0.00  0.00     0.001 A 
HETATM   24  C   UNK N   1      19.106  12.316   0.481  0.00  0.00     0.002 A 
HETATM   25  C   UNK N   1      20.378  12.657   0.935  0.00  0.00     0.026 A 
BRANCH  21  26
HETATM   26  C   UNK N   1      20.122  16.492   0.798  0.00  0.00     0.294 C 
HETATM   27  O   UNK N   1      20.327  17.136  -0.223  0.00  0.00    -0.259 OA
BRANCH  26  28
HETATM   28  O   UNK N   1      20.096  17.126   1.992  0.00  0.00    -0.322 OA
HETATM   29  C   UNK N   1      19.943  18.489   2.104  0.00  0.00     0.213 C 
ENDBRANCH  26  28
ENDBRANCH  21  26
ENDBRANCH  17  20
ENDBRANCH  10  17
BRANCH   7  30
HETATM   30  O   UNK N   1      20.140  18.970   8.452  0.00  0.00    -0.327 OA
HETATM   31  C   UNK N   1      19.615  19.089   9.717  0.00  0.00     0.213 C 
ENDBRANCH   7  30
TORSDOF 5
ENDMDL
MODEL 7
REMARK VINA RESULT:      -7.0      5.884      8.074
REMARK  5 active torsions:
REMARK  status: ('A' for Active; 'I' for Inactive)
REMARK       I    between atoms: N_15  and  C_1 
REMARK    1  A    between atoms: C_7  and  O_16 
REMARK    2  A    between atoms: C_24  and  S_10 
REMARK    3  A    between atoms: S_10  and  N_11 
REMARK       I    between atoms: N_11  and  C_14 
REMARK       I    between atoms: C_14  and  N_15 
REMARK    4  A    between atoms: C_25  and  C_20 
REMARK    5  A    between atoms: C_20  and  O_21 
ROOT
HETATM    1  C   UNK N   1      27.635  17.551   4.361  0.00  0.00     0.692 A 
HETATM    2  N   UNK N   1      27.536  16.600   3.393  0.00  0.00    -0.180 N 
ATOM      3  HN  UNK N   1      26.623  16.373   2.998  1.00  0.00     0.185 HD
HETATM    4  C   UNK N   1      28.644  15.955   2.951  0.00  0.00     0.096 A 
HETATM    5  N   UNK N   1      29.854  16.232   3.497  0.00  0.00    -0.311 N 
ATOM      6  HN  UNK N   1      30.684  15.736   3.174  1.00  0.00     0.170 HD
HETATM    7  C   UNK N   1      29.961  17.172   4.475  0.00  0.00     0.238 A 
HETATM    8  N   UNK N   1      28.855  17.837   4.890  0.00  0.00    -0.154 N 
ATOM      9  HN  UNK N   1      28.940  18.559   5.605  1.00  0.00     0.188 HD
HETATM   10  N   UNK N   1      24.160  18.336   5.304  0.00  0.00    -0.231 N 
HETATM   11  C   UNK N   1      25.206  17.722   4.698  0.00  0.00     0.350 C 
HETATM   12  N   UNK N   1      26.473  18.222   4.862  0.00  0.00    -0.136 N 
HETATM   13  O   UNK N   1      25.021  16.681   4.084  0.00  0.00    -0.245 OA
HETATM   14  C   UNK N   1      28.530  14.941   1.870  0.00  0.00     0.089 C 
HETATM   15  C   UNK N   1      26.663  19.397   5.685  0.00  0.00     0.180 C 
HETATM   16  H   UNK N   1      24.285  19.249   5.655  0.00  0.00     0.183 HD
ENDROOT
BRANCH  10  17
HETATM   17  S   UNK N   1      22.590  17.569   5.489  0.00  0.00     0.267 S 
HETATM   18  O   UNK N   1      22.857  16.267   6.262  0.00  0.00    -0.200 OA
HETATM   19  O   UNK N   1      21.867  18.423   6.543  0.00  0.00    -0.200 OA
BRANCH  17  20
HETATM   20  C   UNK N   1      21.554  17.335   4.032  0.00  0.00     0.096 A 
HETATM   21  C   UNK N   1      21.036  18.398   3.229  0.00  0.00     0.062 A 
HETATM   22  C   UNK N   1      20.256  18.069   2.107  0.00  0.00     0.019 A 
HETATM   23  C   UNK N   1      19.969  16.745   1.786  0.00  0.00     0.001 A 
HETATM   24  C   UNK N   1      20.463  15.715   2.580  0.00  0.00     0.002 A 
HETATM   25  C   UNK N   1      21.253  16.010   3.689  0.00  0.00     0.026 A 
BRANCH  21  26
HETATM   26  C   UNK N   1      21.244  19.852   3.502  0.00  0.00     0.294 C 
HETATM   27  O   UNK N   1      20.267  20.572   3.671  0.00  0.00    -0.259 OA
BRANCH  26  28
HETATM   28  O   UNK N   1      22.485  20.375   3.617  0.00  0.00    -0.322 OA
HETATM   29  C   UNK N   1      23.318  20.551   2.536  0.00  0.00     0.213 C 
ENDBRANCH  26  28
ENDBRANCH  21  26
ENDBRANCH  17  20
ENDBRANCH  10  17
BRANCH   7  30
HETATM   30  O   UNK N   1      31.154  17.443   5.049  0.00  0.00    -0.327 OA
HETATM   31  C   UNK N   1      32.297  17.653   4.314  0.00  0.00     0.213 C 
ENDBRANCH   7  30
TORSDOF 5
ENDMDL
MODEL 8
REMARK VINA RESULT:      -7.0      3.604      4.526
REMARK  5 active torsions:
REMARK  status: ('A' for Active; 'I' for Inactive)
REMARK       I    between atoms: N_15  and  C_1 
REMARK    1  A    between atoms: C_7  and  O_16 
REMARK    2  A    between atoms: C_24  and  S_10 
REMARK    3  A    between atoms: S_10  and  N_11 
REMARK       I    between atoms: N_11  and  C_14 
REMARK       I    between atoms: C_14  and  N_15 
REMARK    4  A    between atoms: C_25  and  C_20 
REMARK    5  A    between atoms: C_20  and  O_21 
ROOT
HETATM    1  C   UNK N   1      24.108  18.107   4.540  0.00  0.00     0.692 A 
HETATM    2  N   UNK N   1      24.936  17.032   4.640  0.00  0.00    -0.180 N 
ATOM      3  HN  UNK N   1      24.550  16.090   4.596  1.00  0.00     0.185 HD
HETATM    4  C   UNK N   1      26.271  17.209   4.797  0.00  0.00     0.096 A 
HETATM    5  N   UNK N   1      26.785  18.461   4.889  0.00  0.00    -0.311 N 
ATOM      6  HN  UNK N   1      27.787  18.592   5.022  1.00  0.00     0.170 HD
HETATM    7  C   UNK N   1      25.963  19.542   4.803  0.00  0.00     0.238 A 
HETATM    8  N   UNK N   1      24.633  19.360   4.613  0.00  0.00    -0.154 N 
ATOM      9  HN  UNK N   1      24.021  20.171   4.524  1.00  0.00     0.188 HD
HETATM   10  N   UNK N   1      20.698  16.720   4.701  0.00  0.00    -0.231 N 
HETATM   11  C   UNK N   1      22.053  16.773   4.731  0.00  0.00     0.350 C 
HETATM   12  N   UNK N   1      22.692  17.942   4.404  0.00  0.00    -0.136 N 
HETATM   13  O   UNK N   1      22.686  15.807   5.132  0.00  0.00    -0.245 OA
HETATM   14  C   UNK N   1      27.172  16.029   4.873  0.00  0.00     0.089 C 
HETATM   15  C   UNK N   1      21.901  19.095   4.035  0.00  0.00     0.180 C 
HETATM   16  H   UNK N   1      20.206  17.431   4.229  0.00  0.00     0.183 HD
ENDROOT
BRANCH  10  17
HETATM   17  S   UNK N   1      19.784  15.431   5.471  0.00  0.00     0.267 S 
HETATM   18  O   UNK N   1      18.330  15.928   5.516  0.00  0.00    -0.200 OA
HETATM   19  O   UNK N   1      19.711  14.324   4.408  0.00  0.00    -0.200 OA
BRANCH  17  20
HETATM   20  C   UNK N   1      20.361  14.771   7.047  0.00  0.00     0.096 A 
HETATM   21  C   UNK N   1      20.412  15.518   8.266  0.00  0.00     0.062 A 
HETATM   22  C   UNK N   1      20.867  14.870   9.427  0.00  0.00     0.019 A 
HETATM   23  C   UNK N   1      21.283  13.541   9.401  0.00  0.00     0.001 A 
HETATM   24  C   UNK N   1      21.248  12.825   8.209  0.00  0.00     0.002 A 
HETATM   25  C   UNK N   1      20.785  13.436   7.046  0.00  0.00     0.026 A 
BRANCH  21  26
HETATM   26  C   UNK N   1      20.031  16.955   8.402  0.00  0.00     0.294 C 
HETATM   27  O   UNK N   1      20.655  17.799   7.769  0.00  0.00    -0.259 OA
BRANCH  26  28
HETATM   28  O   UNK N   1      18.983  17.337   9.166  0.00  0.00    -0.322 OA
HETATM   29  C   UNK N   1      17.680  17.053   8.830  0.00  0.00     0.213 C 
ENDBRANCH  26  28
ENDBRANCH  21  26
ENDBRANCH  17  20
ENDBRANCH  10  17
BRANCH   7  30
HETATM   30  O   UNK N   1      26.452  20.796   4.918  0.00  0.00    -0.327 OA
HETATM   31  C   UNK N   1      26.632  21.410   6.136  0.00  0.00     0.213 C 
ENDBRANCH   7  30
TORSDOF 5
ENDMDL
MODEL 9
REMARK VINA RESULT:      -7.0      2.599      3.475
REMARK  5 active torsions:
REMARK  status: ('A' for Active; 'I' for Inactive)
REMARK       I    between atoms: N_15  and  C_1 
REMARK    1  A    between atoms: C_7  and  O_16 
REMARK    2  A    between atoms: C_24  and  S_10 
REMARK    3  A    between atoms: S_10  and  N_11 
REMARK       I    between atoms: N_11  and  C_14 
REMARK       I    between atoms: C_14  and  N_15 
REMARK    4  A    between atoms: C_25  and  C_20 
REMARK    5  A    between atoms: C_20  and  O_21 
ROOT
HETATM    1  C   UNK N   1      23.238  18.037   3.950  0.00  0.00     0.692 A 
HETATM    2  N   UNK N   1      24.573  18.296   3.981  0.00  0.00    -0.180 N 
ATOM      3  HN  UNK N   1      25.220  17.583   4.319  1.00  0.00     0.185 HD
HETATM    4  C   UNK N   1      25.048  19.496   3.564  0.00  0.00     0.096 A 
HETATM    5  N   UNK N   1      24.188  20.458   3.145  0.00  0.00    -0.311 N 
ATOM      6  HN  UNK N   1      24.544  21.365   2.846  1.00  0.00     0.170 HD
HETATM    7  C   UNK N   1      22.850  20.213   3.123  0.00  0.00     0.238 A 
HETATM    8  N   UNK N   1      22.384  18.999   3.510  0.00  0.00    -0.154 N 
ATOM      9  HN  UNK N   1      21.383  18.807   3.469  1.00  0.00     0.188 HD
HETATM   10  N   UNK N   1      22.832  14.842   5.741  0.00  0.00    -0.231 N 
HETATM   11  C   UNK N   1      23.428  15.949   5.233  0.00  0.00     0.350 C 
HETATM   12  N   UNK N   1      22.715  16.786   4.414  0.00  0.00    -0.136 N 
HETATM   13  O   UNK N   1      24.565  16.236   5.582  0.00  0.00    -0.245 OA
HETATM   14  C   UNK N   1      26.510  19.759   3.571  0.00  0.00     0.089 C 
HETATM   15  C   UNK N   1      21.338  16.467   4.110  0.00  0.00     0.180 C 
HETATM   16  H   UNK N   1      21.988  14.531   5.338  0.00  0.00     0.183 HD
ENDROOT
BRANCH  10  17
HETATM   17  S   UNK N   1      23.505  13.939   7.091  0.00  0.00     0.267 S 
HETATM   18  O   UNK N   1      24.177  12.706   6.466  0.00  0.00    -0.200 OA
HETATM   19  O   UNK N   1      24.716  14.770   7.542  0.00  0.00    -0.200 OA
BRANCH  17  20
HETATM   20  C   UNK N   1      22.442  13.540   8.492  0.00  0.00     0.096 A 
HETATM   21  C   UNK N   1      21.208  14.200   8.784  0.00  0.00     0.062 A 
HETATM   22  C   UNK N   1      20.470  13.772   9.901  0.00  0.00     0.019 A 
HETATM   23  C   UNK N   1      20.928  12.745  10.724  0.00  0.00     0.001 A 
HETATM   24  C   UNK N   1      22.137  12.119  10.443  0.00  0.00     0.002 A 
HETATM   25  C   UNK N   1      22.882  12.510   9.333  0.00  0.00     0.026 A 
BRANCH  21  26
HETATM   26  C   UNK N   1      20.642  15.336   7.998  0.00  0.00     0.294 C 
HETATM   27  O   UNK N   1      19.956  15.095   7.012  0.00  0.00    -0.259 OA
BRANCH  26  28
HETATM   28  O   UNK N   1      20.829  16.619   8.381  0.00  0.00    -0.322 OA
HETATM   29  C   UNK N   1      19.783  17.462   8.681  0.00  0.00     0.213 C 
ENDBRANCH  26  28
ENDBRANCH  21  26
ENDBRANCH  17  20
ENDBRANCH  10  17
BRANCH   7  30
HETATM   30  O   UNK N   1      21.975  21.166   2.734  0.00  0.00    -0.327 OA
HETATM   31  C   UNK N   1      20.826  20.875   2.037  0.00  0.00     0.213 C 
ENDBRANCH   7  30
TORSDOF 5
ENDMDL
