MODEL 1
REMARK VINA RESULT:      -4.0      0.000      0.000
REMARK  3 active torsions:
REMARK  status: ('A' for Active; 'I' for Inactive)
REMARK    1  A    between atoms: C_2  and  C_3 
REMARK    2  A    between atoms: C_2  and  C_5 
REMARK    3  A    between atoms: C_3  and  N_4 
ROOT
HETATM    1  C   UNK N   1      32.195  17.164   8.548  0.00  0.00     0.022 C 
HETATM    2  C   UNK N   1      33.693  17.239   8.761  0.00  0.00     0.100 C 
ENDROOT
BRANCH   2   3
HETATM    3  C   UNK N   1      34.269  16.319   9.844  0.00  0.00     0.126 C 
BRANCH   3   4
HETATM    4  N   UNK N   1      35.117  17.019  10.794  0.00  0.00    -0.429 N 
HETATM    5  H   UNK N   1      35.228  16.657  11.741  0.00  0.00     0.149 HD
HETATM    6  H   UNK N   1      35.601  17.871  10.514  0.00  0.00     0.149 HD
ENDBRANCH   3   4
ENDBRANCH   2   3
BRANCH   2   7
HETATM    7  C   UNK N   1      34.479  18.200   7.900  0.00  0.00     0.178 C 
HETATM    8  O   UNK N   1      35.228  19.157   8.481  0.00  0.00    -0.648 OA
HETATM    9  O   UNK N   1      34.446  18.123   6.682  0.00  0.00    -0.648 OA
ENDBRANCH   2   7
TORSDOF 3
ENDMDL
MODEL 2
REMARK VINA RESULT:      -3.5      2.080      2.602
REMARK  3 active torsions:
REMARK  status: ('A' for Active; 'I' for Inactive)
REMARK    1  A    between atoms: C_2  and  C_3 
REMARK    2  A    between atoms: C_2  and  C_5 
REMARK    3  A    between atoms: C_3  and  N_4 
ROOT
HETATM    1  C   UNK N   1      33.645  17.503   5.879  0.00  0.00     0.022 C 
HETATM    2  C   UNK N   1      33.299  17.598   7.351  0.00  0.00     0.100 C 
ENDROOT
BRANCH   2   3
HETATM    3  C   UNK N   1      31.872  17.192   7.738  0.00  0.00     0.126 C 
BRANCH   3   4
HETATM    4  N   UNK N   1      31.432  17.783   8.990  0.00  0.00    -0.429 N 
HETATM    5  H   UNK N   1      30.488  17.602   9.335  0.00  0.00     0.149 HD
HETATM    6  H   UNK N   1      32.064  18.377   9.524  0.00  0.00     0.149 HD
ENDBRANCH   3   4
ENDBRANCH   2   3
BRANCH   2   7
HETATM    7  C   UNK N   1      34.374  18.077   8.298  0.00  0.00     0.178 C 
HETATM    8  O   UNK N   1      34.513  17.491   9.502  0.00  0.00    -0.648 OA
HETATM    9  O   UNK N   1      35.123  18.990   7.987  0.00  0.00    -0.648 OA
ENDBRANCH   2   7
TORSDOF 3
ENDMDL
MODEL 3
REMARK VINA RESULT:      -3.5     14.245     15.103
REMARK  3 active torsions:
REMARK  status: ('A' for Active; 'I' for Inactive)
REMARK    1  A    between atoms: C_2  and  C_3 
REMARK    2  A    between atoms: C_2  and  C_5 
REMARK    3  A    between atoms: C_3  and  N_4 
ROOT
HETATM    1  C   UNK N   1      21.412  18.958   4.259  0.00  0.00     0.022 C 
HETATM    2  C   UNK N   1      20.733  19.446   2.995  0.00  0.00     0.100 C 
ENDROOT
BRANCH   2   3
HETATM    3  C   UNK N   1      19.368  18.826   2.678  0.00  0.00     0.126 C 
BRANCH   3   4
HETATM    4  N   UNK N   1      19.397  17.949   1.519  0.00  0.00    -0.429 N 
HETATM    5  H   UNK N   1      19.508  16.942   1.644  0.00  0.00     0.149 HD
HETATM    6  H   UNK N   1      19.307  18.339   0.582  0.00  0.00     0.149 HD
ENDBRANCH   3   4
ENDBRANCH   2   3
BRANCH   2   7
HETATM    7  C   UNK N   1      21.449  20.489   2.170  0.00  0.00     0.178 C 
HETATM    8  O   UNK N   1      21.316  20.488   0.830  0.00  0.00    -0.648 OA
HETATM    9  O   UNK N   1      22.151  21.336   2.700  0.00  0.00    -0.648 OA
ENDBRANCH   2   7
TORSDOF 3
ENDMDL
MODEL 4
REMARK VINA RESULT:      -3.3     12.203     13.099
REMARK  3 active torsions:
REMARK  status: ('A' for Active; 'I' for Inactive)
REMARK    1  A    between atoms: C_2  and  C_3 
REMARK    2  A    between atoms: C_2  and  C_5 
REMARK    3  A    between atoms: C_3  and  N_4 
ROOT
HETATM    1  C   UNK N   1      22.792  12.013  11.954  0.00  0.00     0.022 C 
HETATM    2  C   UNK N   1      22.675  12.549  10.542  0.00  0.00     0.100 C 
ENDROOT
BRANCH   2   3
HETATM    3  C   UNK N   1      23.990  12.926   9.850  0.00  0.00     0.126 C 
BRANCH   3   4
HETATM    4  N   UNK N   1      25.133  12.901  10.747  0.00  0.00    -0.429 N 
HETATM    5  H   UNK N   1      25.692  12.052  10.836  0.00  0.00     0.149 HD
HETATM    6  H   UNK N   1      25.376  13.731  11.287  0.00  0.00     0.149 HD
ENDBRANCH   3   4
ENDBRANCH   2   3
BRANCH   2   7
HETATM    7  C   UNK N   1      21.292  12.664   9.946  0.00  0.00     0.178 C 
HETATM    8  O   UNK N   1      21.131  12.583   8.611  0.00  0.00    -0.648 OA
HETATM    9  O   UNK N   1      20.314  12.831  10.657  0.00  0.00    -0.648 OA
ENDBRANCH   2   7
TORSDOF 3
ENDMDL
MODEL 5
REMARK VINA RESULT:      -3.3     12.736     13.440
REMARK  3 active torsions:
REMARK  status: ('A' for Active; 'I' for Inactive)
REMARK    1  A    between atoms: C_2  and  C_3 
REMARK    2  A    between atoms: C_2  and  C_5 
REMARK    3  A    between atoms: C_3  and  N_4 
ROOT
HETATM    1  C   UNK N   1      29.526  22.784  -4.854  0.00  0.00     0.022 C 
HETATM    2  C   UNK N   1      30.071  22.181  -3.575  0.00  0.00     0.100 C 
ENDROOT
BRANCH   2   3
HETATM    3  C   UNK N   1      30.987  20.962  -3.738  0.00  0.00     0.126 C 
BRANCH   3   4
HETATM    4  N   UNK N   1      32.181  21.034  -2.913  0.00  0.00    -0.429 N 
HETATM    5  H   UNK N   1      32.127  21.421  -1.970  0.00  0.00     0.149 HD
HETATM    6  H   UNK N   1      33.072  20.698  -3.276  0.00  0.00     0.149 HD
ENDBRANCH   3   4
ENDBRANCH   2   3
BRANCH   2   7
HETATM    7  C   UNK N   1      29.670  22.824  -2.268  0.00  0.00     0.178 C 
HETATM    8  O   UNK N   1      28.382  23.153  -2.054  0.00  0.00    -0.648 OA
HETATM    9  O   UNK N   1      30.498  23.051  -1.400  0.00  0.00    -0.648 OA
ENDBRANCH   2   7
TORSDOF 3
ENDMDL
MODEL 6
REMARK VINA RESULT:      -3.2     17.785     18.421
REMARK  3 active torsions:
REMARK  status: ('A' for Active; 'I' for Inactive)
REMARK    1  A    between atoms: C_2  and  C_3 
REMARK    2  A    between atoms: C_2  and  C_5 
REMARK    3  A    between atoms: C_3  and  N_4 
ROOT
HETATM    1  C   UNK N   1      26.895  28.317  -5.641  0.00  0.00     0.022 C 
HETATM    2  C   UNK N   1      26.085  27.140  -5.136  0.00  0.00     0.100 C 
ENDROOT
BRANCH   2   3
HETATM    3  C   UNK N   1      25.429  26.261  -6.206  0.00  0.00     0.126 C 
BRANCH   3   4
HETATM    4  N   UNK N   1      25.205  24.895  -5.763  0.00  0.00    -0.429 N 
HETATM    5  H   UNK N   1      25.930  24.190  -5.901  0.00  0.00     0.149 HD
HETATM    6  H   UNK N   1      24.326  24.642  -5.315  0.00  0.00     0.149 HD
ENDBRANCH   3   4
ENDBRANCH   2   3
BRANCH   2   7
HETATM    7  C   UNK N   1      25.997  26.937  -3.641  0.00  0.00     0.178 C 
HETATM    8  O   UNK N   1      25.494  27.914  -2.863  0.00  0.00    -0.648 OA
HETATM    9  O   UNK N   1      26.375  25.897  -3.125  0.00  0.00    -0.648 OA
ENDBRANCH   2   7
TORSDOF 3
ENDMDL
MODEL 7
REMARK VINA RESULT:      -3.2     17.554     18.199
REMARK  3 active torsions:
REMARK  status: ('A' for Active; 'I' for Inactive)
REMARK    1  A    between atoms: C_2  and  C_3 
REMARK    2  A    between atoms: C_2  and  C_5 
REMARK    3  A    between atoms: C_3  and  N_4 
ROOT
HETATM    1  C   UNK N   1      25.777  26.837  -6.675  0.00  0.00     0.022 C 
HETATM    2  C   UNK N   1      25.640  26.574  -5.188  0.00  0.00     0.100 C 
ENDROOT
BRANCH   2   3
HETATM    3  C   UNK N   1      25.465  27.808  -4.296  0.00  0.00     0.126 C 
BRANCH   3   4
HETATM    4  N   UNK N   1      25.856  27.573  -2.917  0.00  0.00    -0.429 N 
HETATM    5  H   UNK N   1      26.000  28.362  -2.286  0.00  0.00     0.149 HD
HETATM    6  H   UNK N   1      25.988  26.620  -2.579  0.00  0.00     0.149 HD
ENDBRANCH   3   4
ENDBRANCH   2   3
BRANCH   2   7
HETATM    7  C   UNK N   1      25.687  25.138  -4.722  0.00  0.00     0.178 C 
HETATM    8  O   UNK N   1      26.237  24.841  -3.529  0.00  0.00    -0.648 OA
HETATM    9  O   UNK N   1      25.233  24.238  -5.411  0.00  0.00    -0.648 OA
ENDBRANCH   2   7
TORSDOF 3
ENDMDL
MODEL 8
REMARK VINA RESULT:      -3.2     18.792     19.275
REMARK  3 active torsions:
REMARK  status: ('A' for Active; 'I' for Inactive)
REMARK    1  A    between atoms: C_2  and  C_3 
REMARK    2  A    between atoms: C_2  and  C_5 
REMARK    3  A    between atoms: C_3  and  N_4 
ROOT
HETATM    1  C   UNK N   1      24.924  26.852  -5.771  0.00  0.00     0.022 C 
HETATM    2  C   UNK N   1      25.998  27.836  -5.353  0.00  0.00     0.100 C 
ENDROOT
BRANCH   2   3
HETATM    3  C   UNK N   1      27.124  28.079  -6.364  0.00  0.00     0.126 C 
BRANCH   3   4
HETATM    4  N   UNK N   1      27.863  29.304  -6.110  0.00  0.00    -0.429 N 
HETATM    5  H   UNK N   1      28.859  29.353  -6.327  0.00  0.00     0.149 HD
HETATM    6  H   UNK N   1      27.387  30.115  -5.715  0.00  0.00     0.149 HD
ENDBRANCH   3   4
ENDBRANCH   2   3
BRANCH   2   7
HETATM    7  C   UNK N   1      25.868  28.484  -3.994  0.00  0.00     0.178 C 
HETATM    8  O   UNK N   1      26.244  29.766  -3.827  0.00  0.00    -0.648 OA
HETATM    9  O   UNK N   1      25.425  27.861  -3.042  0.00  0.00    -0.648 OA
ENDBRANCH   2   7
TORSDOF 3
ENDMDL
MODEL 9
REMARK VINA RESULT:      -3.1      8.628      9.530
REMARK  3 active torsions:
REMARK  status: ('A' for Active; 'I' for Inactive)
REMARK    1  A    between atoms: C_2  and  C_3 
REMARK    2  A    between atoms: C_2  and  C_5 
REMARK    3  A    between atoms: C_3  and  N_4 
ROOT
HETATM    1  C   UNK N   1      35.314  11.213  17.466  0.00  0.00     0.022 C 
HETATM    2  C   UNK N   1      35.308  12.715  17.268  0.00  0.00     0.100 C 
ENDROOT
BRANCH   2   3
HETATM    3  C   UNK N   1      35.153  13.564  18.536  0.00  0.00     0.126 C 
BRANCH   3   4
HETATM    4  N   UNK N   1      35.677  14.910  18.387  0.00  0.00    -0.429 N 
HETATM    5  H   UNK N   1      35.172  15.701  18.789  0.00  0.00     0.149 HD
HETATM    6  H   UNK N   1      36.549  15.066  17.882  0.00  0.00     0.149 HD
ENDBRANCH   3   4
ENDBRANCH   2   3
BRANCH   2   7
HETATM    7  C   UNK N   1      35.453  13.240  15.859  0.00  0.00     0.178 C 
HETATM    8  O   UNK N   1      34.453  13.065  14.975  0.00  0.00    -0.648 OA
HETATM    9  O   UNK N   1      36.467  13.822  15.508  0.00  0.00    -0.648 OA
ENDBRANCH   2   7
TORSDOF 3
ENDMDL
