MODEL 1
REMARK VINA RESULT:      -4.2      0.000      0.000
REMARK  4 active torsions:
REMARK  status: ('A' for Active; 'I' for Inactive)
REMARK    1  A    between atoms: C_5  and  C_4 
REMARK    2  A    between atoms: C_4  and  O_10 
REMARK    3  A    between atoms: C_6  and  C_5 
REMARK    4  A    between atoms: C_5  and  N_7 
ROOT
HETATM    1  C   UNK N   1      34.873  16.034   9.945  0.00  0.00     0.160 C 
ENDROOT
BRANCH   1   2
HETATM    2  C   UNK N   1      34.313  14.796  10.675  0.00  0.00     0.142 C 
HETATM    3  C   UNK N   1      35.143  14.413  11.891  0.00  0.00     0.042 C 
BRANCH   2   4
HETATM    4  O   UNK N   1      32.990  15.013  11.064  0.00  0.00    -0.394 OA
HETATM    5  H   UNK N   1      32.397  14.533  11.663  0.00  0.00     0.210 HD
ENDBRANCH   2   4
ENDBRANCH   1   2
BRANCH   1   6
HETATM    6  C   UNK N   1      33.998  16.596   8.851  0.00  0.00     0.075 A 
HETATM    7  N   UNK N   1      32.807  17.198   9.093  0.00  0.00    -0.361 N 
HETATM    8  C   UNK N   1      32.201  17.661   7.945  0.00  0.00     0.096 A 
ATOM      9  HN  UNK N   1      32.403  17.296  10.025  1.00  0.00     0.165 HD
HETATM   10  C   UNK N   1      32.915  17.435   6.753  0.00  0.00     0.068 A 
HETATM   11  S   UNK N   1      34.294  16.645   7.225  0.00  0.00    -0.085 SA
ENDBRANCH   1   6
BRANCH   1  12
HETATM   12  N   UNK N   1      35.160  17.082  10.913  0.00  0.00    -0.419 N 
HETATM   13  H   UNK N   1      35.721  17.093  11.766  0.00  0.00     0.150 HD
HETATM   14  H   UNK N   1      34.716  17.975  10.700  0.00  0.00     0.150 HD
ENDBRANCH   1  12
TORSDOF 4
ENDMDL
MODEL 2
REMARK VINA RESULT:      -4.1      2.189      4.345
REMARK  4 active torsions:
REMARK  status: ('A' for Active; 'I' for Inactive)
REMARK    1  A    between atoms: C_5  and  C_4 
REMARK    2  A    between atoms: C_4  and  O_10 
REMARK    3  A    between atoms: C_6  and  C_5 
REMARK    4  A    between atoms: C_5  and  N_7 
ROOT
HETATM    1  C   UNK N   1      33.224  16.685   8.249  0.00  0.00     0.160 C 
ENDROOT
BRANCH   1   2
HETATM    2  C   UNK N   1      34.068  17.244   7.086  0.00  0.00     0.142 C 
HETATM    3  C   UNK N   1      33.244  17.476   5.828  0.00  0.00     0.042 C 
BRANCH   2   4
HETATM    4  O   UNK N   1      34.691  18.436   7.461  0.00  0.00    -0.394 OA
HETATM    5  H   UNK N   1      34.402  19.180   8.012  0.00  0.00     0.210 HD
ENDBRANCH   2   4
ENDBRANCH   1   2
BRANCH   1   6
HETATM    6  C   UNK N   1      34.004  16.210   9.451  0.00  0.00     0.075 A 
HETATM    7  N   UNK N   1      34.809  17.024  10.179  0.00  0.00    -0.361 N 
HETATM    8  C   UNK N   1      35.393  16.378  11.247  0.00  0.00     0.096 A 
ATOM      9  HN  UNK N   1      34.965  18.007   9.957  1.00  0.00     0.165 HD
HETATM   10  C   UNK N   1      35.052  15.021  11.391  0.00  0.00     0.068 A 
HETATM   11  S   UNK N   1      34.017  14.705  10.136  0.00  0.00    -0.085 SA
ENDBRANCH   1   6
BRANCH   1  12
HETATM   12  N   UNK N   1      32.256  17.686   8.673  0.00  0.00    -0.419 N 
HETATM   13  H   UNK N   1      32.078  18.129   9.575  0.00  0.00     0.150 HD
HETATM   14  H   UNK N   1      31.638  18.005   7.927  0.00  0.00     0.150 HD
ENDBRANCH   1  12
TORSDOF 4
ENDMDL
MODEL 3
REMARK VINA RESULT:      -4.0      2.021      2.244
REMARK  4 active torsions:
REMARK  status: ('A' for Active; 'I' for Inactive)
REMARK    1  A    between atoms: C_5  and  C_4 
REMARK    2  A    between atoms: C_4  and  O_10 
REMARK    3  A    between atoms: C_6  and  C_5 
REMARK    4  A    between atoms: C_5  and  N_7 
ROOT
HETATM    1  C   UNK N   1      34.603  15.291  11.041  0.00  0.00     0.160 C 
ENDROOT
BRANCH   1   2
HETATM    2  C   UNK N   1      36.009  15.262  11.674  0.00  0.00     0.142 C 
HETATM    3  C   UNK N   1      36.569  13.852  11.784  0.00  0.00     0.042 C 
BRANCH   2   4
HETATM    4  O   UNK N   1      36.893  16.059  10.943  0.00  0.00    -0.394 OA
HETATM    5  H   UNK N   1      36.757  16.822  10.361  0.00  0.00     0.210 HD
ENDBRANCH   2   4
ENDBRANCH   1   2
BRANCH   1   6
HETATM    6  C   UNK N   1      34.491  16.044   9.737  0.00  0.00     0.075 A 
HETATM    7  N   UNK N   1      34.466  17.398   9.665  0.00  0.00    -0.361 N 
HETATM    8  C   UNK N   1      34.391  17.861   8.369  0.00  0.00     0.096 A 
ATOM      9  HN  UNK N   1      34.499  18.007  10.483  1.00  0.00     0.165 HD
HETATM   10  C   UNK N   1      34.359  16.866   7.375  0.00  0.00     0.068 A 
HETATM   11  S   UNK N   1      34.425  15.432   8.203  0.00  0.00    -0.085 SA
ENDBRANCH   1   6
BRANCH   1  12
HETATM   12  N   UNK N   1      34.128  13.928  10.848  0.00  0.00    -0.419 N 
HETATM   13  H   UNK N   1      33.229  13.483  11.035  0.00  0.00     0.150 HD
HETATM   14  H   UNK N   1      34.826  13.300  10.450  0.00  0.00     0.150 HD
ENDBRANCH   1  12
TORSDOF 4
ENDMDL
MODEL 4
REMARK VINA RESULT:      -3.9      5.738      6.783
REMARK  4 active torsions:
REMARK  status: ('A' for Active; 'I' for Inactive)
REMARK    1  A    between atoms: C_5  and  C_4 
REMARK    2  A    between atoms: C_4  and  O_10 
REMARK    3  A    between atoms: C_6  and  C_5 
REMARK    4  A    between atoms: C_5  and  N_7 
ROOT
HETATM    1  C   UNK N   1      28.459  17.571   7.361  0.00  0.00     0.160 C 
ENDROOT
BRANCH   1   2
HETATM    2  C   UNK N   1      28.636  17.671   8.889  0.00  0.00     0.142 C 
HETATM    3  C   UNK N   1      29.736  18.646   9.285  0.00  0.00     0.042 C 
BRANCH   2   4
HETATM    4  O   UNK N   1      27.438  18.049   9.499  0.00  0.00    -0.394 OA
HETATM    5  H   UNK N   1      27.069  18.914   9.736  0.00  0.00     0.210 HD
ENDBRANCH   2   4
ENDBRANCH   1   2
BRANCH   1   6
HETATM    6  C   UNK N   1      27.918  18.808   6.685  0.00  0.00     0.075 A 
HETATM    7  N   UNK N   1      27.237  19.775   7.349  0.00  0.00    -0.361 N 
HETATM    8  C   UNK N   1      26.870  20.823   6.533  0.00  0.00     0.096 A 
ATOM      9  HN  UNK N   1      27.020  19.730   8.345  1.00  0.00     0.165 HD
HETATM   10  C   UNK N   1      27.263  20.705   5.187  0.00  0.00     0.068 A 
HETATM   11  S   UNK N   1      28.063  19.257   5.101  0.00  0.00    -0.085 SA
ENDBRANCH   1   6
BRANCH   1  12
HETATM   12  N   UNK N   1      29.727  17.207   6.746  0.00  0.00    -0.419 N 
HETATM   13  H   UNK N   1      29.954  16.733   5.871  0.00  0.00     0.150 HD
HETATM   14  H   UNK N   1      30.544  17.476   7.293  0.00  0.00     0.150 HD
ENDBRANCH   1  12
TORSDOF 4
ENDMDL
MODEL 5
REMARK VINA RESULT:      -3.9      3.703      5.160
REMARK  4 active torsions:
REMARK  status: ('A' for Active; 'I' for Inactive)
REMARK    1  A    between atoms: C_5  and  C_4 
REMARK    2  A    between atoms: C_4  and  O_10 
REMARK    3  A    between atoms: C_6  and  C_5 
REMARK    4  A    between atoms: C_5  and  N_7 
ROOT
HETATM    1  C   UNK N   1      29.557  17.305   8.823  0.00  0.00     0.160 C 
ENDROOT
BRANCH   1   2
HETATM    2  C   UNK N   1      28.606  18.510   8.677  0.00  0.00     0.142 C 
HETATM    3  C   UNK N   1      28.272  18.816   7.225  0.00  0.00     0.042 C 
BRANCH   2   4
HETATM    4  O   UNK N   1      27.425  18.291   9.389  0.00  0.00    -0.394 OA
HETATM    5  H   UNK N   1      27.173  17.628  10.051  0.00  0.00     0.210 HD
ENDBRANCH   2   4
ENDBRANCH   1   2
BRANCH   1   6
HETATM    6  C   UNK N   1      30.917  17.467   8.187  0.00  0.00     0.075 A 
HETATM    7  N   UNK N   1      31.958  18.069   8.814  0.00  0.00    -0.361 N 
HETATM    8  C   UNK N   1      33.107  18.073   8.052  0.00  0.00     0.096 A 
ATOM      9  HN  UNK N   1      31.897  18.475   9.748  1.00  0.00     0.165 HD
HETATM   10  C   UNK N   1      32.996  17.462   6.790  0.00  0.00     0.068 A 
HETATM   11  S   UNK N   1      31.424  16.944   6.703  0.00  0.00    -0.085 SA
ENDBRANCH   1   6
BRANCH   1  12
HETATM   12  N   UNK N   1      29.724  16.984  10.233  0.00  0.00    -0.419 N 
HETATM   13  H   UNK N   1      29.361  16.225  10.811  0.00  0.00     0.150 HD
HETATM   14  H   UNK N   1      30.318  17.641  10.739  0.00  0.00     0.150 HD
ENDBRANCH   1  12
TORSDOF 4
ENDMDL
MODEL 6
REMARK VINA RESULT:      -3.9     14.280     15.015
REMARK  4 active torsions:
REMARK  status: ('A' for Active; 'I' for Inactive)
REMARK    1  A    between atoms: C_5  and  C_4 
REMARK    2  A    between atoms: C_4  and  O_10 
REMARK    3  A    between atoms: C_6  and  C_5 
REMARK    4  A    between atoms: C_5  and  N_7 
ROOT
HETATM    1  C   UNK N   1      43.788  23.156   2.785  0.00  0.00     0.160 C 
ENDROOT
BRANCH   1   2
HETATM    2  C   UNK N   1      42.478  22.936   2.001  0.00  0.00     0.142 C 
HETATM    3  C   UNK N   1      41.707  21.718   2.488  0.00  0.00     0.042 C 
BRANCH   2   4
HETATM    4  O   UNK N   1      41.662  24.066   2.082  0.00  0.00    -0.394 OA
HETATM    5  H   UNK N   1      41.698  24.861   2.636  0.00  0.00     0.210 HD
ENDBRANCH   2   4
ENDBRANCH   1   2
BRANCH   1   6
HETATM    6  C   UNK N   1      44.812  24.035   2.109  0.00  0.00     0.075 A 
HETATM    7  N   UNK N   1      45.448  25.052   2.743  0.00  0.00    -0.361 N 
HETATM    8  C   UNK N   1      46.363  25.693   1.935  0.00  0.00     0.096 A 
ATOM      9  HN  UNK N   1      45.267  25.313   3.712  1.00  0.00     0.165 HD
HETATM   10  C   UNK N   1      46.473  25.185   0.627  0.00  0.00     0.068 A 
HETATM   11  S   UNK N   1      45.387  23.934   0.562  0.00  0.00    -0.085 SA
ENDBRANCH   1   6
BRANCH   1  12
HETATM   12  N   UNK N   1      43.482  23.704   4.099  0.00  0.00    -0.419 N 
HETATM   13  H   UNK N   1      43.508  24.655   4.468  0.00  0.00     0.150 HD
HETATM   14  H   UNK N   1      43.186  23.005   4.780  0.00  0.00     0.150 HD
ENDBRANCH   1  12
TORSDOF 4
ENDMDL
MODEL 7
REMARK VINA RESULT:      -3.9     14.159     15.426
REMARK  4 active torsions:
REMARK  status: ('A' for Active; 'I' for Inactive)
REMARK    1  A    between atoms: C_5  and  C_4 
REMARK    2  A    between atoms: C_4  and  O_10 
REMARK    3  A    between atoms: C_6  and  C_5 
REMARK    4  A    between atoms: C_5  and  N_7 
ROOT
HETATM    1  C   UNK N   1      20.561  19.597   2.891  0.00  0.00     0.160 C 
ENDROOT
BRANCH   1   2
HETATM    2  C   UNK N   1      21.547  20.623   2.297  0.00  0.00     0.142 C 
HETATM    3  C   UNK N   1      22.969  20.423   2.800  0.00  0.00     0.042 C 
BRANCH   2   4
HETATM    4  O   UNK N   1      21.535  20.565   0.902  0.00  0.00    -0.394 OA
HETATM    5  H   UNK N   1      20.936  20.937   0.237  0.00  0.00     0.210 HD
ENDBRANCH   2   4
ENDBRANCH   1   2
BRANCH   1   6
HETATM    6  C   UNK N   1      20.441  18.296   2.135  0.00  0.00     0.075 A 
HETATM    7  N   UNK N   1      19.990  18.223   0.858  0.00  0.00    -0.361 N 
HETATM    8  C   UNK N   1      19.997  16.935   0.364  0.00  0.00     0.096 A 
ATOM      9  HN  UNK N   1      19.679  19.033   0.322  1.00  0.00     0.165 HD
HETATM   10  C   UNK N   1      20.465  15.951   1.254  0.00  0.00     0.068 A 
HETATM   11  S   UNK N   1      20.847  16.775   2.640  0.00  0.00    -0.085 SA
ENDBRANCH   1   6
BRANCH   1  12
HETATM   12  N   UNK N   1      20.925  19.315   4.272  0.00  0.00    -0.419 N 
HETATM   13  H   UNK N   1      21.383  18.515   4.711  0.00  0.00     0.150 HD
HETATM   14  H   UNK N   1      20.677  20.057   4.925  0.00  0.00     0.150 HD
ENDBRANCH   1  12
TORSDOF 4
ENDMDL
MODEL 8
REMARK VINA RESULT:      -3.9      3.148      4.298
REMARK  4 active torsions:
REMARK  status: ('A' for Active; 'I' for Inactive)
REMARK    1  A    between atoms: C_5  and  C_4 
REMARK    2  A    between atoms: C_4  and  O_10 
REMARK    3  A    between atoms: C_6  and  C_5 
REMARK    4  A    between atoms: C_5  and  N_7 
ROOT
HETATM    1  C   UNK N   1      36.217  13.554  12.674  0.00  0.00     0.160 C 
ENDROOT
BRANCH   1   2
HETATM    2  C   UNK N   1      36.274  13.956  14.162  0.00  0.00     0.142 C 
HETATM    3  C   UNK N   1      36.885  12.870  15.035  0.00  0.00     0.042 C 
BRANCH   2   4
HETATM    4  O   UNK N   1      36.992  15.142  14.323  0.00  0.00    -0.394 OA
HETATM    5  H   UNK N   1      37.878  15.328  14.672  0.00  0.00     0.210 HD
ENDBRANCH   2   4
ENDBRANCH   1   2
BRANCH   1   6
HETATM    6  C   UNK N   1      35.692  14.610  11.733  0.00  0.00     0.075 A 
HETATM    7  N   UNK N   1      36.295  15.814  11.563  0.00  0.00    -0.361 N 
HETATM    8  C   UNK N   1      35.654  16.602  10.630  0.00  0.00     0.096 A 
ATOM      9  HN  UNK N   1      37.131  16.103  12.070  1.00  0.00     0.165 HD
HETATM   10  C   UNK N   1      34.518  16.026  10.033  0.00  0.00     0.068 A 
HETATM   11  S   UNK N   1      34.380  14.530  10.730  0.00  0.00    -0.085 SA
ENDBRANCH   1   6
BRANCH   1  12
HETATM   12  N   UNK N   1      37.540  13.135  12.233  0.00  0.00    -0.419 N 
HETATM   13  H   UNK N   1      38.291  13.632  11.751  0.00  0.00     0.150 HD
HETATM   14  H   UNK N   1      37.758  12.162  12.445  0.00  0.00     0.150 HD
ENDBRANCH   1  12
TORSDOF 4
ENDMDL
MODEL 9
REMARK VINA RESULT:      -3.8     13.228     13.769
REMARK  4 active torsions:
REMARK  status: ('A' for Active; 'I' for Inactive)
REMARK    1  A    between atoms: C_5  and  C_4 
REMARK    2  A    between atoms: C_4  and  O_10 
REMARK    3  A    between atoms: C_6  and  C_5 
REMARK    4  A    between atoms: C_5  and  N_7 
ROOT
HETATM    1  C   UNK N   1      44.530  23.177   2.509  0.00  0.00     0.160 C 
ENDROOT
BRANCH   1   2
HETATM    2  C   UNK N   1      44.593  22.235   3.728  0.00  0.00     0.142 C 
HETATM    3  C   UNK N   1      44.167  20.814   3.388  0.00  0.00     0.042 C 
BRANCH   2   4
HETATM    4  O   UNK N   1      45.880  22.217   4.270  0.00  0.00    -0.394 OA
HETATM    5  H   UNK N   1      46.205  22.192   5.183  0.00  0.00     0.210 HD
ENDBRANCH   2   4
ENDBRANCH   1   2
BRANCH   1   6
HETATM    6  C   UNK N   1      43.222  23.183   1.756  0.00  0.00     0.075 A 
HETATM    7  N   UNK N   1      42.083  23.724   2.258  0.00  0.00    -0.361 N 
HETATM    8  C   UNK N   1      41.024  23.641   1.379  0.00  0.00     0.096 A 
ATOM      9  HN  UNK N   1      42.019  24.145   3.185  1.00  0.00     0.165 HD
HETATM   10  C   UNK N   1      41.310  23.028   0.145  0.00  0.00     0.068 A 
HETATM   11  S   UNK N   1      42.912  22.614   0.235  0.00  0.00    -0.085 SA
ENDBRANCH   1   6
BRANCH   1  12
HETATM   12  N   UNK N   1      44.847  24.535   2.927  0.00  0.00    -0.419 N 
HETATM   13  H   UNK N   1      45.098  24.933   3.833  0.00  0.00     0.150 HD
HETATM   14  H   UNK N   1      44.813  25.219   2.171  0.00  0.00     0.150 HD
ENDBRANCH   1  12
TORSDOF 4
ENDMDL
