MODEL 1
REMARK VINA RESULT:      -5.3      0.000      0.000
REMARK  11 active torsions:
REMARK  status: ('A' for Active; 'I' for Inactive)
REMARK    1  A    between atoms: C_9  and  O_1 
REMARK    2  A    between atoms: C_10  and  O_2 
REMARK    3  A    between atoms: C_11  and  O_3 
REMARK    4  A    between atoms: C_12  and  O_4 
REMARK    5  A    between atoms: O_5  and  C_13 
REMARK    6  A    between atoms: O_6  and  C_14 
REMARK    7  A    between atoms: C_9  and  C_10 
REMARK    8  A    between atoms: C_9  and  C_11 
REMARK    9  A    between atoms: C_10  and  C_12 
REMARK   10  A    between atoms: C_11  and  C_13 
REMARK   11  A    between atoms: C_12  and  C_14 
ROOT
HETATM    1  C   UNK N   1      20.149  19.074   2.737  0.00  0.00     0.189 C 
ENDROOT
BRANCH   1   2
HETATM    2  O   UNK N   1      18.904  19.244   2.125  0.00  0.00    -0.390 OA
HETATM    3  H   UNK N   1      18.257  18.522   2.096  0.00  0.00     0.210 HD
ENDBRANCH   1   2
BRANCH   1   4
HETATM    4  C   UNK N   1      20.791  17.758   2.240  0.00  0.00     0.189 C 
BRANCH   4   5
HETATM    5  O   UNK N   1      20.954  16.884   3.317  0.00  0.00    -0.390 OA
HETATM    6  H   UNK N   1      21.357  16.010   3.197  0.00  0.00     0.210 HD
ENDBRANCH   4   5
BRANCH   4   7
HETATM    7  C   UNK N   1      19.943  17.062   1.154  0.00  0.00     0.246 C 
BRANCH   7   8
HETATM    8  O   UNK N   1      20.252  17.570  -0.110  0.00  0.00    -0.382 OA
HETATM    9  H   UNK N   1      21.159  17.827  -0.340  0.00  0.00     0.210 HD
ENDBRANCH   7   8
BRANCH   7  10
HETATM   10  C   UNK N   1      20.129  15.564   1.143  0.00  0.00     0.172 C 
HETATM   11  O   UNK N   1      21.145  15.074   0.677  0.00  0.00    -0.648 OA
BRANCH  10  12
HETATM   12  O   UNK N   1      19.196  14.757   1.688  0.00  0.00    -0.774 OA
HETATM   13  H   UNK N   1      19.372  13.950   2.130  0.00  0.00     0.167 HD
ENDBRANCH  10  12
ENDBRANCH   7  10
ENDBRANCH   4   7
ENDBRANCH   1   4
BRANCH   1  14
HETATM   14  C   UNK N   1      21.026  20.308   2.438  0.00  0.00     0.246 C 
BRANCH  14  15
HETATM   15  O   UNK N   1      20.827  21.297   3.404  0.00  0.00    -0.382 OA
HETATM   16  H   UNK N   1      21.011  22.230   3.214  0.00  0.00     0.210 HD
ENDBRANCH  14  15
BRANCH  14  17
HETATM   17  C   UNK N   1      20.761  20.892   1.071  0.00  0.00     0.172 C 
HETATM   18  O   UNK N   1      20.910  20.209   0.071  0.00  0.00    -0.648 OA
BRANCH  17  19
HETATM   19  O   UNK N   1      20.396  22.184   0.942  0.00  0.00    -0.774 OA
HETATM   20  H   UNK N   1      20.987  22.903   0.836  0.00  0.00     0.167 HD
ENDBRANCH  17  19
ENDBRANCH  14  17
ENDBRANCH   1  14
TORSDOF 11
ENDMDL
MODEL 2
REMARK VINA RESULT:      -5.1     15.998     17.147
REMARK  11 active torsions:
REMARK  status: ('A' for Active; 'I' for Inactive)
REMARK    1  A    between atoms: C_9  and  O_1 
REMARK    2  A    between atoms: C_10  and  O_2 
REMARK    3  A    between atoms: C_11  and  O_3 
REMARK    4  A    between atoms: C_12  and  O_4 
REMARK    5  A    between atoms: O_5  and  C_13 
REMARK    6  A    between atoms: O_6  and  C_14 
REMARK    7  A    between atoms: C_9  and  C_10 
REMARK    8  A    between atoms: C_9  and  C_11 
REMARK    9  A    between atoms: C_10  and  C_12 
REMARK   10  A    between atoms: C_11  and  C_13 
REMARK   11  A    between atoms: C_12  and  C_14 
ROOT
HETATM    1  C   UNK N   1      34.188  15.988   9.190  0.00  0.00     0.189 C 
ENDROOT
BRANCH   1   2
HETATM    2  O   UNK N   1      35.362  15.840   8.446  0.00  0.00    -0.390 OA
HETATM    3  H   UNK N   1      36.232  15.848   8.876  0.00  0.00     0.210 HD
ENDBRANCH   1   2
BRANCH   1   4
HETATM    4  C   UNK N   1      34.501  15.784  10.691  0.00  0.00     0.189 C 
BRANCH   4   5
HETATM    5  O   UNK N   1      33.524  14.965  11.262  0.00  0.00    -0.390 OA
HETATM    6  H   UNK N   1      33.589  13.998  11.212  0.00  0.00     0.210 HD
ENDBRANCH   4   5
BRANCH   4   7
HETATM    7  C   UNK N   1      35.888  15.146  10.922  0.00  0.00     0.246 C 
BRANCH   7   8
HETATM    8  O   UNK N   1      36.889  16.119  10.878  0.00  0.00    -0.382 OA
HETATM    9  H   UNK N   1      37.113  16.645  11.662  0.00  0.00     0.210 HD
ENDBRANCH   7   8
BRANCH   7  10
HETATM   10  C   UNK N   1      35.975  14.408  12.236  0.00  0.00     0.172 C 
HETATM   11  O   UNK N   1      35.412  13.334  12.376  0.00  0.00    -0.648 OA
BRANCH  10  12
HETATM   12  O   UNK N   1      36.711  14.906  13.250  0.00  0.00    -0.774 OA
HETATM   13  H   UNK N   1      37.459  15.461  13.151  0.00  0.00     0.167 HD
ENDBRANCH  10  12
ENDBRANCH   7  10
ENDBRANCH   4   7
ENDBRANCH   1   4
BRANCH   1  14
HETATM   14  C   UNK N   1      33.583  17.377   8.898  0.00  0.00     0.246 C 
BRANCH  14  15
HETATM   15  O   UNK N   1      32.319  17.248   8.316  0.00  0.00    -0.382 OA
HETATM   16  H   UNK N   1      31.665  16.625   8.668  0.00  0.00     0.210 HD
ENDBRANCH  14  15
BRANCH  14  17
HETATM   17  C   UNK N   1      34.458  18.215   7.998  0.00  0.00     0.172 C 
HETATM   18  O   UNK N   1      34.434  18.050   6.790  0.00  0.00    -0.648 OA
BRANCH  17  19
HETATM   19  O   UNK N   1      35.304  19.124   8.525  0.00  0.00    -0.774 OA
HETATM   20  H   UNK N   1      36.067  18.922   9.029  0.00  0.00     0.167 HD
ENDBRANCH  17  19
ENDBRANCH  14  17
ENDBRANCH   1  14
TORSDOF 11
ENDMDL
MODEL 3
REMARK VINA RESULT:      -5.0     16.180     17.632
REMARK  11 active torsions:
REMARK  status: ('A' for Active; 'I' for Inactive)
REMARK    1  A    between atoms: C_9  and  O_1 
REMARK    2  A    between atoms: C_10  and  O_2 
REMARK    3  A    between atoms: C_11  and  O_3 
REMARK    4  A    between atoms: C_12  and  O_4 
REMARK    5  A    between atoms: O_5  and  C_13 
REMARK    6  A    between atoms: O_6  and  C_14 
REMARK    7  A    between atoms: C_9  and  C_10 
REMARK    8  A    between atoms: C_9  and  C_11 
REMARK    9  A    between atoms: C_10  and  C_12 
REMARK   10  A    between atoms: C_11  and  C_13 
REMARK   11  A    between atoms: C_12  and  C_14 
ROOT
HETATM    1  C   UNK N   1      34.745  15.419  10.567  0.00  0.00     0.189 C 
ENDROOT
BRANCH   1   2
HETATM    2  O   UNK N   1      33.582  15.063  11.256  0.00  0.00    -0.390 OA
HETATM    3  H   UNK N   1      33.606  14.418  11.981  0.00  0.00     0.210 HD
ENDBRANCH   1   2
BRANCH   1   4
HETATM    4  C   UNK N   1      34.502  16.736   9.795  0.00  0.00     0.189 C 
BRANCH   4   5
HETATM    5  O   UNK N   1      35.454  17.683  10.181  0.00  0.00    -0.390 OA
HETATM    6  H   UNK N   1      36.145  17.978   9.566  0.00  0.00     0.210 HD
ENDBRANCH   4   5
BRANCH   4   7
HETATM    7  C   UNK N   1      34.577  16.545   8.265  0.00  0.00     0.246 C 
BRANCH   7   8
HETATM    8  O   UNK N   1      33.636  15.603   7.842  0.00  0.00    -0.382 OA
HETATM    9  H   UNK N   1      33.626  14.703   8.206  0.00  0.00     0.210 HD
ENDBRANCH   7   8
BRANCH   7  10
HETATM   10  C   UNK N   1      34.361  17.833   7.508  0.00  0.00     0.172 C 
HETATM   11  O   UNK N   1      34.269  17.823   6.291  0.00  0.00    -0.648 OA
BRANCH  10  12
HETATM   12  O   UNK N   1      34.225  18.999   8.171  0.00  0.00    -0.774 OA
HETATM   13  H   UNK N   1      34.251  19.849   7.778  0.00  0.00     0.167 HD
ENDBRANCH  10  12
ENDBRANCH   7  10
ENDBRANCH   4   7
ENDBRANCH   1   4
BRANCH   1  14
HETATM   14  C   UNK N   1      35.908  15.532  11.575  0.00  0.00     0.246 C 
BRANCH  14  15
HETATM   15  O   UNK N   1      37.115  15.757  10.908  0.00  0.00    -0.382 OA
HETATM   16  H   UNK N   1      37.775  16.374  11.259  0.00  0.00     0.210 HD
ENDBRANCH  14  15
BRANCH  14  17
HETATM   17  C   UNK N   1      36.045  14.306  12.446  0.00  0.00     0.172 C 
HETATM   18  O   UNK N   1      35.132  13.968  13.180  0.00  0.00    -0.648 OA
BRANCH  17  19
HETATM   19  O   UNK N   1      37.192  13.597  12.448  0.00  0.00    -0.774 OA
HETATM   20  H   UNK N   1      37.663  13.330  11.683  0.00  0.00     0.167 HD
ENDBRANCH  17  19
ENDBRANCH  14  17
ENDBRANCH   1  14
TORSDOF 11
ENDMDL
MODEL 4
REMARK VINA RESULT:      -5.0     18.026     19.310
REMARK  11 active torsions:
REMARK  status: ('A' for Active; 'I' for Inactive)
REMARK    1  A    between atoms: C_9  and  O_1 
REMARK    2  A    between atoms: C_10  and  O_2 
REMARK    3  A    between atoms: C_11  and  O_3 
REMARK    4  A    between atoms: C_12  and  O_4 
REMARK    5  A    between atoms: O_5  and  C_13 
REMARK    6  A    between atoms: O_6  and  C_14 
REMARK    7  A    between atoms: C_9  and  C_10 
REMARK    8  A    between atoms: C_9  and  C_11 
REMARK    9  A    between atoms: C_10  and  C_12 
REMARK   10  A    between atoms: C_11  and  C_13 
REMARK   11  A    between atoms: C_12  and  C_14 
ROOT
HETATM    1  C   UNK N   1      35.183  14.972  11.855  0.00  0.00     0.189 C 
ENDROOT
BRANCH   1   2
HETATM    2  O   UNK N   1      33.840  14.715  11.561  0.00  0.00    -0.390 OA
HETATM    3  H   UNK N   1      33.512  14.744  10.649  0.00  0.00     0.210 HD
ENDBRANCH   1   2
BRANCH   1   4
HETATM    4  C   UNK N   1      35.810  13.727  12.524  0.00  0.00     0.189 C 
BRANCH   4   5
HETATM    5  O   UNK N   1      37.188  13.722  12.297  0.00  0.00    -0.390 OA
HETATM    6  H   UNK N   1      37.606  13.030  11.760  0.00  0.00     0.210 HD
ENDBRANCH   4   5
BRANCH   4   7
HETATM    7  C   UNK N   1      35.553  13.683  14.045  0.00  0.00     0.246 C 
BRANCH   7   8
HETATM    8  O   UNK N   1      34.536  12.772  14.345  0.00  0.00    -0.382 OA
HETATM    9  H   UNK N   1      33.707  13.062  14.756  0.00  0.00     0.210 HD
ENDBRANCH   7   8
BRANCH   7  10
HETATM   10  C   UNK N   1      36.788  13.319  14.833  0.00  0.00     0.172 C 
HETATM   11  O   UNK N   1      37.121  12.151  14.951  0.00  0.00    -0.648 OA
BRANCH  10  12
HETATM   12  O   UNK N   1      37.559  14.284  15.375  0.00  0.00    -0.774 OA
HETATM   13  H   UNK N   1      38.494  14.259  15.431  0.00  0.00     0.167 HD
ENDBRANCH  10  12
ENDBRANCH   7  10
ENDBRANCH   4   7
ENDBRANCH   1   4
BRANCH   1  14
HETATM   14  C   UNK N   1      35.910  15.372  10.554  0.00  0.00     0.246 C 
BRANCH  14  15
HETATM   15  O   UNK N   1      37.014  16.180  10.839  0.00  0.00    -0.382 OA
HETATM   16  H   UNK N   1      36.905  17.064  11.223  0.00  0.00     0.210 HD
ENDBRANCH  14  15
BRANCH  14  17
HETATM   17  C   UNK N   1      35.008  16.093   9.581  0.00  0.00     0.172 C 
HETATM   18  O   UNK N   1      34.766  15.604   8.490  0.00  0.00    -0.648 OA
BRANCH  17  19
HETATM   19  O   UNK N   1      34.497  17.301   9.894  0.00  0.00    -0.774 OA
HETATM   20  H   UNK N   1      34.116  17.900   9.283  0.00  0.00     0.167 HD
ENDBRANCH  17  19
ENDBRANCH  14  17
ENDBRANCH   1  14
TORSDOF 11
ENDMDL
MODEL 5
REMARK VINA RESULT:      -4.8     15.799     17.386
REMARK  11 active torsions:
REMARK  status: ('A' for Active; 'I' for Inactive)
REMARK    1  A    between atoms: C_9  and  O_1 
REMARK    2  A    between atoms: C_10  and  O_2 
REMARK    3  A    between atoms: C_11  and  O_3 
REMARK    4  A    between atoms: C_12  and  O_4 
REMARK    5  A    between atoms: O_5  and  C_13 
REMARK    6  A    between atoms: O_6  and  C_14 
REMARK    7  A    between atoms: C_9  and  C_10 
REMARK    8  A    between atoms: C_9  and  C_11 
REMARK    9  A    between atoms: C_10  and  C_12 
REMARK   10  A    between atoms: C_11  and  C_13 
REMARK   11  A    between atoms: C_12  and  C_14 
ROOT
HETATM    1  C   UNK N   1      34.038  14.577   9.869  0.00  0.00     0.189 C 
ENDROOT
BRANCH   1   2
HETATM    2  O   UNK N   1      33.247  15.197  10.840  0.00  0.00    -0.390 OA
HETATM    3  H   UNK N   1      32.903  14.700  11.599  0.00  0.00     0.210 HD
ENDBRANCH   1   2
BRANCH   1   4
HETATM    4  C   UNK N   1      34.507  15.630   8.838  0.00  0.00     0.189 C 
BRANCH   4   5
HETATM    5  O   UNK N   1      33.883  15.389   7.612  0.00  0.00    -0.390 OA
HETATM    6  H   UNK N   1      32.949  15.610   7.472  0.00  0.00     0.210 HD
ENDBRANCH   4   5
BRANCH   4   7
HETATM    7  C   UNK N   1      34.191  17.073   9.285  0.00  0.00     0.246 C 
BRANCH   7   8
HETATM    8  O   UNK N   1      34.858  17.376  10.475  0.00  0.00    -0.382 OA
HETATM    9  H   UNK N   1      35.327  18.218  10.587  0.00  0.00     0.210 HD
ENDBRANCH   7   8
BRANCH   7  10
HETATM   10  C   UNK N   1      34.558  18.098   8.239  0.00  0.00     0.172 C 
HETATM   11  O   UNK N   1      34.088  18.026   7.115  0.00  0.00    -0.648 OA
BRANCH  10  12
HETATM   12  O   UNK N   1      35.374  19.126   8.550  0.00  0.00    -0.774 OA
HETATM   13  H   UNK N   1      35.783  19.696   7.929  0.00  0.00     0.167 HD
ENDBRANCH  10  12
ENDBRANCH   7  10
ENDBRANCH   4   7
ENDBRANCH   1   4
BRANCH   1  14
HETATM   14  C   UNK N   1      35.219  13.868  10.566  0.00  0.00     0.246 C 
BRANCH  14  15
HETATM   15  O   UNK N   1      35.045  12.482  10.536  0.00  0.00    -0.382 OA
HETATM   16  H   UNK N   1      35.763  11.880  10.787  0.00  0.00     0.210 HD
ENDBRANCH  14  15
BRANCH  14  17
HETATM   17  C   UNK N   1      35.402  14.313  11.997  0.00  0.00     0.172 C 
HETATM   18  O   UNK N   1      34.842  13.719  12.902  0.00  0.00    -0.648 OA
BRANCH  17  19
HETATM   19  O   UNK N   1      36.154  15.396  12.282  0.00  0.00    -0.774 OA
HETATM   20  H   UNK N   1      36.257  15.774  13.133  0.00  0.00     0.167 HD
ENDBRANCH  17  19
ENDBRANCH  14  17
ENDBRANCH   1  14
TORSDOF 11
ENDMDL
MODEL 6
REMARK VINA RESULT:      -4.7     15.596     17.102
REMARK  11 active torsions:
REMARK  status: ('A' for Active; 'I' for Inactive)
REMARK    1  A    between atoms: C_9  and  O_1 
REMARK    2  A    between atoms: C_10  and  O_2 
REMARK    3  A    between atoms: C_11  and  O_3 
REMARK    4  A    between atoms: C_12  and  O_4 
REMARK    5  A    between atoms: O_5  and  C_13 
REMARK    6  A    between atoms: O_6  and  C_14 
REMARK    7  A    between atoms: C_9  and  C_10 
REMARK    8  A    between atoms: C_9  and  C_11 
REMARK    9  A    between atoms: C_10  and  C_12 
REMARK   10  A    between atoms: C_11  and  C_13 
REMARK   11  A    between atoms: C_12  and  C_14 
ROOT
HETATM    1  C   UNK N   1      35.147  16.262  10.400  0.00  0.00     0.189 C 
ENDROOT
BRANCH   1   2
HETATM    2  O   UNK N   1      36.451  16.239  10.903  0.00  0.00    -0.390 OA
HETATM    3  H   UNK N   1      37.003  15.444  10.830  0.00  0.00     0.210 HD
ENDBRANCH   1   2
BRANCH   1   4
HETATM    4  C   UNK N   1      35.180  16.644   8.902  0.00  0.00     0.189 C 
BRANCH   4   5
HETATM    5  O   UNK N   1      34.640  15.602   8.145  0.00  0.00    -0.390 OA
HETATM    6  H   UNK N   1      33.803  15.180   8.397  0.00  0.00     0.210 HD
ENDBRANCH   4   5
BRANCH   4   7
HETATM    7  C   UNK N   1      34.392  17.938   8.607  0.00  0.00     0.246 C 
BRANCH   7   8
HETATM    8  O   UNK N   1      35.259  19.031   8.516  0.00  0.00    -0.382 OA
HETATM    9  H   UNK N   1      34.950  19.891   8.190  0.00  0.00     0.210 HD
ENDBRANCH   7   8
BRANCH   7  10
HETATM   10  C   UNK N   1      33.579  17.846   7.339  0.00  0.00     0.172 C 
HETATM   11  O   UNK N   1      32.366  17.716   7.393  0.00  0.00    -0.648 OA
BRANCH  10  12
HETATM   12  O   UNK N   1      34.179  17.951   6.136  0.00  0.00    -0.774 OA
HETATM   13  H   UNK N   1      33.860  18.460   5.416  0.00  0.00     0.167 HD
ENDBRANCH  10  12
ENDBRANCH   7  10
ENDBRANCH   4   7
ENDBRANCH   1   4
BRANCH   1  14
HETATM   14  C   UNK N   1      34.495  14.885  10.643  0.00  0.00     0.246 C 
BRANCH  14  15
HETATM   15  O   UNK N   1      33.154  15.035  11.005  0.00  0.00    -0.382 OA
HETATM   16  H   UNK N   1      32.900  15.254  11.916  0.00  0.00     0.210 HD
ENDBRANCH  14  15
BRANCH  14  17
HETATM   17  C   UNK N   1      35.207  14.082  11.705  0.00  0.00     0.172 C 
HETATM   18  O   UNK N   1      36.311  13.614  11.485  0.00  0.00    -0.648 OA
BRANCH  17  19
HETATM   19  O   UNK N   1      34.611  13.843  12.891  0.00  0.00    -0.774 OA
HETATM   20  H   UNK N   1      34.364  14.499  13.513  0.00  0.00     0.167 HD
ENDBRANCH  17  19
ENDBRANCH  14  17
ENDBRANCH   1  14
TORSDOF 11
ENDMDL
MODEL 7
REMARK VINA RESULT:      -4.7     16.137     17.542
REMARK  11 active torsions:
REMARK  status: ('A' for Active; 'I' for Inactive)
REMARK    1  A    between atoms: C_9  and  O_1 
REMARK    2  A    between atoms: C_10  and  O_2 
REMARK    3  A    between atoms: C_11  and  O_3 
REMARK    4  A    between atoms: C_12  and  O_4 
REMARK    5  A    between atoms: O_5  and  C_13 
REMARK    6  A    between atoms: O_6  and  C_14 
REMARK    7  A    between atoms: C_9  and  C_10 
REMARK    8  A    between atoms: C_9  and  C_11 
REMARK    9  A    between atoms: C_10  and  C_12 
REMARK   10  A    between atoms: C_11  and  C_13 
REMARK   11  A    between atoms: C_12  and  C_14 
ROOT
HETATM    1  C   UNK N   1      35.534  15.529   9.148  0.00  0.00     0.189 C 
ENDROOT
BRANCH   1   2
HETATM    2  O   UNK N   1      35.101  14.444   8.380  0.00  0.00    -0.390 OA
HETATM    3  H   UNK N   1      35.554  14.199   7.558  0.00  0.00     0.210 HD
ENDBRANCH   1   2
BRANCH   1   4
HETATM    4  C   UNK N   1      34.309  16.326   9.650  0.00  0.00     0.189 C 
BRANCH   4   5
HETATM    5  O   UNK N   1      34.730  17.313  10.544  0.00  0.00    -0.390 OA
HETATM    6  H   UNK N   1      34.953  18.206  10.236  0.00  0.00     0.210 HD
ENDBRANCH   4   5
BRANCH   4   7
HETATM    7  C   UNK N   1      33.527  16.994   8.499  0.00  0.00     0.246 C 
BRANCH   7   8
HETATM    8  O   UNK N   1      32.386  17.635   8.987  0.00  0.00    -0.382 OA
HETATM    9  H   UNK N   1      31.644  17.128   9.356  0.00  0.00     0.210 HD
ENDBRANCH   7   8
BRANCH   7  10
HETATM   10  C   UNK N   1      34.363  17.991   7.732  0.00  0.00     0.172 C 
HETATM   11  O   UNK N   1      34.481  17.892   6.521  0.00  0.00    -0.648 OA
BRANCH  10  12
HETATM   12  O   UNK N   1      34.949  19.023   8.371  0.00  0.00    -0.774 OA
HETATM   13  H   UNK N   1      34.498  19.670   8.877  0.00  0.00     0.167 HD
ENDBRANCH  10  12
ENDBRANCH   7  10
ENDBRANCH   4   7
ENDBRANCH   1   4
BRANCH   1  14
HETATM   14  C   UNK N   1      36.411  15.004  10.304  0.00  0.00     0.246 C 
BRANCH  14  15
HETATM   15  O   UNK N   1      37.057  16.062  10.949  0.00  0.00    -0.382 OA
HETATM   16  H   UNK N   1      36.617  16.565  11.652  0.00  0.00     0.210 HD
ENDBRANCH  14  15
BRANCH  14  17
HETATM   17  C   UNK N   1      37.443  14.002   9.844  0.00  0.00     0.172 C 
HETATM   18  O   UNK N   1      37.108  12.868   9.546  0.00  0.00    -0.648 OA
BRANCH  17  19
HETATM   19  O   UNK N   1      38.747  14.342   9.796  0.00  0.00    -0.774 OA
HETATM   20  H   UNK N   1      39.463  13.753   9.931  0.00  0.00     0.167 HD
ENDBRANCH  17  19
ENDBRANCH  14  17
ENDBRANCH   1  14
TORSDOF 11
ENDMDL
MODEL 8
REMARK VINA RESULT:      -4.7     16.143     17.365
REMARK  11 active torsions:
REMARK  status: ('A' for Active; 'I' for Inactive)
REMARK    1  A    between atoms: C_9  and  O_1 
REMARK    2  A    between atoms: C_10  and  O_2 
REMARK    3  A    between atoms: C_11  and  O_3 
REMARK    4  A    between atoms: C_12  and  O_4 
REMARK    5  A    between atoms: O_5  and  C_13 
REMARK    6  A    between atoms: O_6  and  C_14 
REMARK    7  A    between atoms: C_9  and  C_10 
REMARK    8  A    between atoms: C_9  and  C_11 
REMARK    9  A    between atoms: C_10  and  C_12 
REMARK   10  A    between atoms: C_11  and  C_13 
REMARK   11  A    between atoms: C_12  and  C_14 
ROOT
HETATM    1  C   UNK N   1      35.127  16.551   9.402  0.00  0.00     0.189 C 
ENDROOT
BRANCH   1   2
HETATM    2  O   UNK N   1      34.099  17.238  10.054  0.00  0.00    -0.390 OA
HETATM    3  H   UNK N   1      33.173  17.130   9.784  0.00  0.00     0.210 HD
ENDBRANCH   1   2
BRANCH   1   4
HETATM    4  C   UNK N   1      35.746  15.515  10.368  0.00  0.00     0.189 C 
BRANCH   4   5
HETATM    5  O   UNK N   1      37.017  15.944  10.757  0.00  0.00    -0.390 OA
HETATM    6  H   UNK N   1      37.740  15.312  10.892  0.00  0.00     0.210 HD
ENDBRANCH   4   5
BRANCH   4   7
HETATM    7  C   UNK N   1      34.884  15.297  11.630  0.00  0.00     0.246 C 
BRANCH   7   8
HETATM    8  O   UNK N   1      33.598  14.879  11.278  0.00  0.00    -0.382 OA
HETATM    9  H   UNK N   1      33.191  14.102  11.695  0.00  0.00     0.210 HD
ENDBRANCH   7   8
BRANCH   7  10
HETATM   10  C   UNK N   1      35.488  14.290  12.579  0.00  0.00     0.172 C 
HETATM   11  O   UNK N   1      34.840  13.321  12.941  0.00  0.00    -0.648 OA
BRANCH  10  12
HETATM   12  O   UNK N   1      36.761  14.429  12.999  0.00  0.00    -0.774 OA
HETATM   13  H   UNK N   1      37.504  14.004  12.618  0.00  0.00     0.167 HD
ENDBRANCH  10  12
ENDBRANCH   7  10
ENDBRANCH   4   7
ENDBRANCH   1   4
BRANCH   1  14
HETATM   14  C   UNK N   1      34.560  15.900   8.123  0.00  0.00     0.246 C 
BRANCH  14  15
HETATM   15  O   UNK N   1      35.294  14.760   7.787  0.00  0.00    -0.382 OA
HETATM   16  H   UNK N   1      35.948  14.776   7.071  0.00  0.00     0.210 HD
ENDBRANCH  14  15
BRANCH  14  17
HETATM   17  C   UNK N   1      34.546  16.844   6.946  0.00  0.00     0.172 C 
HETATM   18  O   UNK N   1      34.475  18.049   7.124  0.00  0.00    -0.648 OA
BRANCH  17  19
HETATM   19  O   UNK N   1      34.572  16.362   5.686  0.00  0.00    -0.774 OA
HETATM   20  H   UNK N   1      34.088  15.620   5.383  0.00  0.00     0.167 HD
ENDBRANCH  17  19
ENDBRANCH  14  17
ENDBRANCH   1  14
TORSDOF 11
ENDMDL
MODEL 9
REMARK VINA RESULT:      -4.7     17.953     19.565
REMARK  11 active torsions:
REMARK  status: ('A' for Active; 'I' for Inactive)
REMARK    1  A    between atoms: C_9  and  O_1 
REMARK    2  A    between atoms: C_10  and  O_2 
REMARK    3  A    between atoms: C_11  and  O_3 
REMARK    4  A    between atoms: C_12  and  O_4 
REMARK    5  A    between atoms: O_5  and  C_13 
REMARK    6  A    between atoms: O_6  and  C_14 
REMARK    7  A    between atoms: C_9  and  C_10 
REMARK    8  A    between atoms: C_9  and  C_11 
REMARK    9  A    between atoms: C_10  and  C_12 
REMARK   10  A    between atoms: C_11  and  C_13 
REMARK   11  A    between atoms: C_12  and  C_14 
ROOT
HETATM    1  C   UNK N   1      35.592  14.366  13.086  0.00  0.00     0.189 C 
ENDROOT
BRANCH   1   2
HETATM    2  O   UNK N   1      36.847  14.917  13.360  0.00  0.00    -0.390 OA
HETATM    3  H   UNK N   1      36.999  15.873  13.298  0.00  0.00     0.210 HD
ENDBRANCH   1   2
BRANCH   1   4
HETATM    4  C   UNK N   1      35.261  14.560  11.588  0.00  0.00     0.189 C 
BRANCH   4   5
HETATM    5  O   UNK N   1      33.897  14.340  11.381  0.00  0.00    -0.390 OA
HETATM    6  H   UNK N   1      33.231  14.749  11.955  0.00  0.00     0.210 HD
ENDBRANCH   4   5
BRANCH   4   7
HETATM    7  C   UNK N   1      35.622  15.973  11.083  0.00  0.00     0.246 C 
BRANCH   7   8
HETATM    8  O   UNK N   1      37.002  16.089  10.892  0.00  0.00    -0.382 OA
HETATM    9  H   UNK N   1      37.625  15.528  11.381  0.00  0.00     0.210 HD
ENDBRANCH   7   8
BRANCH   7  10
HETATM   10  C   UNK N   1      34.915  16.329   9.798  0.00  0.00     0.172 C 
HETATM   11  O   UNK N   1      35.002  15.597   8.825  0.00  0.00    -0.648 OA
BRANCH  10  12
HETATM   12  O   UNK N   1      34.146  17.434   9.726  0.00  0.00    -0.774 OA
HETATM   13  H   UNK N   1      33.781  17.885  10.462  0.00  0.00     0.167 HD
ENDBRANCH  10  12
ENDBRANCH   7  10
ENDBRANCH   4   7
ENDBRANCH   1   4
BRANCH   1  14
HETATM   14  C   UNK N   1      35.598  12.879  13.500  0.00  0.00     0.246 C 
BRANCH  14  15
HETATM   15  O   UNK N   1      34.311  12.463  13.850  0.00  0.00    -0.382 OA
HETATM   16  H   UNK N   1      33.930  12.682  14.715  0.00  0.00     0.210 HD
ENDBRANCH  14  15
BRANCH  14  17
HETATM   17  C   UNK N   1      36.538  12.599  14.649  0.00  0.00     0.172 C 
HETATM   18  O   UNK N   1      36.181  12.798  15.798  0.00  0.00    -0.648 OA
BRANCH  17  19
HETATM   19  O   UNK N   1      37.793  12.167  14.411  0.00  0.00    -0.774 OA
HETATM   20  H   UNK N   1      38.202  11.438  14.835  0.00  0.00     0.167 HD
ENDBRANCH  17  19
ENDBRANCH  14  17
ENDBRANCH   1  14
TORSDOF 11
ENDMDL
