REMARK  5 active torsions:
REMARK  status: ('A' for Active; 'I' for Inactive)
REMARK    1  A    between atoms: O_1  and  N_2 
REMARK       I    between atoms: N_2  and  C_3 
REMARK    2  A    between atoms: C_3  and  C_5 
REMARK    3  A    between atoms: C_5  and  P_6 
REMARK    4  A    between atoms: P_6  and  O_7 
REMARK    5  A    between atoms: P_6  and  O_8 
ROOT
HETATM    1  C   UNK N   1       2.103  -1.863   0.475  0.00  0.00     0.229 C 
ENDROOT
BRANCH   1   2
HETATM    2  C   UNK N   1       0.762  -1.227   0.250  0.00  0.00     0.252 C 
HETATM    3  N   UNK N   1      -0.320  -2.034   0.140  0.00  0.00    -0.237 N 
HETATM    4  H   UNK N   1      -0.206  -3.011   0.186  0.00  0.00     0.197 HD
HETATM    5  O   UNK N   1       0.646  -0.020   0.202  0.00  0.00    -0.271 OA
BRANCH   3   6
HETATM    6  O   UNK N   1      -1.547  -1.513  -0.031  0.00  0.00    -0.287 OA
HETATM    7  H   UNK N   1      -1.665  -0.559  -0.155  0.00  0.00     0.244 HD
ENDBRANCH   3   6
ENDBRANCH   1   2
BRANCH   1   8
HETATM    8  P   UNK N   1       3.590  -0.828   0.006  0.00  0.00     0.244 P 
HETATM    9  O   UNK N   1       3.424   0.370  -0.971  0.00  0.00    -0.653 OA
BRANCH   8  10
HETATM   10  O   UNK N   1       4.976  -0.562   1.023  0.00  0.00    -0.329 OA
HETATM   11  H   UNK N   1       5.490  -1.158   1.590  0.00  0.00     0.220 HD
ENDBRANCH   8  10
BRANCH   8  12
HETATM   12  O   UNK N   1       4.306  -1.940  -1.093  0.00  0.00    -0.329 OA
HETATM   13  H   UNK N   1       3.964  -2.603  -1.713  0.00  0.00     0.220 HD
ENDBRANCH   8  12
ENDBRANCH   1   8
TORSDOF 5
