MODEL 1
REMARK VINA RESULT:      -6.8      0.000      0.000
REMARK  8 active torsions:
REMARK  status: ('A' for Active; 'I' for Inactive)
REMARK    1  A    between atoms: C_6  and  C_2 
REMARK    2  A    between atoms: O_23  and  C_2 
REMARK    3  A    between atoms: C_7  and  O_18 
REMARK    4  A    between atoms: C_8  and  O_19 
REMARK    5  A    between atoms: C_10  and  N_17 
REMARK    6  A    between atoms: P_25  and  O_20 
REMARK    7  A    between atoms: P_25  and  O_21 
REMARK    8  A    between atoms: P_25  and  O_23 
ROOT
HETATM    1  C   UNK N   1      35.291  15.564  11.188  0.00  0.00     0.180 C 
HETATM    2  C   UNK N   1      36.433  14.830  10.482  0.00  0.00     0.182 C 
HETATM    3  C   UNK N   1      36.594  13.564  11.306  0.00  0.00     0.198 C 
HETATM    4  C   UNK N   1      35.625  13.790  12.459  0.00  0.00     0.262 C 
HETATM    5  O   UNK N   1      34.588  14.586  11.920  0.00  0.00    -0.353 OA
ENDROOT
BRANCH   4   6
HETATM    6  N   UNK N   1      35.093  12.539  13.016  0.00  0.00    -0.297 N 
HETATM    7  C   UNK N   1      34.486  11.543  12.314  0.00  0.00     0.188 A 
HETATM    8  N   UNK N   1      34.086  10.529  13.132  0.00  0.00    -0.348 N 
HETATM    9  C   UNK N   1      34.469  10.920  14.359  0.00  0.00     0.093 A 
ATOM     10  HN  UNK N   1      33.604   9.669  12.872  1.00  0.00     0.167 HD
HETATM   11  C   UNK N   1      34.341  10.266  15.572  0.00  0.00     0.122 A 
HETATM   12  C   UNK N   1      35.069  12.125  14.291  0.00  0.00     0.140 A 
HETATM   13  N   UNK N   1      34.851  10.884  16.679  0.00  0.00    -0.360 N 
HETATM   14  C   UNK N   1      35.464  12.112  16.590  0.00  0.00     0.182 A 
ATOM     15  HN  UNK N   1      34.776  10.428  17.589  1.00  0.00     0.166 HD
HETATM   16  N   UNK N   1      35.574  12.747  15.382  0.00  0.00    -0.336 N 
ATOM     17  HN  UNK N   1      36.021  13.661  15.308  1.00  0.00     0.168 HD
ENDBRANCH   4   6
BRANCH   3  18
HETATM   18  O   UNK N   1      37.905  13.353  11.744  0.00  0.00    -0.388 OA
HETATM   19  H   UNK N   1      38.478  13.916  12.287  0.00  0.00     0.210 HD
ENDBRANCH   3  18
BRANCH   2  20
HETATM   20  O   UNK N   1      37.583  15.622  10.425  0.00  0.00    -0.390 OA
HETATM   21  H   UNK N   1      38.528  15.408  10.486  0.00  0.00     0.210 HD
ENDBRANCH   2  20
BRANCH   1  22
HETATM   22  C   UNK N   1      34.421  16.268  10.148  0.00  0.00     0.215 C 
BRANCH  22  23
HETATM   23  O   UNK N   1      35.077  17.346   9.536  0.00  0.00    -0.294 OA
BRANCH  23  24
HETATM   24  P   UNK N   1      34.020  17.973   8.296  0.00  0.00     0.390 P 
HETATM   25  O   UNK N   1      35.038  19.148   8.276  0.00  0.00    -0.632 OA
BRANCH  24  26
HETATM   26  O   UNK N   1      34.431  17.999   6.609  0.00  0.00    -0.307 OA
HETATM   27  H   UNK N   1      35.039  17.344   6.231  0.00  0.00     0.222 HD
ENDBRANCH  24  26
BRANCH  24  28
HETATM   28  O   UNK N   1      34.911  16.576   7.776  0.00  0.00    -0.307 OA
HETATM   29  H   UNK N   1      34.521  15.689   7.725  0.00  0.00     0.222 HD
ENDBRANCH  24  28
ENDBRANCH  23  24
ENDBRANCH  22  23
ENDBRANCH   1  22
TORSDOF 8
ENDMDL
MODEL 2
REMARK VINA RESULT:      -6.7     13.480     14.690
REMARK  8 active torsions:
REMARK  status: ('A' for Active; 'I' for Inactive)
REMARK    1  A    between atoms: C_6  and  C_2 
REMARK    2  A    between atoms: O_23  and  C_2 
REMARK    3  A    between atoms: C_7  and  O_18 
REMARK    4  A    between atoms: C_8  and  O_19 
REMARK    5  A    between atoms: C_10  and  N_17 
REMARK    6  A    between atoms: P_25  and  O_20 
REMARK    7  A    between atoms: P_25  and  O_21 
REMARK    8  A    between atoms: P_25  and  O_23 
ROOT
HETATM    1  C   UNK N   1      20.817  14.967   6.893  0.00  0.00     0.180 C 
HETATM    2  C   UNK N   1      20.099  15.919   7.851  0.00  0.00     0.182 C 
HETATM    3  C   UNK N   1      20.061  15.139   9.153  0.00  0.00     0.198 C 
HETATM    4  C   UNK N   1      20.635  13.787   8.751  0.00  0.00     0.262 C 
HETATM    5  O   UNK N   1      21.541  14.068   7.702  0.00  0.00    -0.353 OA
ENDROOT
BRANCH   4   6
HETATM    6  N   UNK N   1      21.309  13.095   9.857  0.00  0.00    -0.297 N 
HETATM    7  C   UNK N   1      20.700  12.442  10.884  0.00  0.00     0.188 A 
HETATM    8  N   UNK N   1      21.610  11.926  11.757  0.00  0.00    -0.348 N 
HETATM    9  C   UNK N   1      22.801  12.270  11.238  0.00  0.00     0.093 A 
ATOM     10  HN  UNK N   1      21.429  11.399  12.612  1.00  0.00     0.167 HD
HETATM   11  C   UNK N   1      24.076  11.987  11.697  0.00  0.00     0.122 A 
HETATM   12  C   UNK N   1      22.621  12.973  10.103  0.00  0.00     0.140 A 
HETATM   13  N   UNK N   1      25.129  12.438  10.950  0.00  0.00    -0.360 N 
HETATM   14  C   UNK N   1      24.926  13.150   9.791  0.00  0.00     0.182 A 
ATOM     15  HN  UNK N   1      26.082  12.245  11.259  1.00  0.00     0.166 HD
HETATM   16  N   UNK N   1      23.657  13.427   9.359  0.00  0.00    -0.336 N 
ATOM     17  HN  UNK N   1      23.498  13.959   8.504  1.00  0.00     0.168 HD
ENDBRANCH   4   6
BRANCH   3  18
HETATM   18  O   UNK N   1      18.778  15.033   9.698  0.00  0.00    -0.388 OA
HETATM   19  H   UNK N   1      18.213  15.714  10.097  0.00  0.00     0.210 HD
ENDBRANCH   3  18
BRANCH   2  20
HETATM   20  O   UNK N   1      18.838  16.271   7.361  0.00  0.00    -0.390 OA
HETATM   21  H   UNK N   1      17.939  16.068   7.666  0.00  0.00     0.210 HD
ENDBRANCH   2  20
BRANCH   1  22
HETATM   22  C   UNK N   1      21.712  15.772   5.952  0.00  0.00     0.215 C 
BRANCH  22  23
HETATM   23  O   UNK N   1      20.994  16.713   5.199  0.00  0.00    -0.294 OA
BRANCH  23  24
HETATM   24  P   UNK N   1      20.200  15.855   3.901  0.00  0.00     0.390 P 
HETATM   25  O   UNK N   1      18.926  16.543   4.468  0.00  0.00    -0.632 OA
BRANCH  24  26
HETATM   26  O   UNK N   1      19.601  16.628   2.467  0.00  0.00    -0.307 OA
HETATM   27  H   UNK N   1      20.049  17.403   2.090  0.00  0.00     0.222 HD
ENDBRANCH  24  26
BRANCH  24  28
HETATM   28  O   UNK N   1      21.213  17.147   3.333  0.00  0.00    -0.307 OA
HETATM   29  H   UNK N   1      22.085  16.999   2.934  0.00  0.00     0.222 HD
ENDBRANCH  24  28
ENDBRANCH  23  24
ENDBRANCH  22  23
ENDBRANCH   1  22
TORSDOF 8
ENDMDL
MODEL 3
REMARK VINA RESULT:      -6.7      5.401      8.294
REMARK  8 active torsions:
REMARK  status: ('A' for Active; 'I' for Inactive)
REMARK    1  A    between atoms: C_6  and  C_2 
REMARK    2  A    between atoms: O_23  and  C_2 
REMARK    3  A    between atoms: C_7  and  O_18 
REMARK    4  A    between atoms: C_8  and  O_19 
REMARK    5  A    between atoms: C_10  and  N_17 
REMARK    6  A    between atoms: P_25  and  O_20 
REMARK    7  A    between atoms: P_25  and  O_21 
REMARK    8  A    between atoms: P_25  and  O_23 
ROOT
HETATM    1  C   UNK N   1      34.668  15.571   9.007  0.00  0.00     0.180 C 
HETATM    2  C   UNK N   1      34.502  16.965   9.615  0.00  0.00     0.182 C 
HETATM    3  C   UNK N   1      34.058  17.808   8.432  0.00  0.00     0.198 C 
HETATM    4  C   UNK N   1      34.157  16.831   7.268  0.00  0.00     0.262 C 
HETATM    5  O   UNK N   1      33.894  15.560   7.829  0.00  0.00    -0.353 OA
ENDROOT
BRANCH   4   6
HETATM    6  N   UNK N   1      33.214  17.131   6.182  0.00  0.00    -0.297 N 
HETATM    7  C   UNK N   1      33.543  17.510   4.916  0.00  0.00     0.188 A 
HETATM    8  N   UNK N   1      32.432  17.734   4.159  0.00  0.00    -0.348 N 
HETATM    9  C   UNK N   1      31.406  17.476   4.988  0.00  0.00     0.093 A 
ATOM     10  HN  UNK N   1      32.390  18.032   3.184  1.00  0.00     0.167 HD
HETATM   11  C   UNK N   1      30.045  17.517   4.742  0.00  0.00     0.122 A 
HETATM   12  C   UNK N   1      31.874  17.119   6.200  0.00  0.00     0.140 A 
HETATM   13  N   UNK N   1      29.209  17.174   5.768  0.00  0.00    -0.360 N 
HETATM   14  C   UNK N   1      29.704  16.807   6.998  0.00  0.00     0.182 A 
ATOM     15  HN  UNK N   1      28.199  17.191   5.620  1.00  0.00     0.166 HD
HETATM   16  N   UNK N   1      31.054  16.781   7.223  0.00  0.00    -0.336 N 
ATOM     17  HN  UNK N   1      31.429  16.516   8.133  1.00  0.00     0.168 HD
ENDBRANCH   4   6
BRANCH   3  18
HETATM   18  O   UNK N   1      34.844  18.948   8.239  0.00  0.00    -0.388 OA
HETATM   19  H   UNK N   1      35.740  19.033   7.877  0.00  0.00     0.210 HD
ENDBRANCH   3  18
BRANCH   2  20
HETATM   20  O   UNK N   1      35.689  17.400  10.210  0.00  0.00    -0.390 OA
HETATM   21  H   UNK N   1      35.865  17.972  10.975  0.00  0.00     0.210 HD
ENDBRANCH   2  20
BRANCH   1  22
HETATM   22  C   UNK N   1      34.221  14.519  10.022  0.00  0.00     0.215 C 
BRANCH  22  23
HETATM   23  O   UNK N   1      34.430  14.926  11.348  0.00  0.00    -0.294 OA
BRANCH  23  24
HETATM   24  P   UNK N   1      35.844  14.089  11.940  0.00  0.00     0.390 P 
HETATM   25  O   UNK N   1      36.149  15.457  12.613  0.00  0.00    -0.632 OA
BRANCH  24  26
HETATM   26  O   UNK N   1      36.040  13.586  13.590  0.00  0.00    -0.307 OA
HETATM   27  H   UNK N   1      35.590  14.053  14.313  0.00  0.00     0.222 HD
ENDBRANCH  24  26
BRANCH  24  28
HETATM   28  O   UNK N   1      34.374  13.526  12.673  0.00  0.00    -0.307 OA
HETATM   29  H   UNK N   1      33.642  13.144  12.164  0.00  0.00     0.222 HD
ENDBRANCH  24  28
ENDBRANCH  23  24
ENDBRANCH  22  23
ENDBRANCH   1  22
TORSDOF 8
ENDMDL
MODEL 4
REMARK VINA RESULT:      -6.6      6.309      8.988
REMARK  8 active torsions:
REMARK  status: ('A' for Active; 'I' for Inactive)
REMARK    1  A    between atoms: C_6  and  C_2 
REMARK    2  A    between atoms: O_23  and  C_2 
REMARK    3  A    between atoms: C_7  and  O_18 
REMARK    4  A    between atoms: C_8  and  O_19 
REMARK    5  A    between atoms: C_10  and  N_17 
REMARK    6  A    between atoms: P_25  and  O_20 
REMARK    7  A    between atoms: P_25  and  O_21 
REMARK    8  A    between atoms: P_25  and  O_23 
ROOT
HETATM    1  C   UNK N   1      32.867  15.763   7.612  0.00  0.00     0.180 C 
HETATM    2  C   UNK N   1      33.733  16.819   6.921  0.00  0.00     0.182 C 
HETATM    3  C   UNK N   1      32.824  17.350   5.826  0.00  0.00     0.198 C 
HETATM    4  C   UNK N   1      31.606  16.443   5.932  0.00  0.00     0.262 C 
HETATM    5  O   UNK N   1      31.531  16.083   7.298  0.00  0.00    -0.353 OA
ENDROOT
BRANCH   4   6
HETATM    6  N   UNK N   1      30.364  17.093   5.492  0.00  0.00    -0.297 N 
HETATM    7  C   UNK N   1      29.905  17.160   4.212  0.00  0.00     0.188 A 
HETATM    8  N   UNK N   1      28.734  17.853   4.138  0.00  0.00    -0.348 N 
HETATM    9  C   UNK N   1      28.474  18.205   5.409  0.00  0.00     0.093 A 
ATOM     10  HN  UNK N   1      28.180  18.058   3.306  1.00  0.00     0.167 HD
HETATM   11  C   UNK N   1      27.397  18.903   5.926  0.00  0.00     0.122 A 
HETATM   12  C   UNK N   1      29.452  17.753   6.219  0.00  0.00     0.140 A 
HETATM   13  N   UNK N   1      27.366  19.101   7.279  0.00  0.00    -0.360 N 
HETATM   14  C   UNK N   1      28.370  18.629   8.091  0.00  0.00     0.182 A 
ATOM     15  HN  UNK N   1      26.584  19.610   7.693  1.00  0.00     0.166 HD
HETATM   16  N   UNK N   1      29.431  17.948   7.558  0.00  0.00    -0.336 N 
ATOM     17  HN  UNK N   1      30.184  17.599   8.153  1.00  0.00     0.168 HD
ENDBRANCH   4   6
BRANCH   3  18
HETATM   18  O   UNK N   1      33.408  17.313   4.557  0.00  0.00    -0.388 OA
HETATM   19  H   UNK N   1      33.018  17.491   3.686  0.00  0.00     0.210 HD
ENDBRANCH   3  18
BRANCH   2  20
HETATM   20  O   UNK N   1      34.926  16.264   6.452  0.00  0.00    -0.390 OA
HETATM   21  H   UNK N   1      35.521  16.513   5.726  0.00  0.00     0.210 HD
ENDBRANCH   2  20
BRANCH   1  22
HETATM   22  C   UNK N   1      33.146  15.782   9.115  0.00  0.00     0.215 C 
BRANCH  22  23
HETATM   23  O   UNK N   1      34.202  16.639   9.456  0.00  0.00    -0.294 OA
BRANCH  23  24
HETATM   24  P   UNK N   1      35.227  15.789  10.587  0.00  0.00     0.390 P 
HETATM   25  O   UNK N   1      35.807  15.144   9.296  0.00  0.00    -0.632 OA
BRANCH  24  26
HETATM   26  O   UNK N   1      36.915  16.135  10.798  0.00  0.00    -0.307 OA
HETATM   27  H   UNK N   1      37.429  15.713  11.505  0.00  0.00     0.222 HD
ENDBRANCH  24  26
BRANCH  24  28
HETATM   28  O   UNK N   1      35.608  17.480  10.474  0.00  0.00    -0.307 OA
HETATM   29  H   UNK N   1      35.604  18.075  11.240  0.00  0.00     0.222 HD
ENDBRANCH  24  28
ENDBRANCH  23  24
ENDBRANCH  22  23
ENDBRANCH   1  22
TORSDOF 8
ENDMDL
MODEL 5
REMARK VINA RESULT:      -6.4      5.346      7.957
REMARK  8 active torsions:
REMARK  status: ('A' for Active; 'I' for Inactive)
REMARK    1  A    between atoms: C_6  and  C_2 
REMARK    2  A    between atoms: O_23  and  C_2 
REMARK    3  A    between atoms: C_7  and  O_18 
REMARK    4  A    between atoms: C_8  and  O_19 
REMARK    5  A    between atoms: C_10  and  N_17 
REMARK    6  A    between atoms: P_25  and  O_20 
REMARK    7  A    between atoms: P_25  and  O_21 
REMARK    8  A    between atoms: P_25  and  O_23 
ROOT
HETATM    1  C   UNK N   1      34.432  15.920   9.345  0.00  0.00     0.180 C 
HETATM    2  C   UNK N   1      33.545  14.845   9.976  0.00  0.00     0.182 C 
HETATM    3  C   UNK N   1      32.149  15.237   9.523  0.00  0.00     0.198 C 
HETATM    4  C   UNK N   1      32.388  16.560   8.808  0.00  0.00     0.262 C 
HETATM    5  O   UNK N   1      33.694  16.460   8.273  0.00  0.00    -0.353 OA
ENDROOT
BRANCH   4   6
HETATM    6  N   UNK N   1      31.406  16.828   7.749  0.00  0.00    -0.297 N 
HETATM    7  C   UNK N   1      31.604  16.670   6.412  0.00  0.00     0.188 A 
HETATM    8  N   UNK N   1      30.500  17.027   5.698  0.00  0.00    -0.348 N 
HETATM    9  C   UNK N   1      29.609  17.404   6.630  0.00  0.00     0.093 A 
ATOM     10  HN  UNK N   1      30.379  17.013   4.685  1.00  0.00     0.167 HD
HETATM   11  C   UNK N   1      28.304  17.839   6.474  0.00  0.00     0.122 A 
HETATM   12  C   UNK N   1      30.151  17.288   7.857  0.00  0.00     0.140 A 
HETATM   13  N   UNK N   1      27.599  18.134   7.608  0.00  0.00    -0.360 N 
HETATM   14  C   UNK N   1      28.168  18.005   8.854  0.00  0.00     0.182 A 
ATOM     15  HN  UNK N   1      26.634  18.455   7.529  1.00  0.00     0.166 HD
HETATM   16  N   UNK N   1      29.462  17.580   8.985  0.00  0.00    -0.336 N 
ATOM     17  HN  UNK N   1      29.894  17.488   9.905  1.00  0.00     0.168 HD
ENDBRANCH   4   6
BRANCH   3  18
HETATM   18  O   UNK N   1      31.239  15.358  10.577  0.00  0.00    -0.388 OA
HETATM   19  H   UNK N   1      30.422  14.865  10.754  0.00  0.00     0.210 HD
ENDBRANCH   3  18
BRANCH   2  20
HETATM   20  O   UNK N   1      33.704  14.810  11.364  0.00  0.00    -0.390 OA
HETATM   21  H   UNK N   1      33.162  15.154  12.093  0.00  0.00     0.210 HD
ENDBRANCH   2  20
BRANCH   1  22
HETATM   22  C   UNK N   1      35.753  15.292   8.901  0.00  0.00     0.215 C 
BRANCH  22  23
HETATM   23  O   UNK N   1      36.719  15.295   9.918  0.00  0.00    -0.294 OA
BRANCH  23  24
HETATM   24  P   UNK N   1      37.280  13.653  10.118  0.00  0.00     0.390 P 
HETATM   25  O   UNK N   1      38.656  14.268   9.733  0.00  0.00    -0.632 OA
BRANCH  24  26
HETATM   26  O   UNK N   1      38.243  13.127  11.464  0.00  0.00    -0.307 OA
HETATM   27  H   UNK N   1      39.211  13.085  11.401  0.00  0.00     0.222 HD
ENDBRANCH  24  26
BRANCH  24  28
HETATM   28  O   UNK N   1      36.840  14.402  11.623  0.00  0.00    -0.307 OA
HETATM   29  H   UNK N   1      36.057  14.965  11.724  0.00  0.00     0.222 HD
ENDBRANCH  24  28
ENDBRANCH  23  24
ENDBRANCH  22  23
ENDBRANCH   1  22
TORSDOF 8
ENDMDL
MODEL 6
REMARK VINA RESULT:      -6.4      4.732      7.896
REMARK  8 active torsions:
REMARK  status: ('A' for Active; 'I' for Inactive)
REMARK    1  A    between atoms: C_6  and  C_2 
REMARK    2  A    between atoms: O_23  and  C_2 
REMARK    3  A    between atoms: C_7  and  O_18 
REMARK    4  A    between atoms: C_8  and  O_19 
REMARK    5  A    between atoms: C_10  and  N_17 
REMARK    6  A    between atoms: P_25  and  O_20 
REMARK    7  A    between atoms: P_25  and  O_21 
REMARK    8  A    between atoms: P_25  and  O_23 
ROOT
HETATM    1  C   UNK N   1      35.159  14.578  10.226  0.00  0.00     0.180 C 
HETATM    2  C   UNK N   1      35.348  15.988  10.788  0.00  0.00     0.182 C 
HETATM    3  C   UNK N   1      34.560  16.855   9.821  0.00  0.00     0.198 C 
HETATM    4  C   UNK N   1      34.133  15.860   8.750  0.00  0.00     0.262 C 
HETATM    5  O   UNK N   1      34.000  14.625   9.425  0.00  0.00    -0.353 OA
ENDROOT
BRANCH   4   6
HETATM    6  N   UNK N   1      32.878  16.234   8.085  0.00  0.00    -0.297 N 
HETATM    7  C   UNK N   1      31.632  16.169   8.628  0.00  0.00     0.188 A 
HETATM    8  N   UNK N   1      30.678  16.566   7.740  0.00  0.00    -0.348 N 
HETATM    9  C   UNK N   1      31.369  16.889   6.633  0.00  0.00     0.093 A 
ATOM     10  HN  UNK N   1      29.669  16.609   7.882  1.00  0.00     0.167 HD
HETATM   11  C   UNK N   1      30.911  17.379   5.422  0.00  0.00     0.122 A 
HETATM   12  C   UNK N   1      32.685  16.686   6.838  0.00  0.00     0.140 A 
HETATM   13  N   UNK N   1      31.844  17.655   4.461  0.00  0.00    -0.360 N 
HETATM   14  C   UNK N   1      33.185  17.447   4.689  0.00  0.00     0.182 A 
ATOM     15  HN  UNK N   1      31.541  18.020   3.558  1.00  0.00     0.166 HD
HETATM   16  N   UNK N   1      33.615  16.953   5.891  0.00  0.00    -0.336 N 
ATOM     17  HN  UNK N   1      34.607  16.790   6.066  1.00  0.00     0.168 HD
ENDBRANCH   4   6
BRANCH   3  18
HETATM   18  O   UNK N   1      35.304  17.916   9.297  0.00  0.00    -0.388 OA
HETATM   19  H   UNK N   1      35.149  18.873   9.352  0.00  0.00     0.210 HD
ENDBRANCH   3  18
BRANCH   2  20
HETATM   20  O   UNK N   1      36.703  16.320  10.875  0.00  0.00    -0.390 OA
HETATM   21  H   UNK N   1      37.363  16.552  10.202  0.00  0.00     0.210 HD
ENDBRANCH   2  20
BRANCH   1  22
HETATM   22  C   UNK N   1      35.045  13.582  11.379  0.00  0.00     0.215 C 
BRANCH  22  23
HETATM   23  O   UNK N   1      35.014  14.211  12.633  0.00  0.00    -0.294 OA
BRANCH  23  24
HETATM   24  P   UNK N   1      35.731  13.117  13.790  0.00  0.00     0.390 P 
HETATM   25  O   UNK N   1      35.774  12.148  12.575  0.00  0.00    -0.632 OA
BRANCH  24  26
HETATM   26  O   UNK N   1      37.414  12.691  13.793  0.00  0.00    -0.307 OA
HETATM   27  H   UNK N   1      37.824  12.273  14.566  0.00  0.00     0.222 HD
ENDBRANCH  24  26
BRANCH  24  28
HETATM   28  O   UNK N   1      36.781  14.435  13.372  0.00  0.00    -0.307 OA
HETATM   29  H   UNK N   1      37.183  15.022  14.032  0.00  0.00     0.222 HD
ENDBRANCH  24  28
ENDBRANCH  23  24
ENDBRANCH  22  23
ENDBRANCH   1  22
TORSDOF 8
ENDMDL
MODEL 7
REMARK VINA RESULT:      -6.3     19.544     21.743
REMARK  8 active torsions:
REMARK  status: ('A' for Active; 'I' for Inactive)
REMARK    1  A    between atoms: C_6  and  C_2 
REMARK    2  A    between atoms: O_23  and  C_2 
REMARK    3  A    between atoms: C_7  and  O_18 
REMARK    4  A    between atoms: C_8  and  O_19 
REMARK    5  A    between atoms: C_10  and  N_17 
REMARK    6  A    between atoms: P_25  and  O_20 
REMARK    7  A    between atoms: P_25  and  O_21 
REMARK    8  A    between atoms: P_25  and  O_23 
ROOT
HETATM    1  C   UNK N   1      28.018  23.815  -4.370  0.00  0.00     0.180 C 
HETATM    2  C   UNK N   1      27.365  24.032  -5.736  0.00  0.00     0.182 C 
HETATM    3  C   UNK N   1      26.610  25.337  -5.556  0.00  0.00     0.198 C 
HETATM    4  C   UNK N   1      26.806  25.637  -4.076  0.00  0.00     0.262 C 
HETATM    5  O   UNK N   1      28.065  25.080  -3.750  0.00  0.00    -0.353 OA
ENDROOT
BRANCH   4   6
HETATM    6  N   UNK N   1      26.771  27.073  -3.770  0.00  0.00    -0.297 N 
HETATM    7  C   UNK N   1      25.654  27.825  -3.574  0.00  0.00     0.188 A 
HETATM    8  N   UNK N   1      25.966  29.129  -3.331  0.00  0.00    -0.348 N 
HETATM    9  C   UNK N   1      27.308  29.163  -3.372  0.00  0.00     0.093 A 
ATOM     10  HN  UNK N   1      25.325  29.903  -3.157  1.00  0.00     0.167 HD
HETATM   11  C   UNK N   1      28.168  30.228  -3.169  0.00  0.00     0.122 A 
HETATM   12  C   UNK N   1      27.791  27.934  -3.638  0.00  0.00     0.140 A 
HETATM   13  N   UNK N   1      29.511  29.977  -3.240  0.00  0.00    -0.360 N 
HETATM   14  C   UNK N   1      29.986  28.715  -3.508  0.00  0.00     0.182 A 
ATOM     15  HN  UNK N   1      30.172  30.740  -3.093  1.00  0.00     0.166 HD
HETATM   16  N   UNK N   1      29.118  27.676  -3.714  0.00  0.00    -0.336 N 
ATOM     17  HN  UNK N   1      29.462  26.738  -3.920  1.00  0.00     0.168 HD
ENDBRANCH   4   6
BRANCH   3  18
HETATM   18  O   UNK N   1      25.259  25.248  -5.908  0.00  0.00    -0.388 OA
HETATM   19  H   UNK N   1      24.467  25.297  -5.350  0.00  0.00     0.210 HD
ENDBRANCH   3  18
BRANCH   2  20
HETATM   20  O   UNK N   1      26.554  22.948  -6.085  0.00  0.00    -0.390 OA
HETATM   21  H   UNK N   1      26.427  22.470  -6.920  0.00  0.00     0.210 HD
ENDBRANCH   2  20
BRANCH   1  22
HETATM   22  C   UNK N   1      29.402  23.195  -4.561  0.00  0.00     0.215 C 
BRANCH  22  23
HETATM   23  O   UNK N   1      29.714  22.257  -3.566  0.00  0.00    -0.294 OA
BRANCH  23  24
HETATM   24  P   UNK N   1      31.397  22.469  -3.150  0.00  0.00     0.390 P 
HETATM   25  O   UNK N   1      30.815  22.900  -1.774  0.00  0.00    -0.632 OA
BRANCH  24  26
HETATM   26  O   UNK N   1      32.267  21.398  -2.096  0.00  0.00    -0.307 OA
HETATM   27  H   UNK N   1      32.709  20.606  -2.440  0.00  0.00     0.222 HD
ENDBRANCH  24  26
BRANCH  24  28
HETATM   28  O   UNK N   1      30.957  20.800  -3.340  0.00  0.00    -0.307 OA
HETATM   29  H   UNK N   1      31.252  20.257  -4.088  0.00  0.00     0.222 HD
ENDBRANCH  24  28
ENDBRANCH  23  24
ENDBRANCH  22  23
ENDBRANCH   1  22
TORSDOF 8
ENDMDL
MODEL 8
REMARK VINA RESULT:      -6.3      6.248      8.664
REMARK  8 active torsions:
REMARK  status: ('A' for Active; 'I' for Inactive)
REMARK    1  A    between atoms: C_6  and  C_2 
REMARK    2  A    between atoms: O_23  and  C_2 
REMARK    3  A    between atoms: C_7  and  O_18 
REMARK    4  A    between atoms: C_8  and  O_19 
REMARK    5  A    between atoms: C_10  and  N_17 
REMARK    6  A    between atoms: P_25  and  O_20 
REMARK    7  A    between atoms: P_25  and  O_21 
REMARK    8  A    between atoms: P_25  and  O_23 
ROOT
HETATM    1  C   UNK N   1      33.857  17.751   7.992  0.00  0.00     0.180 C 
HETATM    2  C   UNK N   1      32.487  17.119   8.249  0.00  0.00     0.182 C 
HETATM    3  C   UNK N   1      31.975  16.821   6.850  0.00  0.00     0.198 C 
HETATM    4  C   UNK N   1      33.045  17.443   5.962  0.00  0.00     0.262 C 
HETATM    5  O   UNK N   1      34.246  17.338   6.702  0.00  0.00    -0.353 OA
ENDROOT
BRANCH   4   6
HETATM    6  N   UNK N   1      33.171  16.776   4.659  0.00  0.00    -0.297 N 
HETATM    7  C   UNK N   1      32.610  17.189   3.490  0.00  0.00     0.188 A 
HETATM    8  N   UNK N   1      32.900  16.335   2.468  0.00  0.00    -0.348 N 
HETATM    9  C   UNK N   1      33.665  15.386   3.035  0.00  0.00     0.093 A 
ATOM     10  HN  UNK N   1      32.604  16.401   1.494  1.00  0.00     0.167 HD
HETATM   11  C   UNK N   1      34.266  14.280   2.459  0.00  0.00     0.122 A 
HETATM   12  C   UNK N   1      33.824  15.648   4.347  0.00  0.00     0.140 A 
HETATM   13  N   UNK N   1      35.025  13.482   3.270  0.00  0.00    -0.360 N 
HETATM   14  C   UNK N   1      35.181  13.768   4.606  0.00  0.00     0.182 A 
ATOM     15  HN  UNK N   1      35.484  12.660   2.876  1.00  0.00     0.166 HD
HETATM   16  N   UNK N   1      34.571  14.862   5.158  0.00  0.00    -0.336 N 
ATOM     17  HN  UNK N   1      34.675  15.077   6.149  1.00  0.00     0.168 HD
ENDBRANCH   4   6
BRANCH   3  18
HETATM   18  O   UNK N   1      30.704  17.349   6.603  0.00  0.00    -0.388 OA
HETATM   19  H   UNK N   1      29.927  17.396   7.181  0.00  0.00     0.210 HD
ENDBRANCH   3  18
BRANCH   2  20
HETATM   20  O   UNK N   1      31.666  17.976   8.986  0.00  0.00    -0.390 OA
HETATM   21  H   UNK N   1      30.745  18.258   8.869  0.00  0.00     0.210 HD
ENDBRANCH   2  20
BRANCH   1  22
HETATM   22  C   UNK N   1      34.834  17.304   9.079  0.00  0.00     0.215 C 
BRANCH  22  23
HETATM   23  O   UNK N   1      34.215  16.538  10.078  0.00  0.00    -0.294 OA
BRANCH  23  24
HETATM   24  P   UNK N   1      35.477  15.771  11.012  0.00  0.00     0.390 P 
HETATM   25  O   UNK N   1      35.692  14.949   9.709  0.00  0.00    -0.632 OA
BRANCH  24  26
HETATM   26  O   UNK N   1      37.170  16.049  10.746  0.00  0.00    -0.307 OA
HETATM   27  H   UNK N   1      37.576  16.906  10.950  0.00  0.00     0.222 HD
ENDBRANCH  24  26
BRANCH  24  28
HETATM   28  O   UNK N   1      35.854  17.414  10.593  0.00  0.00    -0.307 OA
HETATM   29  H   UNK N   1      36.739  17.700  10.318  0.00  0.00     0.222 HD
ENDBRANCH  24  28
ENDBRANCH  23  24
ENDBRANCH  22  23
ENDBRANCH   1  22
TORSDOF 8
ENDMDL
MODEL 9
REMARK VINA RESULT:      -6.3      5.960      8.142
REMARK  8 active torsions:
REMARK  status: ('A' for Active; 'I' for Inactive)
REMARK    1  A    between atoms: C_6  and  C_2 
REMARK    2  A    between atoms: O_23  and  C_2 
REMARK    3  A    between atoms: C_7  and  O_18 
REMARK    4  A    between atoms: C_8  and  O_19 
REMARK    5  A    between atoms: C_10  and  N_17 
REMARK    6  A    between atoms: P_25  and  O_20 
REMARK    7  A    between atoms: P_25  and  O_21 
REMARK    8  A    between atoms: P_25  and  O_23 
ROOT
HETATM    1  C   UNK N   1      28.954  17.643   7.148  0.00  0.00     0.180 C 
HETATM    2  C   UNK N   1      28.748  18.204   8.556  0.00  0.00     0.182 C 
HETATM    3  C   UNK N   1      30.033  17.825   9.273  0.00  0.00     0.198 C 
HETATM    4  C   UNK N   1      30.756  16.975   8.236  0.00  0.00     0.262 C 
HETATM    5  O   UNK N   1      30.346  17.491   6.985  0.00  0.00    -0.353 OA
ENDROOT
BRANCH   4   6
HETATM    6  N   UNK N   1      32.218  17.023   8.372  0.00  0.00    -0.297 N 
HETATM    7  C   UNK N   1      33.058  17.858   7.701  0.00  0.00     0.188 A 
HETATM    8  N   UNK N   1      34.359  17.632   8.038  0.00  0.00    -0.348 N 
HETATM    9  C   UNK N   1      34.301  16.641   8.943  0.00  0.00     0.093 A 
ATOM     10  HN  UNK N   1      35.189  18.108   7.683  1.00  0.00     0.167 HD
HETATM   11  C   UNK N   1      35.326  16.028   9.644  0.00  0.00     0.122 A 
HETATM   12  C   UNK N   1      33.020  16.274   9.141  0.00  0.00     0.140 A 
HETATM   13  N   UNK N   1      34.982  15.053  10.539  0.00  0.00    -0.360 N 
HETATM   14  C   UNK N   1      33.668  14.694  10.731  0.00  0.00     0.182 A 
ATOM     15  HN  UNK N   1      35.713  14.583  11.073  1.00  0.00     0.166 HD
HETATM   16  N   UNK N   1      32.671  15.307  10.022  0.00  0.00    -0.336 N 
ATOM     17  HN  UNK N   1      31.694  15.043  10.153  1.00  0.00     0.168 HD
ENDBRANCH   4   6
BRANCH   3  18
HETATM   18  O   UNK N   1      29.815  17.135  10.469  0.00  0.00    -0.388 OA
HETATM   19  H   UNK N   1      30.285  17.194  11.316  0.00  0.00     0.210 HD
ENDBRANCH   3  18
BRANCH   2  20
HETATM   20  O   UNK N   1      27.593  17.682   9.143  0.00  0.00    -0.390 OA
HETATM   21  H   UNK N   1      26.649  17.809   8.955  0.00  0.00     0.210 HD
ENDBRANCH   2  20
BRANCH   1  22
HETATM   22  C   UNK N   1      28.336  18.596   6.126  0.00  0.00     0.215 C 
BRANCH  22  23
HETATM   23  O   UNK N   1      27.124  19.146   6.566  0.00  0.00    -0.294 OA
BRANCH  23  24
HETATM   24  P   UNK N   1      27.207  20.873   6.318  0.00  0.00     0.390 P 
HETATM   25  O   UNK N   1      26.100  20.591   5.262  0.00  0.00    -0.632 OA
BRANCH  24  26
HETATM   26  O   UNK N   1      25.979  21.978   6.853  0.00  0.00    -0.307 OA
HETATM   27  H   UNK N   1      25.073  21.676   7.026  0.00  0.00     0.222 HD
ENDBRANCH  24  26
BRANCH  24  28
HETATM   28  O   UNK N   1      26.508  20.447   7.850  0.00  0.00    -0.307 OA
HETATM   29  H   UNK N   1      25.569  20.232   7.961  0.00  0.00     0.222 HD
ENDBRANCH  24  28
ENDBRANCH  23  24
ENDBRANCH  22  23
ENDBRANCH   1  22
TORSDOF 8
ENDMDL
