MODEL 1
REMARK VINA RESULT:      -5.9      0.000      0.000
REMARK  9 active torsions:
REMARK  status: ('A' for Active; 'I' for Inactive)
REMARK    1  A    between atoms: C_6  and  C_2 
REMARK    2  A    between atoms: N_11  and  C_3 
REMARK    3  A    between atoms: C_10  and  C_7 
REMARK    4  A    between atoms: N_16  and  C_7 
REMARK    5  A    between atoms: C_9  and  C_8 
REMARK    6  A    between atoms: C_10  and  C_8 
REMARK    7  A    between atoms: C_8  and  N_11 
REMARK    8  A    between atoms: O_19  and  C_9 
REMARK    9  A    between atoms: C_10  and  S_22 
ROOT
HETATM    1  C   UNK N   1      32.028  15.523   9.489  0.00  0.00     0.037 C 
HETATM    2  C   UNK N   1      32.560  16.443   8.377  0.00  0.00     0.122 C 
ENDROOT
BRANCH   2   3
HETATM    3  C   UNK N   1      31.787  17.778   8.266  0.00  0.00     0.178 C 
BRANCH   3   4
HETATM    4  N   UNK N   1      30.384  17.742   8.647  0.00  0.00    -0.286 N 
HETATM    5  C   UNK N   1      29.363  17.319   7.885  0.00  0.00     0.130 A 
HETATM    6  C   UNK N   1      28.208  17.589   8.600  0.00  0.00     0.127 A 
HETATM    7  N   UNK N   1      28.581  18.182   9.756  0.00  0.00    -0.296 N 
HETATM    8  N   UNK N   1      29.900  18.270   9.754  0.00  0.00    -0.241 N 
ATOM      9  HN  UNK N   1      27.957  18.502  10.496  1.00  0.00     0.187 HD
ATOM     10  HN  UNK N   1      30.460  18.684  10.499  1.00  0.00     0.208 HD
ENDBRANCH   3   4
ENDBRANCH   2   3
BRANCH   2  11
HETATM   11  C   UNK N   1      34.049  16.833   8.650  0.00  0.00     0.205 C 
BRANCH  11  12
HETATM   12  C   UNK N   1      34.543  18.041   7.855  0.00  0.00     0.165 C 
HETATM   13  O   UNK N   1      34.949  19.047   8.415  0.00  0.00    -0.648 OA
BRANCH  12  14
HETATM   14  O   UNK N   1      34.506  18.011   6.509  0.00  0.00    -0.775 OA
HETATM   15  H   UNK N   1      34.208  17.276   6.009  0.00  0.00     0.167 HD
ENDBRANCH  12  14
ENDBRANCH  11  12
BRANCH  11  16
HETATM   16  N   UNK N   1      34.286  16.960  10.078  0.00  0.00    -0.383 N 
HETATM   17  H   UNK N   1      33.627  17.489  10.584  0.00  0.00     0.159 HD
BRANCH  16  18
HETATM   18  C   UNK N   1      35.356  16.412  10.831  0.00  0.00     0.087 C 
HETATM   19  C   UNK N   1      35.127  15.312  11.561  0.00  0.00     0.058 C 
BRANCH  19  20
HETATM   20  C   UNK N   1      36.167  14.670  12.386  0.00  0.00     0.260 C 
HETATM   21  O   UNK N   1      35.976  14.414  13.565  0.00  0.00    -0.302 OA
ENDBRANCH  19  20
ENDBRANCH  16  18
ENDBRANCH  11  16
ENDBRANCH   2  11
BRANCH   2  22
HETATM   22  S   UNK N   1      32.411  15.604   6.726  0.00  0.00     0.264 S 
HETATM   23  O   UNK N   1      33.826  14.995   6.747  0.00  0.00    -0.211 OA
HETATM   24  O   UNK N   1      31.789  14.317   7.292  0.00  0.00    -0.211 OA
ENDBRANCH   2  22
TORSDOF 9
ENDMDL
MODEL 2
REMARK VINA RESULT:      -5.7      2.086      5.337
REMARK  9 active torsions:
REMARK  status: ('A' for Active; 'I' for Inactive)
REMARK    1  A    between atoms: C_6  and  C_2 
REMARK    2  A    between atoms: N_11  and  C_3 
REMARK    3  A    between atoms: C_10  and  C_7 
REMARK    4  A    between atoms: N_16  and  C_7 
REMARK    5  A    between atoms: C_9  and  C_8 
REMARK    6  A    between atoms: C_10  and  C_8 
REMARK    7  A    between atoms: C_8  and  N_11 
REMARK    8  A    between atoms: O_19  and  C_9 
REMARK    9  A    between atoms: C_10  and  S_22 
ROOT
HETATM    1  C   UNK N   1      34.874  15.241   8.087  0.00  0.00     0.037 C 
HETATM    2  C   UNK N   1      33.480  15.542   8.665  0.00  0.00     0.122 C 
ENDROOT
BRANCH   2   3
HETATM    3  C   UNK N   1      33.287  15.009  10.103  0.00  0.00     0.178 C 
BRANCH   3   4
HETATM    4  N   UNK N   1      34.482  14.939  10.929  0.00  0.00    -0.286 N 
HETATM    5  C   UNK N   1      35.045  13.825  11.421  0.00  0.00     0.130 A 
HETATM    6  C   UNK N   1      36.072  14.244  12.250  0.00  0.00     0.127 A 
HETATM    7  N   UNK N   1      36.073  15.596  12.238  0.00  0.00    -0.296 N 
HETATM    8  N   UNK N   1      35.096  15.989  11.438  0.00  0.00    -0.241 N 
ATOM      9  HN  UNK N   1      36.711  16.202  12.751  1.00  0.00     0.187 HD
ATOM     10  HN  UNK N   1      34.853  16.961  11.244  1.00  0.00     0.208 HD
ENDBRANCH   3   4
ENDBRANCH   2   3
BRANCH   2  11
HETATM   11  C   UNK N   1      33.239  17.085   8.745  0.00  0.00     0.205 C 
BRANCH  11  12
HETATM   12  C   UNK N   1      34.456  17.934   8.382  0.00  0.00     0.165 C 
HETATM   13  O   UNK N   1      34.631  18.339   7.243  0.00  0.00    -0.648 OA
BRANCH  12  14
HETATM   14  O   UNK N   1      35.371  18.223   9.326  0.00  0.00    -0.775 OA
HETATM   15  H   UNK N   1      36.026  18.888   9.237  0.00  0.00     0.167 HD
ENDBRANCH  12  14
ENDBRANCH  11  12
BRANCH  11  16
HETATM   16  N   UNK N   1      32.049  17.452   7.997  0.00  0.00    -0.383 N 
HETATM   17  H   UNK N   1      32.036  17.196   7.045  0.00  0.00     0.159 HD
BRANCH  16  18
HETATM   18  C   UNK N   1      30.902  18.135   8.475  0.00  0.00     0.087 C 
HETATM   19  C   UNK N   1      29.823  17.416   8.814  0.00  0.00     0.058 C 
BRANCH  19  20
HETATM   20  C   UNK N   1      28.578  18.029   9.311  0.00  0.00     0.260 C 
HETATM   21  O   UNK N   1      27.607  17.350   9.604  0.00  0.00    -0.302 OA
ENDBRANCH  19  20
ENDBRANCH  16  18
ENDBRANCH  11  16
ENDBRANCH   2  11
BRANCH   2  22
HETATM   22  S   UNK N   1      32.168  14.743   7.620  0.00  0.00     0.264 S 
HETATM   23  O   UNK N   1      32.921  14.913   6.288  0.00  0.00    -0.211 OA
HETATM   24  O   UNK N   1      32.707  13.315   7.806  0.00  0.00    -0.211 OA
ENDBRANCH   2  22
TORSDOF 9
ENDMDL
MODEL 3
REMARK VINA RESULT:      -5.6     12.079     13.620
REMARK  9 active torsions:
REMARK  status: ('A' for Active; 'I' for Inactive)
REMARK    1  A    between atoms: C_6  and  C_2 
REMARK    2  A    between atoms: N_11  and  C_3 
REMARK    3  A    between atoms: C_10  and  C_7 
REMARK    4  A    between atoms: N_16  and  C_7 
REMARK    5  A    between atoms: C_9  and  C_8 
REMARK    6  A    between atoms: C_10  and  C_8 
REMARK    7  A    between atoms: C_8  and  N_11 
REMARK    8  A    between atoms: O_19  and  C_9 
REMARK    9  A    between atoms: C_10  and  S_22 
ROOT
HETATM    1  C   UNK N   1      21.671  16.159   3.380  0.00  0.00     0.037 C 
HETATM    2  C   UNK N   1      20.917  17.012   4.414  0.00  0.00     0.122 C 
ENDROOT
BRANCH   2   3
HETATM    3  C   UNK N   1      19.806  17.888   3.791  0.00  0.00     0.178 C 
BRANCH   3   4
HETATM    4  N   UNK N   1      20.240  18.883   2.823  0.00  0.00    -0.286 N 
HETATM    5  C   UNK N   1      20.545  20.164   3.080  0.00  0.00     0.130 A 
HETATM    6  C   UNK N   1      20.772  20.763   1.853  0.00  0.00     0.127 A 
HETATM    7  N   UNK N   1      20.575  19.821   0.904  0.00  0.00    -0.296 N 
HETATM    8  N   UNK N   1      20.245  18.698   1.517  0.00  0.00    -0.241 N 
ATOM      9  HN  UNK N   1      20.664  19.954  -0.103  1.00  0.00     0.187 HD
ATOM     10  HN  UNK N   1      20.028  17.817   1.050  1.00  0.00     0.208 HD
ENDBRANCH   3   4
ENDBRANCH   2   3
BRANCH   2  11
HETATM   11  C   UNK N   1      20.202  16.100   5.465  0.00  0.00     0.205 C 
BRANCH  11  12
HETATM   12  C   UNK N   1      18.828  15.592   5.030  0.00  0.00     0.165 C 
HETATM   13  O   UNK N   1      17.818  15.887   5.650  0.00  0.00    -0.648 OA
BRANCH  12  14
HETATM   14  O   UNK N   1      18.727  14.782   3.960  0.00  0.00    -0.775 OA
HETATM   15  H   UNK N   1      17.941  14.667   3.463  0.00  0.00     0.167 HD
ENDBRANCH  12  14
ENDBRANCH  11  12
BRANCH  11  16
HETATM   16  N   UNK N   1      21.090  15.034   5.898  0.00  0.00    -0.383 N 
HETATM   17  H   UNK N   1      21.799  14.774   5.266  0.00  0.00     0.159 HD
BRANCH  16  18
HETATM   18  C   UNK N   1      21.055  14.323   7.125  0.00  0.00     0.087 C 
HETATM   19  C   UNK N   1      20.566  14.941   8.208  0.00  0.00     0.058 C 
BRANCH  19  20
HETATM   20  C   UNK N   1      20.496  14.295   9.533  0.00  0.00     0.260 C 
HETATM   21  O   UNK N   1      19.436  13.901   9.992  0.00  0.00    -0.302 OA
ENDBRANCH  19  20
ENDBRANCH  16  18
ENDBRANCH  11  16
ENDBRANCH   2  11
BRANCH   2  22
HETATM   22  S   UNK N   1      22.092  18.171   5.268  0.00  0.00     0.264 S 
HETATM   23  O   UNK N   1      21.442  18.036   6.658  0.00  0.00    -0.211 OA
HETATM   24  O   UNK N   1      23.133  17.086   5.588  0.00  0.00    -0.211 OA
ENDBRANCH   2  22
TORSDOF 9
ENDMDL
MODEL 4
REMARK VINA RESULT:      -5.6      3.126      5.599
REMARK  9 active torsions:
REMARK  status: ('A' for Active; 'I' for Inactive)
REMARK    1  A    between atoms: C_6  and  C_2 
REMARK    2  A    between atoms: N_11  and  C_3 
REMARK    3  A    between atoms: C_10  and  C_7 
REMARK    4  A    between atoms: N_16  and  C_7 
REMARK    5  A    between atoms: C_9  and  C_8 
REMARK    6  A    between atoms: C_10  and  C_8 
REMARK    7  A    between atoms: C_8  and  N_11 
REMARK    8  A    between atoms: O_19  and  C_9 
REMARK    9  A    between atoms: C_10  and  S_22 
ROOT
HETATM    1  C   UNK N   1      33.286  14.892   9.544  0.00  0.00     0.037 C 
HETATM    2  C   UNK N   1      34.333  16.001   9.343  0.00  0.00     0.122 C 
ENDROOT
BRANCH   2   3
HETATM    3  C   UNK N   1      35.324  15.704   8.193  0.00  0.00     0.178 C 
BRANCH   3   4
HETATM    4  N   UNK N   1      34.900  14.711   7.220  0.00  0.00    -0.286 N 
HETATM    5  C   UNK N   1      35.348  13.450   7.121  0.00  0.00     0.130 A 
HETATM    6  C   UNK N   1      34.771  12.921   5.979  0.00  0.00     0.127 A 
HETATM    7  N   UNK N   1      34.012  13.893   5.426  0.00  0.00    -0.296 N 
HETATM    8  N   UNK N   1      34.115  14.966   6.191  0.00  0.00    -0.241 N 
ATOM      9  HN  UNK N   1      33.459  13.812   4.573  1.00  0.00     0.187 HD
ATOM     10  HN  UNK N   1      33.656  15.859   6.012  1.00  0.00     0.208 HD
ENDBRANCH   3   4
ENDBRANCH   2   3
BRANCH   2  11
HETATM   11  C   UNK N   1      33.639  17.352   8.971  0.00  0.00     0.205 C 
BRANCH  11  12
HETATM   12  C   UNK N   1      34.407  18.198   7.956  0.00  0.00     0.165 C 
HETATM   13  O   UNK N   1      34.295  18.006   6.755  0.00  0.00    -0.648 OA
BRANCH  12  14
HETATM   14  O   UNK N   1      35.245  19.158   8.389  0.00  0.00    -0.775 OA
HETATM   15  H   UNK N   1      35.827  19.057   9.117  0.00  0.00     0.167 HD
ENDBRANCH  12  14
ENDBRANCH  11  12
BRANCH  11  16
HETATM   16  N   UNK N   1      32.256  17.124   8.588  0.00  0.00    -0.383 N 
HETATM   17  H   UNK N   1      32.067  16.276   8.124  0.00  0.00     0.159 HD
BRANCH  16  18
HETATM   18  C   UNK N   1      31.146  17.979   8.804  0.00  0.00     0.087 C 
HETATM   19  C   UNK N   1      29.919  17.440   8.831  0.00  0.00     0.058 C 
BRANCH  19  20
HETATM   20  C   UNK N   1      28.699  18.242   9.038  0.00  0.00     0.260 C 
HETATM   21  O   UNK N   1      27.682  17.746   9.496  0.00  0.00    -0.302 OA
ENDBRANCH  19  20
ENDBRANCH  16  18
ENDBRANCH  11  16
ENDBRANCH   2  11
BRANCH   2  22
HETATM   22  S   UNK N   1      35.351  16.207  10.883  0.00  0.00     0.264 S 
HETATM   23  O   UNK N   1      36.614  15.537  10.311  0.00  0.00    -0.211 OA
HETATM   24  O   UNK N   1      35.861  17.610  10.513  0.00  0.00    -0.211 OA
ENDBRANCH   2  22
TORSDOF 9
ENDMDL
MODEL 5
REMARK VINA RESULT:      -5.5      3.583      5.246
REMARK  9 active torsions:
REMARK  status: ('A' for Active; 'I' for Inactive)
REMARK    1  A    between atoms: C_6  and  C_2 
REMARK    2  A    between atoms: N_11  and  C_3 
REMARK    3  A    between atoms: C_10  and  C_7 
REMARK    4  A    between atoms: N_16  and  C_7 
REMARK    5  A    between atoms: C_9  and  C_8 
REMARK    6  A    between atoms: C_10  and  C_8 
REMARK    7  A    between atoms: C_8  and  N_11 
REMARK    8  A    between atoms: O_19  and  C_9 
REMARK    9  A    between atoms: C_10  and  S_22 
ROOT
HETATM    1  C   UNK N   1      27.789  16.300   6.566  0.00  0.00     0.037 C 
HETATM    2  C   UNK N   1      28.981  17.221   6.254  0.00  0.00     0.122 C 
ENDROOT
BRANCH   2   3
HETATM    3  C   UNK N   1      28.594  18.455   5.406  0.00  0.00     0.178 C 
BRANCH   3   4
HETATM    4  N   UNK N   1      27.175  18.634   5.143  0.00  0.00    -0.286 N 
HETATM    5  C   UNK N   1      26.534  18.343   4.001  0.00  0.00     0.130 A 
HETATM    6  C   UNK N   1      25.236  18.799   4.157  0.00  0.00     0.127 A 
HETATM    7  N   UNK N   1      25.154  19.364   5.382  0.00  0.00    -0.296 N 
HETATM    8  N   UNK N   1      26.342  19.259   5.952  0.00  0.00    -0.241 N 
ATOM      9  HN  UNK N   1      24.325  19.794   5.792  1.00  0.00     0.187 HD
ATOM     10  HN  UNK N   1      26.579  19.609   6.880  1.00  0.00     0.208 HD
ENDBRANCH   3   4
ENDBRANCH   2   3
BRANCH   2  11
HETATM   11  C   UNK N   1      29.599  17.788   7.575  0.00  0.00     0.205 C 
BRANCH  11  12
HETATM   12  C   UNK N   1      28.604  17.938   8.724  0.00  0.00     0.165 C 
HETATM   13  O   UNK N   1      28.600  17.161   9.666  0.00  0.00    -0.648 OA
BRANCH  12  14
HETATM   14  O   UNK N   1      27.694  18.930   8.690  0.00  0.00    -0.775 OA
HETATM   15  H   UNK N   1      27.747  19.671   8.119  0.00  0.00     0.167 HD
ENDBRANCH  12  14
ENDBRANCH  11  12
BRANCH  11  16
HETATM   16  N   UNK N   1      30.783  17.032   7.945  0.00  0.00    -0.383 N 
HETATM   17  H   UNK N   1      30.755  16.063   7.768  0.00  0.00     0.159 HD
BRANCH  16  18
HETATM   18  C   UNK N   1      31.976  17.525   8.533  0.00  0.00     0.087 C 
HETATM   19  C   UNK N   1      33.099  17.517   7.803  0.00  0.00     0.058 C 
BRANCH  19  20
HETATM   20  C   UNK N   1      34.394  17.996   8.322  0.00  0.00     0.260 C 
HETATM   21  O   UNK N   1      34.708  19.174   8.260  0.00  0.00    -0.302 OA
ENDBRANCH  19  20
ENDBRANCH  16  18
ENDBRANCH  11  16
ENDBRANCH   2  11
BRANCH   2  22
HETATM   22  S   UNK N   1      30.271  16.295   5.290  0.00  0.00     0.264 S 
HETATM   23  O   UNK N   1      29.482  16.285   3.968  0.00  0.00    -0.211 OA
HETATM   24  O   UNK N   1      31.052  17.555   4.878  0.00  0.00    -0.211 OA
ENDBRANCH   2  22
TORSDOF 9
ENDMDL
MODEL 6
REMARK VINA RESULT:      -5.5      2.068      2.540
REMARK  9 active torsions:
REMARK  status: ('A' for Active; 'I' for Inactive)
REMARK    1  A    between atoms: C_6  and  C_2 
REMARK    2  A    between atoms: N_11  and  C_3 
REMARK    3  A    between atoms: C_10  and  C_7 
REMARK    4  A    between atoms: N_16  and  C_7 
REMARK    5  A    between atoms: C_9  and  C_8 
REMARK    6  A    between atoms: C_10  and  C_8 
REMARK    7  A    between atoms: C_8  and  N_11 
REMARK    8  A    between atoms: O_19  and  C_9 
REMARK    9  A    between atoms: C_10  and  S_22 
ROOT
HETATM    1  C   UNK N   1      32.742  14.761   8.019  0.00  0.00     0.037 C 
HETATM    2  C   UNK N   1      33.566  16.042   7.801  0.00  0.00     0.122 C 
ENDROOT
BRANCH   2   3
HETATM    3  C   UNK N   1      32.865  17.317   8.323  0.00  0.00     0.178 C 
BRANCH   3   4
HETATM    4  N   UNK N   1      31.413  17.267   8.398  0.00  0.00    -0.286 N 
HETATM    5  C   UNK N   1      30.558  17.416   7.375  0.00  0.00     0.130 A 
HETATM    6  C   UNK N   1      29.289  17.430   7.930  0.00  0.00     0.127 A 
HETATM    7  N   UNK N   1      29.434  17.306   9.267  0.00  0.00    -0.296 N 
HETATM    8  N   UNK N   1      30.728  17.219   9.524  0.00  0.00    -0.241 N 
ATOM      9  HN  UNK N   1      28.681  17.283   9.955  1.00  0.00     0.187 HD
ATOM     10  HN  UNK N   1      31.136  17.128  10.455  1.00  0.00     0.208 HD
ENDBRANCH   3   4
ENDBRANCH   2   3
BRANCH   2  11
HETATM   11  C   UNK N   1      34.927  15.958   8.566  0.00  0.00     0.205 C 
BRANCH  11  12
HETATM   12  C   UNK N   1      34.899  16.554   9.973  0.00  0.00     0.165 C 
HETATM   13  O   UNK N   1      35.509  17.577  10.241  0.00  0.00    -0.648 OA
BRANCH  12  14
HETATM   14  O   UNK N   1      34.211  15.928  10.946  0.00  0.00    -0.775 OA
HETATM   15  H   UNK N   1      33.275  15.920  11.005  0.00  0.00     0.167 HD
ENDBRANCH  12  14
ENDBRANCH  11  12
BRANCH  11  16
HETATM   16  N   UNK N   1      35.443  14.600   8.536  0.00  0.00    -0.383 N 
HETATM   17  H   UNK N   1      34.880  13.930   8.084  0.00  0.00     0.159 HD
BRANCH  16  18
HETATM   18  C   UNK N   1      36.663  14.125   9.082  0.00  0.00     0.087 C 
HETATM   19  C   UNK N   1      36.613  13.214  10.063  0.00  0.00     0.058 C 
BRANCH  19  20
HETATM   20  C   UNK N   1      37.821  12.664  10.705  0.00  0.00     0.260 C 
HETATM   21  O   UNK N   1      37.836  12.376  11.891  0.00  0.00    -0.302 OA
ENDBRANCH  19  20
ENDBRANCH  16  18
ENDBRANCH  11  16
ENDBRANCH   2  11
BRANCH   2  22
HETATM   22  S   UNK N   1      33.868  16.306   5.987  0.00  0.00     0.264 S 
HETATM   23  O   UNK N   1      34.232  17.797   6.118  0.00  0.00    -0.211 OA
HETATM   24  O   UNK N   1      35.346  15.884   6.039  0.00  0.00    -0.211 OA
ENDBRANCH   2  22
TORSDOF 9
ENDMDL
MODEL 7
REMARK VINA RESULT:      -5.5      3.101      5.306
REMARK  9 active torsions:
REMARK  status: ('A' for Active; 'I' for Inactive)
REMARK    1  A    between atoms: C_6  and  C_2 
REMARK    2  A    between atoms: N_11  and  C_3 
REMARK    3  A    between atoms: C_10  and  C_7 
REMARK    4  A    between atoms: N_16  and  C_7 
REMARK    5  A    between atoms: C_9  and  C_8 
REMARK    6  A    between atoms: C_10  and  C_8 
REMARK    7  A    between atoms: C_8  and  N_11 
REMARK    8  A    between atoms: O_19  and  C_9 
REMARK    9  A    between atoms: C_10  and  S_22 
ROOT
HETATM    1  C   UNK N   1      35.264  15.005   7.694  0.00  0.00     0.037 C 
HETATM    2  C   UNK N   1      33.807  15.486   7.587  0.00  0.00     0.122 C 
ENDROOT
BRANCH   2   3
HETATM    3  C   UNK N   1      32.809  14.348   7.276  0.00  0.00     0.178 C 
BRANCH   3   4
HETATM    4  N   UNK N   1      33.014  13.099   7.993  0.00  0.00    -0.286 N 
HETATM    5  C   UNK N   1      33.562  11.979   7.500  0.00  0.00     0.130 A 
HETATM    6  C   UNK N   1      33.430  11.016   8.486  0.00  0.00     0.127 A 
HETATM    7  N   UNK N   1      32.790  11.593   9.527  0.00  0.00    -0.296 N 
HETATM    8  N   UNK N   1      32.542  12.849   9.199  0.00  0.00    -0.241 N 
ATOM      9  HN  UNK N   1      32.544  11.140  10.408  1.00  0.00     0.187 HD
ATOM     10  HN  UNK N   1      32.058  13.524   9.791  1.00  0.00     0.208 HD
ENDBRANCH   3   4
ENDBRANCH   2   3
BRANCH   2  11
HETATM   11  C   UNK N   1      33.333  16.112   8.940  0.00  0.00     0.205 C 
BRANCH  11  12
HETATM   12  C   UNK N   1      34.466  16.492   9.892  0.00  0.00     0.165 C 
HETATM   13  O   UNK N   1      34.702  15.833  10.892  0.00  0.00    -0.648 OA
BRANCH  12  14
HETATM   14  O   UNK N   1      35.206  17.589   9.641  0.00  0.00    -0.775 OA
HETATM   15  H   UNK N   1      35.652  17.747   8.832  0.00  0.00     0.167 HD
ENDBRANCH  12  14
ENDBRANCH  11  12
BRANCH  11  16
HETATM   16  N   UNK N   1      32.407  17.205   8.696  0.00  0.00    -0.383 N 
HETATM   17  H   UNK N   1      32.803  18.048   8.375  0.00  0.00     0.159 HD
BRANCH  16  18
HETATM   18  C   UNK N   1      30.999  17.201   8.866  0.00  0.00     0.087 C 
HETATM   19  C   UNK N   1      30.388  18.356   9.161  0.00  0.00     0.058 C 
BRANCH  19  20
HETATM   20  C   UNK N   1      28.931  18.459   9.368  0.00  0.00     0.260 C 
HETATM   21  O   UNK N   1      28.249  17.472   9.595  0.00  0.00    -0.302 OA
ENDBRANCH  19  20
ENDBRANCH  16  18
ENDBRANCH  11  16
ENDBRANCH   2  11
BRANCH   2  22
HETATM   22  S   UNK N   1      33.642  16.728   6.215  0.00  0.00     0.264 S 
HETATM   23  O   UNK N   1      34.647  17.733   6.810  0.00  0.00    -0.211 OA
HETATM   24  O   UNK N   1      34.724  16.087   5.330  0.00  0.00    -0.211 OA
ENDBRANCH   2  22
TORSDOF 9
ENDMDL
MODEL 8
REMARK VINA RESULT:      -5.4     13.688     15.961
REMARK  9 active torsions:
REMARK  status: ('A' for Active; 'I' for Inactive)
REMARK    1  A    between atoms: C_6  and  C_2 
REMARK    2  A    between atoms: N_11  and  C_3 
REMARK    3  A    between atoms: C_10  and  C_7 
REMARK    4  A    between atoms: N_16  and  C_7 
REMARK    5  A    between atoms: C_9  and  C_8 
REMARK    6  A    between atoms: C_10  and  C_8 
REMARK    7  A    between atoms: C_8  and  N_11 
REMARK    8  A    between atoms: O_19  and  C_9 
REMARK    9  A    between atoms: C_10  and  S_22 
ROOT
HETATM    1  C   UNK N   1      31.523  23.611  -4.760  0.00  0.00     0.037 C 
HETATM    2  C   UNK N   1      30.174  22.883  -4.636  0.00  0.00     0.122 C 
ENDROOT
BRANCH   2   3
HETATM    3  C   UNK N   1      30.299  21.459  -4.046  0.00  0.00     0.178 C 
BRANCH   3   4
HETATM    4  N   UNK N   1      31.650  20.936  -3.913  0.00  0.00    -0.286 N 
HETATM    5  C   UNK N   1      32.272  20.114  -4.771  0.00  0.00     0.130 A 
HETATM    6  C   UNK N   1      33.476  19.774  -4.178  0.00  0.00     0.127 A 
HETATM    7  N   UNK N   1      33.520  20.391  -2.976  0.00  0.00    -0.296 N 
HETATM    8  N   UNK N   1      32.400  21.079  -2.838  0.00  0.00    -0.241 N 
ATOM      9  HN  UNK N   1      34.281  20.336  -2.299  1.00  0.00     0.187 HD
ATOM     10  HN  UNK N   1      32.152  21.637  -2.021  1.00  0.00     0.208 HD
ENDBRANCH   3   4
ENDBRANCH   2   3
BRANCH   2  11
HETATM   11  C   UNK N   1      29.215  23.660  -3.676  0.00  0.00     0.205 C 
BRANCH  11  12
HETATM   12  C   UNK N   1      29.280  23.210  -2.217  0.00  0.00     0.165 C 
HETATM   13  O   UNK N   1      28.269  22.908  -1.601  0.00  0.00    -0.648 OA
BRANCH  12  14
HETATM   14  O   UNK N   1      30.468  23.169  -1.586  0.00  0.00    -0.775 OA
HETATM   15  H   UNK N   1      30.983  22.392  -1.488  0.00  0.00     0.167 HD
ENDBRANCH  12  14
ENDBRANCH  11  12
BRANCH  11  16
HETATM   16  N   UNK N   1      29.390  25.094  -3.835  0.00  0.00    -0.383 N 
HETATM   17  H   UNK N   1      30.320  25.414  -3.902  0.00  0.00     0.159 HD
BRANCH  16  18
HETATM   18  C   UNK N   1      28.381  26.088  -3.905  0.00  0.00     0.087 C 
HETATM   19  C   UNK N   1      27.107  25.720  -3.713  0.00  0.00     0.058 C 
BRANCH  19  20
HETATM   20  C   UNK N   1      25.982  26.672  -3.775  0.00  0.00     0.260 C 
HETATM   21  O   UNK N   1      25.813  27.514  -2.908  0.00  0.00    -0.302 OA
ENDBRANCH  19  20
ENDBRANCH  16  18
ENDBRANCH  11  16
ENDBRANCH   2  11
BRANCH   2  22
HETATM   22  S   UNK N   1      29.390  22.698  -6.310  0.00  0.00     0.264 S 
HETATM   23  O   UNK N   1      27.978  23.107  -5.853  0.00  0.00    -0.211 OA
HETATM   24  O   UNK N   1      29.718  24.131  -6.764  0.00  0.00    -0.211 OA
ENDBRANCH   2  22
TORSDOF 9
ENDMDL
MODEL 9
REMARK VINA RESULT:      -5.4      4.165      6.588
REMARK  9 active torsions:
REMARK  status: ('A' for Active; 'I' for Inactive)
REMARK    1  A    between atoms: C_6  and  C_2 
REMARK    2  A    between atoms: N_11  and  C_3 
REMARK    3  A    between atoms: C_10  and  C_7 
REMARK    4  A    between atoms: N_16  and  C_7 
REMARK    5  A    between atoms: C_9  and  C_8 
REMARK    6  A    between atoms: C_10  and  C_8 
REMARK    7  A    between atoms: C_8  and  N_11 
REMARK    8  A    between atoms: O_19  and  C_9 
REMARK    9  A    between atoms: C_10  and  S_22 
ROOT
HETATM    1  C   UNK N   1      37.038  13.420  10.748  0.00  0.00     0.037 C 
HETATM    2  C   UNK N   1      35.513  13.624  10.724  0.00  0.00     0.122 C 
ENDROOT
BRANCH   2   3
HETATM    3  C   UNK N   1      34.924  13.987  12.106  0.00  0.00     0.178 C 
BRANCH   3   4
HETATM    4  N   UNK N   1      35.854  13.977  13.224  0.00  0.00    -0.286 N 
HETATM    5  C   UNK N   1      36.003  12.996  14.126  0.00  0.00     0.130 A 
HETATM    6  C   UNK N   1      36.893  13.472  15.074  0.00  0.00     0.127 A 
HETATM    7  N   UNK N   1      37.230  14.730  14.712  0.00  0.00    -0.296 N 
HETATM    8  N   UNK N   1      36.580  15.013  13.596  0.00  0.00    -0.241 N 
ATOM      9  HN  UNK N   1      37.869  15.349  15.210  1.00  0.00     0.187 HD
ATOM     10  HN  UNK N   1      36.633  15.901  13.097  1.00  0.00     0.208 HD
ENDBRANCH   3   4
ENDBRANCH   2   3
BRANCH   2  11
HETATM   11  C   UNK N   1      35.131  14.806   9.773  0.00  0.00     0.205 C 
BRANCH  11  12
HETATM   12  C   UNK N   1      35.429  16.194  10.338  0.00  0.00     0.165 C 
HETATM   13  O   UNK N   1      36.541  16.486  10.749  0.00  0.00    -0.648 OA
BRANCH  12  14
HETATM   14  O   UNK N   1      34.443  17.107  10.411  0.00  0.00    -0.775 OA
HETATM   15  H   UNK N   1      34.519  17.926  10.861  0.00  0.00     0.167 HD
ENDBRANCH  12  14
ENDBRANCH  11  12
BRANCH  11  16
HETATM   16  N   UNK N   1      35.700  14.597   8.452  0.00  0.00    -0.383 N 
HETATM   17  H   UNK N   1      36.601  14.201   8.423  0.00  0.00     0.159 HD
BRANCH  16  18
HETATM   18  C   UNK N   1      35.109  14.898   7.198  0.00  0.00     0.087 C 
HETATM   19  C   UNK N   1      34.716  16.157   6.961  0.00  0.00     0.058 C 
BRANCH  19  20
HETATM   20  C   UNK N   1      34.083  16.572   5.696  0.00  0.00     0.260 C 
HETATM   21  O   UNK N   1      33.706  17.720   5.519  0.00  0.00    -0.302 OA
ENDBRANCH  19  20
ENDBRANCH  16  18
ENDBRANCH  11  16
ENDBRANCH   2  11
BRANCH   2  22
HETATM   22  S   UNK N   1      34.666  12.064  10.177  0.00  0.00     0.264 S 
HETATM   23  O   UNK N   1      33.624  12.770   9.290  0.00  0.00    -0.211 OA
HETATM   24  O   UNK N   1      35.601  11.822   8.980  0.00  0.00    -0.211 OA
ENDBRANCH   2  22
TORSDOF 9
ENDMDL
