REMARK  2 active torsions:
REMARK  status: ('A' for Active; 'I' for Inactive)
REMARK    1  A    between atoms: O_21  and  C_12 
REMARK    2  A    between atoms: O_22  and  C_13 
ROOT
HETATM    1  C   UNK N   1       5.847   5.997  -1.343  0.00  0.00     0.040 C 
HETATM    2  C   UNK N   1       5.785   0.496  -0.004  0.00  0.00     0.003 C 
HETATM    3  C   UNK N   1       7.220   0.149   0.079  0.00  0.00    -0.001 C 
HETATM    4  C   UNK N   1       4.833  -0.447  -0.031  0.00  0.00     0.050 C 
HETATM    5  C   UNK N   1       8.183   1.042   0.375  0.00  0.00     0.007 C 
HETATM    6  C   UNK N   1       6.819   4.727   0.627  0.00  0.00     0.067 C 
HETATM    7  C   UNK N   1       3.026   1.094  -1.093  0.00  0.00     0.124 C 
HETATM    8  C   UNK N   1       0.200   3.951   0.496  0.00  0.00     0.076 A 
HETATM    9  C   UNK N   1       5.627   5.542   0.091  0.00  0.00     0.130 C 
HETATM   10  C   UNK N   1       3.404  -0.115  -0.255  0.00  0.00     0.153 C 
HETATM   11  C   UNK N   1       2.045   2.095  -0.525  0.00  0.00    -0.007 A 
HETATM   12  C   UNK N   1       1.535   4.320   0.361  0.00  0.00     0.085 A 
HETATM   13  C   UNK N   1      -0.233   2.688   0.114  0.00  0.00     0.090 A 
HETATM   14  C   UNK N   1       7.920   2.468   0.793  0.00  0.00     0.174 A 
HETATM   15  C   UNK N   1       7.243   3.452  -0.109  0.00  0.00     0.157 A 
HETATM   16  C   UNK N   1       2.480   3.408  -0.170  0.00  0.00     0.081 A 
HETATM   17  C   UNK N   1       0.677   1.752  -0.392  0.00  0.00     0.075 A 
HETATM   18  C   UNK N   1       3.893   3.859  -0.392  0.00  0.00     0.297 C 
HETATM   19 Cl   UNK N   1       0.062   0.178  -0.899  0.00  0.00    -0.081 Cl
HETATM   20  O   UNK N   1       2.556  -0.937   0.049  0.00  0.00    -0.293 OA
HETATM   21  O   UNK N   1       4.579   3.296  -1.230  0.00  0.00    -0.259 OA
HETATM   22  O   UNK N   1       4.380   4.950   0.259  0.00  0.00    -0.312 OA
HETATM   23  O   UNK N   1       8.642   3.337  -0.038  0.00  0.00    -0.371 OA
ENDROOT
BRANCH  12  24
HETATM   24  O   UNK N   1       1.891   5.571   0.698  0.00  0.00    -0.360 OA
HETATM   25  H   UNK N   1       2.771   5.793   0.934  0.00  0.00     0.217 HD
ENDBRANCH  12  24
BRANCH  13  26
HETATM   26  O   UNK N   1      -1.537   2.379   0.224  0.00  0.00    -0.359 OA
HETATM   27  H   UNK N   1      -2.178   3.057   0.301  0.00  0.00     0.217 HD
ENDBRANCH  13  26
TORSDOF 2
