MODEL 1
REMARK VINA RESULT:      -8.1      0.000      0.000
REMARK  18 active torsions:
REMARK  status: ('A' for Active; 'I' for Inactive)
REMARK    1  A    between atoms: C_7  and  C_2 
REMARK    2  A    between atoms: O_35  and  C_2 
REMARK    3  A    between atoms: C_8  and  C_3 
REMARK    4  A    between atoms: O_36  and  C_3 
REMARK    5  A    between atoms: O_37  and  C_6 
REMARK    6  A    between atoms: C_10  and  O_27 
REMARK    7  A    between atoms: C_11  and  O_28 
REMARK    8  A    between atoms: C_12  and  O_29 
REMARK    9  A    between atoms: C_13  and  O_37 
REMARK   10  A    between atoms: N_18  and  C_14 
REMARK   11  A    between atoms: C_16  and  N_25 
REMARK   12  A    between atoms: C_17  and  O_30 
REMARK   13  A    between atoms: P_41  and  O_31 
REMARK   14  A    between atoms: P_42  and  O_33 
REMARK   15  A    between atoms: P_41  and  O_35 
REMARK   16  A    between atoms: P_42  and  O_36 
REMARK   17  A    between atoms: P_41  and  O_40 
REMARK   18  A    between atoms: P_42  and  O_40 
ROOT
HETATM    1  C   UNK N   1      31.702  17.164   7.626  0.00  0.00     0.215 C 
ENDROOT
BRANCH   1   2
HETATM    2  C   UNK N   1      30.478  18.050   7.716  0.00  0.00     0.180 C 
HETATM    3  C   UNK N   1      29.630  17.792   8.951  0.00  0.00     0.182 C 
HETATM    4  C   UNK N   1      28.387  18.492   8.489  0.00  0.00     0.198 C 
HETATM    5  C   UNK N   1      28.323  17.914   7.072  0.00  0.00     0.262 C 
HETATM    6  O   UNK N   1      29.654  17.809   6.606  0.00  0.00    -0.353 OA
BRANCH   3   7
HETATM    7  O   UNK N   1      30.171  18.341  10.117  0.00  0.00    -0.390 OA
HETATM    8  H   UNK N   1      30.259  18.035  11.034  0.00  0.00     0.210 HD
ENDBRANCH   3   7
BRANCH   4   9
HETATM    9  O   UNK N   1      27.268  18.181   9.265  0.00  0.00    -0.388 OA
HETATM   10  H   UNK N   1      26.697  17.434   9.027  0.00  0.00     0.210 HD
ENDBRANCH   4   9
BRANCH   5  11
HETATM   11  N   UNK N   1      27.540  18.731   6.146  0.00  0.00    -0.297 N 
HETATM   12  C   UNK N   1      27.852  19.987   5.726  0.00  0.00     0.188 A 
HETATM   13  N   UNK N   1      26.953  20.445   4.813  0.00  0.00    -0.346 N 
HETATM   14  C   UNK N   1      26.077  19.434   4.677  0.00  0.00     0.122 A 
ATOM     15  HN  UNK N   1      26.945  21.349   4.341  1.00  0.00     0.167 HD
HETATM   16  C   UNK N   1      24.971  19.327   3.856  0.00  0.00     0.131 A 
HETATM   17  C   UNK N   1      26.425  18.410   5.483  0.00  0.00     0.142 A 
HETATM   18  N   UNK N   1      24.252  18.167   3.900  0.00  0.00    -0.337 N 
HETATM   19  C   UNK N   1      24.621  17.137   4.734  0.00  0.00     0.183 A 
ATOM     20  HN  UNK N   1      23.430  18.062   3.305  1.00  0.00     0.168 HD
HETATM   21  N   UNK N   1      25.726  17.253   5.534  0.00  0.00    -0.336 N 
ATOM     22  HN  UNK N   1      26.014  16.490   6.149  1.00  0.00     0.168 HD
BRANCH  16  23
HETATM   23  N   UNK N   1      24.603  20.372   2.984  0.00  0.00    -0.383 N 
HETATM   24  H   UNK N   1      23.753  20.860   3.074  0.00  0.00     0.157 HD
HETATM   25  H   UNK N   1      25.219  20.623   2.259  0.00  0.00     0.157 HD
ENDBRANCH  16  23
ENDBRANCH   5  11
ENDBRANCH   1   2
BRANCH   1  26
HETATM   26  O   UNK N   1      32.562  17.437   8.684  0.00  0.00    -0.294 OA
BRANCH  26  27
HETATM   27  P   UNK N   1      34.186  17.497   8.024  0.00  0.00     0.401 P 
HETATM   28  O   UNK N   1      34.141  18.005   6.556  0.00  0.00    -0.631 OA
BRANCH  27  29
HETATM   29  O   UNK N   1      35.188  18.599   8.919  0.00  0.00    -0.307 OA
HETATM   30  H   UNK N   1      35.527  19.201   9.599  0.00  0.00     0.222 HD
ENDBRANCH  27  29
BRANCH  27  31
HETATM   31  O   UNK N   1      34.889  15.912   7.969  0.00  0.00    -0.195 OA
BRANCH  31  32
HETATM   32  P   UNK N   1      35.047  15.456   9.633  0.00  0.00     0.401 P 
HETATM   33  O   UNK N   1      36.039  16.461  10.279  0.00  0.00    -0.631 OA
BRANCH  32  34
HETATM   34  O   UNK N   1      33.524  15.652  10.450  0.00  0.00    -0.307 OA
HETATM   35  H   UNK N   1      32.634  15.334  10.670  0.00  0.00     0.222 HD
ENDBRANCH  32  34
BRANCH  32  36
HETATM   36  O   UNK N   1      35.670  13.816   9.802  0.00  0.00    -0.294 OA
BRANCH  36  37
HETATM   37  C   UNK N   1      36.577  13.807  10.870  0.00  0.00     0.215 C 
BRANCH  37  38
HETATM   38  C   UNK N   1      36.532  12.474  11.623  0.00  0.00     0.180 C 
HETATM   39  C   UNK N   1      35.440  12.453  12.692  0.00  0.00     0.183 C 
HETATM   40  C   UNK N   1      36.228  12.384  13.961  0.00  0.00     0.218 C 
HETATM   41  C   UNK N   1      37.410  11.563  13.465  0.00  0.00     0.289 C 
HETATM   42  O   UNK N   1      37.767  12.152  12.234  0.00  0.00    -0.349 OA
BRANCH  39  43
HETATM   43  O   UNK N   1      34.567  13.547  12.667  0.00  0.00    -0.390 OA
HETATM   44  H   UNK N   1      33.802  13.675  13.250  0.00  0.00     0.210 HD
ENDBRANCH  39  43
BRANCH  40  45
HETATM   45  O   UNK N   1      35.448  11.794  14.942  0.00  0.00    -0.309 OA
BRANCH  45  46
HETATM   46  C   UNK N   1      34.854  12.411  15.991  0.00  0.00     0.255 C 
HETATM   47  C   UNK N   1      35.300  12.073  17.371  0.00  0.00     0.126 C 
HETATM   48  O   UNK N   1      33.969  13.233  15.826  0.00  0.00    -0.266 OA
ENDBRANCH  45  46
ENDBRANCH  40  45
BRANCH  41  49
HETATM   49  O   UNK N   1      38.484  11.622  14.352  0.00  0.00    -0.368 OA
HETATM   50  H   UNK N   1      39.420  11.414  14.198  0.00  0.00     0.212 HD
ENDBRANCH  41  49
ENDBRANCH  37  38
ENDBRANCH  36  37
ENDBRANCH  32  36
ENDBRANCH  31  32
ENDBRANCH  27  31
ENDBRANCH  26  27
ENDBRANCH   1  26
TORSDOF 18
ENDMDL
MODEL 2
REMARK VINA RESULT:      -7.9      1.531      2.843
REMARK  18 active torsions:
REMARK  status: ('A' for Active; 'I' for Inactive)
REMARK    1  A    between atoms: C_7  and  C_2 
REMARK    2  A    between atoms: O_35  and  C_2 
REMARK    3  A    between atoms: C_8  and  C_3 
REMARK    4  A    between atoms: O_36  and  C_3 
REMARK    5  A    between atoms: O_37  and  C_6 
REMARK    6  A    between atoms: C_10  and  O_27 
REMARK    7  A    between atoms: C_11  and  O_28 
REMARK    8  A    between atoms: C_12  and  O_29 
REMARK    9  A    between atoms: C_13  and  O_37 
REMARK   10  A    between atoms: N_18  and  C_14 
REMARK   11  A    between atoms: C_16  and  N_25 
REMARK   12  A    between atoms: C_17  and  O_30 
REMARK   13  A    between atoms: P_41  and  O_31 
REMARK   14  A    between atoms: P_42  and  O_33 
REMARK   15  A    between atoms: P_41  and  O_35 
REMARK   16  A    between atoms: P_42  and  O_36 
REMARK   17  A    between atoms: P_41  and  O_40 
REMARK   18  A    between atoms: P_42  and  O_40 
ROOT
HETATM    1  C   UNK N   1      31.763  17.203   7.368  0.00  0.00     0.215 C 
ENDROOT
BRANCH   1   2
HETATM    2  C   UNK N   1      30.339  17.691   7.519  0.00  0.00     0.180 C 
HETATM    3  C   UNK N   1      29.736  17.395   8.883  0.00  0.00     0.182 C 
HETATM    4  C   UNK N   1      28.298  17.614   8.516  0.00  0.00     0.198 C 
HETATM    5  C   UNK N   1      28.282  16.823   7.205  0.00  0.00     0.262 C 
HETATM    6  O   UNK N   1      29.529  17.042   6.573  0.00  0.00    -0.353 OA
BRANCH   3   7
HETATM    7  O   UNK N   1      30.187  18.259   9.884  0.00  0.00    -0.390 OA
HETATM    8  H   UNK N   1      29.786  18.647  10.678  0.00  0.00     0.210 HD
ENDBRANCH   3   7
BRANCH   4   9
HETATM    9  O   UNK N   1      27.412  17.115   9.474  0.00  0.00    -0.388 OA
HETATM   10  H   UNK N   1      26.931  17.720  10.061  0.00  0.00     0.210 HD
ENDBRANCH   4   9
BRANCH   5  11
HETATM   11  N   UNK N   1      27.199  17.213   6.305  0.00  0.00    -0.297 N 
HETATM   12  C   UNK N   1      26.099  16.471   6.007  0.00  0.00     0.188 A 
HETATM   13  N   UNK N   1      25.247  17.147   5.188  0.00  0.00    -0.346 N 
HETATM   14  C   UNK N   1      25.852  18.331   4.991  0.00  0.00     0.122 A 
ATOM     15  HN  UNK N   1      24.356  16.827   4.810  1.00  0.00     0.167 HD
HETATM   16  C   UNK N   1      25.428  19.431   4.268  0.00  0.00     0.131 A 
HETATM   17  C   UNK N   1      27.025  18.368   5.654  0.00  0.00     0.142 A 
HETATM   18  N   UNK N   1      26.236  20.532   4.246  0.00  0.00    -0.337 N 
HETATM   19  C   UNK N   1      27.433  20.545   4.924  0.00  0.00     0.183 A 
ATOM     20  HN  UNK N   1      25.948  21.356   3.720  1.00  0.00     0.168 HD
HETATM   21  N   UNK N   1      27.834  19.452   5.645  0.00  0.00    -0.336 N 
ATOM     22  HN  UNK N   1      28.716  19.455   6.160  1.00  0.00     0.168 HD
BRANCH  16  23
HETATM   23  N   UNK N   1      24.191  19.429   3.591  0.00  0.00    -0.383 N 
HETATM   24  H   UNK N   1      23.843  20.224   3.127  0.00  0.00     0.157 HD
HETATM   25  H   UNK N   1      23.658  18.602   3.580  0.00  0.00     0.157 HD
ENDBRANCH  16  23
ENDBRANCH   5  11
ENDBRANCH   1   2
BRANCH   1  26
HETATM   26  O   UNK N   1      32.552  17.726   8.386  0.00  0.00    -0.294 OA
BRANCH  26  27
HETATM   27  P   UNK N   1      34.204  17.751   7.796  0.00  0.00     0.401 P 
HETATM   28  O   UNK N   1      34.209  17.887   6.248  0.00  0.00    -0.631 OA
BRANCH  27  29
HETATM   29  O   UNK N   1      35.078  19.110   8.434  0.00  0.00    -0.307 OA
HETATM   30  H   UNK N   1      35.422  20.004   8.585  0.00  0.00     0.222 HD
ENDBRANCH  27  29
BRANCH  27  31
HETATM   31  O   UNK N   1      35.012  16.259   8.157  0.00  0.00    -0.195 OA
BRANCH  31  32
HETATM   32  P   UNK N   1      34.773  16.044   9.860  0.00  0.00     0.401 P 
HETATM   33  O   UNK N   1      35.109  17.403  10.533  0.00  0.00    -0.631 OA
BRANCH  32  34
HETATM   34  O   UNK N   1      33.096  15.719  10.188  0.00  0.00    -0.307 OA
HETATM   35  H   UNK N   1      32.396  15.392  10.776  0.00  0.00     0.222 HD
ENDBRANCH  32  34
BRANCH  32  36
HETATM   36  O   UNK N   1      35.820  14.784  10.510  0.00  0.00    -0.294 OA
BRANCH  36  37
HETATM   37  C   UNK N   1      36.110  15.109  11.842  0.00  0.00     0.215 C 
BRANCH  37  38
HETATM   38  C   UNK N   1      35.971  13.886  12.753  0.00  0.00     0.180 C 
HETATM   39  C   UNK N   1      37.045  12.835  12.474  0.00  0.00     0.183 C 
HETATM   40  C   UNK N   1      36.248  11.692  11.930  0.00  0.00     0.218 C 
HETATM   41  C   UNK N   1      34.970  11.889  12.731  0.00  0.00     0.289 C 
HETATM   42  O   UNK N   1      34.701  13.271  12.648  0.00  0.00    -0.349 OA
BRANCH  39  43
HETATM   43  O   UNK N   1      38.058  13.243  11.598  0.00  0.00    -0.390 OA
HETATM   44  H   UNK N   1      38.926  13.589  11.857  0.00  0.00     0.210 HD
ENDBRANCH  39  43
BRANCH  40  45
HETATM   45  O   UNK N   1      36.938  10.514  12.165  0.00  0.00    -0.309 OA
BRANCH  45  46
HETATM   46  C   UNK N   1      37.158   9.510  11.284  0.00  0.00     0.255 C 
HETATM   47  C   UNK N   1      38.276   9.640  10.309  0.00  0.00     0.126 C 
HETATM   48  O   UNK N   1      36.463   8.508  11.277  0.00  0.00    -0.266 OA
ENDBRANCH  45  46
ENDBRANCH  40  45
BRANCH  41  49
HETATM   49  O   UNK N   1      33.908  11.164  12.190  0.00  0.00    -0.368 OA
HETATM   50  H   UNK N   1      33.895  10.253  11.854  0.00  0.00     0.212 HD
ENDBRANCH  41  49
ENDBRANCH  37  38
ENDBRANCH  36  37
ENDBRANCH  32  36
ENDBRANCH  31  32
ENDBRANCH  27  31
ENDBRANCH  26  27
ENDBRANCH   1  26
TORSDOF 18
ENDMDL
MODEL 3
REMARK VINA RESULT:      -7.8      1.878      2.572
REMARK  18 active torsions:
REMARK  status: ('A' for Active; 'I' for Inactive)
REMARK    1  A    between atoms: C_7  and  C_2 
REMARK    2  A    between atoms: O_35  and  C_2 
REMARK    3  A    between atoms: C_8  and  C_3 
REMARK    4  A    between atoms: O_36  and  C_3 
REMARK    5  A    between atoms: O_37  and  C_6 
REMARK    6  A    between atoms: C_10  and  O_27 
REMARK    7  A    between atoms: C_11  and  O_28 
REMARK    8  A    between atoms: C_12  and  O_29 
REMARK    9  A    between atoms: C_13  and  O_37 
REMARK   10  A    between atoms: N_18  and  C_14 
REMARK   11  A    between atoms: C_16  and  N_25 
REMARK   12  A    between atoms: C_17  and  O_30 
REMARK   13  A    between atoms: P_41  and  O_31 
REMARK   14  A    between atoms: P_42  and  O_33 
REMARK   15  A    between atoms: P_41  and  O_35 
REMARK   16  A    between atoms: P_42  and  O_36 
REMARK   17  A    between atoms: P_41  and  O_40 
REMARK   18  A    between atoms: P_42  and  O_40 
ROOT
HETATM    1  C   UNK N   1      31.098  16.138   5.652  0.00  0.00     0.215 C 
ENDROOT
BRANCH   1   2
HETATM    2  C   UNK N   1      30.170  17.299   5.936  0.00  0.00     0.180 C 
HETATM    3  C   UNK N   1      29.661  17.334   7.369  0.00  0.00     0.182 C 
HETATM    4  C   UNK N   1      28.521  18.285   7.151  0.00  0.00     0.198 C 
HETATM    5  C   UNK N   1      27.944  17.651   5.883  0.00  0.00     0.262 C 
HETATM    6  O   UNK N   1      29.039  17.196   5.111  0.00  0.00    -0.353 OA
BRANCH   3   7
HETATM    7  O   UNK N   1      30.609  17.808   8.279  0.00  0.00    -0.390 OA
HETATM    8  H   UNK N   1      30.565  18.169   9.179  0.00  0.00     0.210 HD
ENDBRANCH   3   7
BRANCH   4   9
HETATM    9  O   UNK N   1      27.621  18.306   8.219  0.00  0.00    -0.388 OA
HETATM   10  H   UNK N   1      27.464  19.126   8.713  0.00  0.00     0.210 HD
ENDBRANCH   4   9
BRANCH   5  11
HETATM   11  N   UNK N   1      27.133  18.574   5.089  0.00  0.00    -0.297 N 
HETATM   12  C   UNK N   1      27.599  19.611   4.343  0.00  0.00     0.188 A 
HETATM   13  N   UNK N   1      26.593  20.235   3.672  0.00  0.00    -0.346 N 
HETATM   14  C   UNK N   1      25.490  19.550   4.023  0.00  0.00     0.122 A 
ATOM     15  HN  UNK N   1      26.659  21.038   3.048  1.00  0.00     0.167 HD
HETATM   16  C   UNK N   1      24.179  19.718   3.618  0.00  0.00     0.131 A 
HETATM   17  C   UNK N   1      25.813  18.560   4.879  0.00  0.00     0.142 A 
HETATM   18  N   UNK N   1      23.241  18.861   4.118  0.00  0.00    -0.337 N 
HETATM   19  C   UNK N   1      23.592  17.861   4.996  0.00  0.00     0.183 A 
ATOM     20  HN  UNK N   1      22.266  18.963   3.837  1.00  0.00     0.168 HD
HETATM   21  N   UNK N   1      24.896  17.701   5.379  0.00  0.00    -0.336 N 
ATOM     22  HN  UNK N   1      25.168  16.955   6.022  1.00  0.00     0.168 HD
BRANCH  16  23
HETATM   23  N   UNK N   1      23.820  20.727   2.701  0.00  0.00    -0.383 N 
HETATM   24  H   UNK N   1      23.492  21.609   2.990  0.00  0.00     0.157 HD
HETATM   25  H   UNK N   1      23.901  20.543   1.738  0.00  0.00     0.157 HD
ENDBRANCH  16  23
ENDBRANCH   5  11
ENDBRANCH   1   2
BRANCH   1  26
HETATM   26  O   UNK N   1      32.045  16.030   6.664  0.00  0.00    -0.294 OA
BRANCH  26  27
HETATM   27  P   UNK N   1      33.592  16.481   5.971  0.00  0.00     0.401 P 
HETATM   28  O   UNK N   1      33.991  15.464   4.866  0.00  0.00    -0.631 OA
BRANCH  27  29
HETATM   29  O   UNK N   1      33.515  18.047   5.225  0.00  0.00    -0.307 OA
HETATM   30  H   UNK N   1      33.520  19.005   5.075  0.00  0.00     0.222 HD
ENDBRANCH  27  29
BRANCH  27  31
HETATM   31  O   UNK N   1      34.846  16.417   7.168  0.00  0.00    -0.195 OA
BRANCH  31  32
HETATM   32  P   UNK N   1      34.172  17.234   8.539  0.00  0.00     0.401 P 
HETATM   33  O   UNK N   1      33.518  18.537   8.005  0.00  0.00    -0.631 OA
BRANCH  32  34
HETATM   34  O   UNK N   1      32.896  16.276   9.234  0.00  0.00    -0.307 OA
HETATM   35  H   UNK N   1      32.488  15.415   9.417  0.00  0.00     0.222 HD
ENDBRANCH  32  34
BRANCH  32  36
HETATM   36  O   UNK N   1      35.407  17.634   9.731  0.00  0.00    -0.294 OA
BRANCH  36  37
HETATM   37  C   UNK N   1      35.409  16.626  10.704  0.00  0.00     0.215 C 
BRANCH  37  38
HETATM   38  C   UNK N   1      35.831  15.281  10.106  0.00  0.00     0.180 C 
HETATM   39  C   UNK N   1      35.117  14.105  10.772  0.00  0.00     0.183 C 
HETATM   40  C   UNK N   1      36.235  13.394  11.464  0.00  0.00     0.218 C 
HETATM   41  C   UNK N   1      37.355  13.689  10.476  0.00  0.00     0.289 C 
HETATM   42  O   UNK N   1      37.227  15.063  10.186  0.00  0.00    -0.349 OA
BRANCH  39  43
HETATM   43  O   UNK N   1      34.086  14.459  11.650  0.00  0.00    -0.390 OA
HETATM   44  H   UNK N   1      33.953  15.335  12.044  0.00  0.00     0.210 HD
ENDBRANCH  39  43
BRANCH  40  45
HETATM   45  O   UNK N   1      35.893  12.061  11.616  0.00  0.00    -0.309 OA
BRANCH  45  46
HETATM   46  C   UNK N   1      34.854  11.561  12.325  0.00  0.00     0.255 C 
HETATM   47  C   UNK N   1      34.055  10.447  11.744  0.00  0.00     0.126 C 
HETATM   48  O   UNK N   1      34.564  12.004  13.423  0.00  0.00    -0.266 OA
ENDBRANCH  45  46
ENDBRANCH  40  45
BRANCH  41  49
HETATM   49  O   UNK N   1      38.609  13.433  11.031  0.00  0.00    -0.368 OA
HETATM   50  H   UNK N   1      39.437  13.188  10.589  0.00  0.00     0.212 HD
ENDBRANCH  41  49
ENDBRANCH  37  38
ENDBRANCH  36  37
ENDBRANCH  32  36
ENDBRANCH  31  32
ENDBRANCH  27  31
ENDBRANCH  26  27
ENDBRANCH   1  26
TORSDOF 18
ENDMDL
MODEL 4
REMARK VINA RESULT:      -7.8      6.005     12.564
REMARK  18 active torsions:
REMARK  status: ('A' for Active; 'I' for Inactive)
REMARK    1  A    between atoms: C_7  and  C_2 
REMARK    2  A    between atoms: O_35  and  C_2 
REMARK    3  A    between atoms: C_8  and  C_3 
REMARK    4  A    between atoms: O_36  and  C_3 
REMARK    5  A    between atoms: O_37  and  C_6 
REMARK    6  A    between atoms: C_10  and  O_27 
REMARK    7  A    between atoms: C_11  and  O_28 
REMARK    8  A    between atoms: C_12  and  O_29 
REMARK    9  A    between atoms: C_13  and  O_37 
REMARK   10  A    between atoms: N_18  and  C_14 
REMARK   11  A    between atoms: C_16  and  N_25 
REMARK   12  A    between atoms: C_17  and  O_30 
REMARK   13  A    between atoms: P_41  and  O_31 
REMARK   14  A    between atoms: P_42  and  O_33 
REMARK   15  A    between atoms: P_41  and  O_35 
REMARK   16  A    between atoms: P_42  and  O_36 
REMARK   17  A    between atoms: P_41  and  O_40 
REMARK   18  A    between atoms: P_42  and  O_40 
ROOT
HETATM    1  C   UNK N   1      34.545  13.806  11.416  0.00  0.00     0.215 C 
ENDROOT
BRANCH   1   2
HETATM    2  C   UNK N   1      35.420  13.686  12.646  0.00  0.00     0.180 C 
HETATM    3  C   UNK N   1      36.710  12.919  12.402  0.00  0.00     0.182 C 
HETATM    4  C   UNK N   1      37.057  12.654  13.836  0.00  0.00     0.198 C 
HETATM    5  C   UNK N   1      35.678  12.195  14.316  0.00  0.00     0.262 C 
HETATM    6  O   UNK N   1      34.719  12.986  13.640  0.00  0.00    -0.353 OA
BRANCH   3   7
HETATM    7  O   UNK N   1      37.678  13.669  11.729  0.00  0.00    -0.390 OA
HETATM    8  H   UNK N   1      37.699  14.154  10.889  0.00  0.00     0.210 HD
ENDBRANCH   3   7
BRANCH   4   9
HETATM    9  O   UNK N   1      38.047  11.679  13.983  0.00  0.00    -0.388 OA
HETATM   10  H   UNK N   1      37.825  10.801  14.331  0.00  0.00     0.210 HD
ENDBRANCH   4   9
BRANCH   5  11
HETATM   11  N   UNK N   1      35.493  12.324  15.761  0.00  0.00    -0.297 N 
HETATM   12  C   UNK N   1      34.864  13.347  16.399  0.00  0.00     0.188 A 
HETATM   13  N   UNK N   1      34.801  13.135  17.742  0.00  0.00    -0.346 N 
HETATM   14  C   UNK N   1      35.407  11.947  17.915  0.00  0.00     0.122 A 
ATOM     15  HN  UNK N   1      34.390  13.739  18.453  1.00  0.00     0.167 HD
HETATM   16  C   UNK N   1      35.605  11.217  19.072  0.00  0.00     0.131 A 
HETATM   17  C   UNK N   1      35.828  11.466  16.729  0.00  0.00     0.142 A 
HETATM   18  N   UNK N   1      36.242  10.013  18.966  0.00  0.00    -0.337 N 
HETATM   19  C   UNK N   1      36.670   9.543  17.745  0.00  0.00     0.183 A 
ATOM     20  HN  UNK N   1      36.402   9.454  19.804  1.00  0.00     0.168 HD
HETATM   21  N   UNK N   1      36.457  10.274  16.607  0.00  0.00    -0.336 N 
ATOM     22  HN  UNK N   1      36.761   9.929  15.696  1.00  0.00     0.168 HD
BRANCH  16  23
HETATM   23  N   UNK N   1      35.148  11.684  20.321  0.00  0.00    -0.383 N 
HETATM   24  H   UNK N   1      35.703  12.247  20.908  0.00  0.00     0.157 HD
HETATM   25  H   UNK N   1      34.242  11.441  20.615  0.00  0.00     0.157 HD
ENDBRANCH  16  23
ENDBRANCH   5  11
ENDBRANCH   1   2
BRANCH   1  26
HETATM   26  O   UNK N   1      34.081  15.110  11.292  0.00  0.00    -0.294 OA
BRANCH  26  27
HETATM   27  P   UNK N   1      35.112  15.915  10.123  0.00  0.00     0.401 P 
HETATM   28  O   UNK N   1      36.392  16.447  10.826  0.00  0.00    -0.631 OA
BRANCH  27  29
HETATM   29  O   UNK N   1      35.628  14.817   8.879  0.00  0.00    -0.307 OA
HETATM   30  H   UNK N   1      36.032  14.442   8.082  0.00  0.00     0.222 HD
ENDBRANCH  27  29
BRANCH  27  31
HETATM   31  O   UNK N   1      34.316  17.300   9.447  0.00  0.00    -0.195 OA
BRANCH  31  32
HETATM   32  P   UNK N   1      33.342  16.653   8.169  0.00  0.00     0.401 P 
HETATM   33  O   UNK N   1      34.262  16.534   6.923  0.00  0.00    -0.631 OA
BRANCH  32  34
HETATM   34  O   UNK N   1      32.826  15.041   8.572  0.00  0.00    -0.307 OA
HETATM   35  H   UNK N   1      32.901  14.079   8.474  0.00  0.00     0.222 HD
ENDBRANCH  32  34
BRANCH  32  36
HETATM   36  O   UNK N   1      31.974  17.701   7.799  0.00  0.00    -0.294 OA
BRANCH  36  37
HETATM   37  C   UNK N   1      31.377  17.231   6.621  0.00  0.00     0.215 C 
BRANCH  37  38
HETATM   38  C   UNK N   1      29.886  16.951   6.831  0.00  0.00     0.180 C 
HETATM   39  C   UNK N   1      29.017  17.629   5.772  0.00  0.00     0.183 C 
HETATM   40  C   UNK N   1      28.260  18.640   6.572  0.00  0.00     0.218 C 
HETATM   41  C   UNK N   1      28.142  17.872   7.880  0.00  0.00     0.289 C 
HETATM   42  O   UNK N   1      29.431  17.350   8.110  0.00  0.00    -0.349 OA
BRANCH  39  43
HETATM   43  O   UNK N   1      29.723  18.208   4.711  0.00  0.00    -0.390 OA
HETATM   44  H   UNK N   1      29.423  18.956   4.171  0.00  0.00     0.210 HD
ENDBRANCH  39  43
BRANCH  40  45
HETATM   45  O   UNK N   1      27.070  18.924   5.923  0.00  0.00    -0.309 OA
BRANCH  45  46
HETATM   46  C   UNK N   1      26.602  20.146   5.577  0.00  0.00     0.255 C 
HETATM   47  C   UNK N   1      27.236  21.355   6.171  0.00  0.00     0.126 C 
HETATM   48  O   UNK N   1      25.678  20.273   4.791  0.00  0.00    -0.266 OA
ENDBRANCH  45  46
ENDBRANCH  40  45
BRANCH  41  49
HETATM   49  O   UNK N   1      27.770  18.707   8.933  0.00  0.00    -0.368 OA
HETATM   50  H   UNK N   1      27.599  19.662   8.929  0.00  0.00     0.212 HD
ENDBRANCH  41  49
ENDBRANCH  37  38
ENDBRANCH  36  37
ENDBRANCH  32  36
ENDBRANCH  31  32
ENDBRANCH  27  31
ENDBRANCH  26  27
ENDBRANCH   1  26
TORSDOF 18
ENDMDL
MODEL 5
REMARK VINA RESULT:      -7.8      5.496     11.213
REMARK  18 active torsions:
REMARK  status: ('A' for Active; 'I' for Inactive)
REMARK    1  A    between atoms: C_7  and  C_2 
REMARK    2  A    between atoms: O_35  and  C_2 
REMARK    3  A    between atoms: C_8  and  C_3 
REMARK    4  A    between atoms: O_36  and  C_3 
REMARK    5  A    between atoms: O_37  and  C_6 
REMARK    6  A    between atoms: C_10  and  O_27 
REMARK    7  A    between atoms: C_11  and  O_28 
REMARK    8  A    between atoms: C_12  and  O_29 
REMARK    9  A    between atoms: C_13  and  O_37 
REMARK   10  A    between atoms: N_18  and  C_14 
REMARK   11  A    between atoms: C_16  and  N_25 
REMARK   12  A    between atoms: C_17  and  O_30 
REMARK   13  A    between atoms: P_41  and  O_31 
REMARK   14  A    between atoms: P_42  and  O_33 
REMARK   15  A    between atoms: P_41  and  O_35 
REMARK   16  A    between atoms: P_42  and  O_36 
REMARK   17  A    between atoms: P_41  and  O_40 
REMARK   18  A    between atoms: P_42  and  O_40 
ROOT
HETATM    1  C   UNK N   1      35.236  16.780   9.856  0.00  0.00     0.215 C 
ENDROOT
BRANCH   1   2
HETATM    2  C   UNK N   1      35.800  15.538  10.512  0.00  0.00     0.180 C 
HETATM    3  C   UNK N   1      35.634  14.279   9.675  0.00  0.00     0.182 C 
HETATM    4  C   UNK N   1      35.892  13.281  10.764  0.00  0.00     0.198 C 
HETATM    5  C   UNK N   1      35.008  13.905  11.849  0.00  0.00     0.262 C 
HETATM    6  O   UNK N   1      35.121  15.309  11.720  0.00  0.00    -0.353 OA
BRANCH   3   7
HETATM    7  O   UNK N   1      36.547  14.194   8.621  0.00  0.00    -0.390 OA
HETATM    8  H   UNK N   1      37.515  14.169   8.561  0.00  0.00     0.210 HD
ENDBRANCH   3   7
BRANCH   4   9
HETATM    9  O   UNK N   1      35.508  11.985  10.415  0.00  0.00    -0.388 OA
HETATM   10  H   UNK N   1      35.246  11.778   9.504  0.00  0.00     0.210 HD
ENDBRANCH   4   9
BRANCH   5  11
HETATM   11  N   UNK N   1      35.381  13.503  13.204  0.00  0.00    -0.297 N 
HETATM   12  C   UNK N   1      36.195  14.192  14.048  0.00  0.00     0.188 A 
HETATM   13  N   UNK N   1      36.288  13.583  15.261  0.00  0.00    -0.346 N 
HETATM   14  C   UNK N   1      35.503  12.498  15.144  0.00  0.00     0.122 A 
ATOM     15  HN  UNK N   1      36.829  13.880  16.072  1.00  0.00     0.167 HD
HETATM   16  C   UNK N   1      35.192  11.527  16.078  0.00  0.00     0.131 A 
HETATM   17  C   UNK N   1      34.966  12.446  13.909  0.00  0.00     0.142 A 
HETATM   18  N   UNK N   1      34.341  10.527  15.702  0.00  0.00    -0.337 N 
HETATM   19  C   UNK N   1      33.810  10.490  14.433  0.00  0.00     0.183 A 
ATOM     20  HN  UNK N   1      34.095   9.798  16.370  1.00  0.00     0.168 HD
HETATM   21  N   UNK N   1      34.119  11.465  13.522  0.00  0.00    -0.336 N 
ATOM     22  HN  UNK N   1      33.722  11.452  12.582  1.00  0.00     0.168 HD
BRANCH  16  23
HETATM   23  N   UNK N   1      35.716  11.575  17.386  0.00  0.00    -0.383 N 
HETATM   24  H   UNK N   1      36.680  11.673  17.564  0.00  0.00     0.157 HD
HETATM   25  H   UNK N   1      35.097  11.509  18.148  0.00  0.00     0.157 HD
ENDBRANCH  16  23
ENDBRANCH   5  11
ENDBRANCH   1   2
BRANCH   1  26
HETATM   26  O   UNK N   1      34.782  16.474   8.578  0.00  0.00    -0.294 OA
BRANCH  26  27
HETATM   27  P   UNK N   1      34.190  17.966   7.871  0.00  0.00     0.401 P 
HETATM   28  O   UNK N   1      32.683  18.147   8.207  0.00  0.00    -0.631 OA
BRANCH  27  29
HETATM   29  O   UNK N   1      35.029  19.344   8.515  0.00  0.00    -0.307 OA
HETATM   30  H   UNK N   1      35.715  19.929   8.871  0.00  0.00     0.222 HD
ENDBRANCH  27  29
BRANCH  27  31
HETATM   31  O   UNK N   1      34.299  17.916   6.140  0.00  0.00    -0.195 OA
BRANCH  31  32
HETATM   32  P   UNK N   1      33.142  16.713   5.673  0.00  0.00     0.401 P 
HETATM   33  O   UNK N   1      33.819  15.846   4.576  0.00  0.00    -0.631 OA
BRANCH  32  34
HETATM   34  O   UNK N   1      32.806  15.659   7.016  0.00  0.00    -0.307 OA
HETATM   35  H   UNK N   1      32.281  15.425   7.797  0.00  0.00     0.222 HD
ENDBRANCH  32  34
BRANCH  32  36
HETATM   36  O   UNK N   1      31.670  17.441   5.032  0.00  0.00    -0.294 OA
BRANCH  36  37
HETATM   37  C   UNK N   1      30.765  16.408   4.754  0.00  0.00     0.215 C 
BRANCH  37  38
HETATM   38  C   UNK N   1      29.580  16.435   5.724  0.00  0.00     0.180 C 
HETATM   39  C   UNK N   1      28.588  17.549   5.392  0.00  0.00     0.183 C 
HETATM   40  C   UNK N   1      28.718  18.462   6.569  0.00  0.00     0.218 C 
HETATM   41  C   UNK N   1      29.012  17.426   7.644  0.00  0.00     0.289 C 
HETATM   42  O   UNK N   1      29.984  16.579   7.073  0.00  0.00    -0.349 OA
BRANCH  39  43
HETATM   43  O   UNK N   1      28.823  18.207   4.179  0.00  0.00    -0.390 OA
HETATM   44  H   UNK N   1      29.655  18.627   3.914  0.00  0.00     0.210 HD
ENDBRANCH  39  43
BRANCH  40  45
HETATM   45  O   UNK N   1      27.538  19.173   6.716  0.00  0.00    -0.309 OA
BRANCH  45  46
HETATM   46  C   UNK N   1      27.276  20.420   6.260  0.00  0.00     0.255 C 
HETATM   47  C   UNK N   1      26.409  21.317   7.073  0.00  0.00     0.126 C 
HETATM   48  O   UNK N   1      27.736  20.819   5.203  0.00  0.00    -0.266 OA
ENDBRANCH  45  46
ENDBRANCH  40  45
BRANCH  41  49
HETATM   49  O   UNK N   1      29.517  18.019   8.802  0.00  0.00    -0.368 OA
HETATM   50  H   UNK N   1      29.327  17.811   9.731  0.00  0.00     0.212 HD
ENDBRANCH  41  49
ENDBRANCH  37  38
ENDBRANCH  36  37
ENDBRANCH  32  36
ENDBRANCH  31  32
ENDBRANCH  27  31
ENDBRANCH  26  27
ENDBRANCH   1  26
TORSDOF 18
ENDMDL
MODEL 6
REMARK VINA RESULT:      -7.7      8.590     12.576
REMARK  18 active torsions:
REMARK  status: ('A' for Active; 'I' for Inactive)
REMARK    1  A    between atoms: C_7  and  C_2 
REMARK    2  A    between atoms: O_35  and  C_2 
REMARK    3  A    between atoms: C_8  and  C_3 
REMARK    4  A    between atoms: O_36  and  C_3 
REMARK    5  A    between atoms: O_37  and  C_6 
REMARK    6  A    between atoms: C_10  and  O_27 
REMARK    7  A    between atoms: C_11  and  O_28 
REMARK    8  A    between atoms: C_12  and  O_29 
REMARK    9  A    between atoms: C_13  and  O_37 
REMARK   10  A    between atoms: N_18  and  C_14 
REMARK   11  A    between atoms: C_16  and  N_25 
REMARK   12  A    between atoms: C_17  and  O_30 
REMARK   13  A    between atoms: P_41  and  O_31 
REMARK   14  A    between atoms: P_42  and  O_33 
REMARK   15  A    between atoms: P_41  and  O_35 
REMARK   16  A    between atoms: P_42  and  O_36 
REMARK   17  A    between atoms: P_41  and  O_40 
REMARK   18  A    between atoms: P_42  and  O_40 
ROOT
HETATM    1  C   UNK N   1      22.983  16.209   5.619  0.00  0.00     0.215 C 
ENDROOT
BRANCH   1   2
HETATM    2  C   UNK N   1      22.760  14.870   6.289  0.00  0.00     0.180 C 
HETATM    3  C   UNK N   1      21.792  13.969   5.539  0.00  0.00     0.182 C 
HETATM    4  C   UNK N   1      21.515  13.004   6.653  0.00  0.00     0.198 C 
HETATM    5  C   UNK N   1      21.294  14.022   7.776  0.00  0.00     0.262 C 
HETATM    6  O   UNK N   1      22.207  15.081   7.562  0.00  0.00    -0.353 OA
BRANCH   3   7
HETATM    7  O   UNK N   1      22.360  13.364   4.414  0.00  0.00    -0.390 OA
HETATM    8  H   UNK N   1      23.128  12.790   4.267  0.00  0.00     0.210 HD
ENDBRANCH   3   7
BRANCH   4   9
HETATM    9  O   UNK N   1      20.401  12.198   6.409  0.00  0.00    -0.388 OA
HETATM   10  H   UNK N   1      20.057  12.095   5.508  0.00  0.00     0.210 HD
ENDBRANCH   4   9
BRANCH   5  11
HETATM   11  N   UNK N   1      21.491  13.464   9.113  0.00  0.00    -0.297 N 
HETATM   12  C   UNK N   1      20.510  13.108   9.985  0.00  0.00     0.188 A 
HETATM   13  N   UNK N   1      21.025  12.558  11.118  0.00  0.00    -0.346 N 
HETATM   14  C   UNK N   1      22.355  12.581  10.920  0.00  0.00     0.122 A 
ATOM     15  HN  UNK N   1      20.519  12.211  11.932  1.00  0.00     0.167 HD
HETATM   16  C   UNK N   1      23.377  12.120  11.728  0.00  0.00     0.131 A 
HETATM   17  C   UNK N   1      22.634  13.132   9.721  0.00  0.00     0.142 A 
HETATM   18  N   UNK N   1      24.659  12.249  11.273  0.00  0.00    -0.337 N 
HETATM   19  C   UNK N   1      24.922  12.820  10.050  0.00  0.00     0.183 A 
ATOM     20  HN  UNK N   1      25.432  11.918  11.850  1.00  0.00     0.168 HD
HETATM   21  N   UNK N   1      23.898  13.263   9.256  0.00  0.00    -0.336 N 
ATOM     22  HN  UNK N   1      24.082  13.679   8.342  1.00  0.00     0.168 HD
BRANCH  16  23
HETATM   23  N   UNK N   1      23.110  11.514  12.972  0.00  0.00    -0.383 N 
HETATM   24  H   UNK N   1      22.436  10.805  13.079  0.00  0.00     0.157 HD
HETATM   25  H   UNK N   1      23.617  11.810  13.762  0.00  0.00     0.157 HD
ENDBRANCH  16  23
ENDBRANCH   5  11
ENDBRANCH   1   2
BRANCH   1  26
HETATM   26  O   UNK N   1      22.470  16.182   4.327  0.00  0.00    -0.294 OA
BRANCH  26  27
HETATM   27  P   UNK N   1      21.194  17.384   4.254  0.00  0.00     0.401 P 
HETATM   28  O   UNK N   1      19.810  16.693   4.401  0.00  0.00    -0.631 OA
BRANCH  27  29
HETATM   29  O   UNK N   1      21.336  18.531   5.550  0.00  0.00    -0.307 OA
HETATM   30  H   UNK N   1      21.210  19.301   6.126  0.00  0.00     0.222 HD
ENDBRANCH  27  29
BRANCH  27  31
HETATM   31  O   UNK N   1      21.181  18.177   2.711  0.00  0.00    -0.195 OA
BRANCH  31  32
HETATM   32  P   UNK N   1      21.676  19.801   3.060  0.00  0.00     0.401 P 
HETATM   33  O   UNK N   1      21.799  20.533   1.696  0.00  0.00    -0.631 OA
BRANCH  32  34
HETATM   34  O   UNK N   1      20.433  20.619   3.962  0.00  0.00    -0.307 OA
HETATM   35  H   UNK N   1      19.748  21.302   4.031  0.00  0.00     0.222 HD
ENDBRANCH  32  34
BRANCH  32  36
HETATM   36  O   UNK N   1      23.224  19.843   3.901  0.00  0.00    -0.294 OA
BRANCH  36  37
HETATM   37  C   UNK N   1      24.177  20.374   3.021  0.00  0.00     0.215 C 
BRANCH  37  38
HETATM   38  C   UNK N   1      25.600  20.072   3.499  0.00  0.00     0.180 C 
HETATM   39  C   UNK N   1      25.858  18.571   3.632  0.00  0.00     0.183 C 
HETATM   40  C   UNK N   1      26.038  18.401   5.106  0.00  0.00     0.218 C 
HETATM   41  C   UNK N   1      26.684  19.741   5.425  0.00  0.00     0.289 C 
HETATM   42  O   UNK N   1      25.903  20.692   4.735  0.00  0.00    -0.349 OA
BRANCH  39  43
HETATM   43  O   UNK N   1      24.845  17.750   3.120  0.00  0.00    -0.390 OA
HETATM   44  H   UNK N   1      24.334  17.099   3.625  0.00  0.00     0.210 HD
ENDBRANCH  39  43
BRANCH  40  45
HETATM   45  O   UNK N   1      26.819  17.280   5.335  0.00  0.00    -0.309 OA
BRANCH  45  46
HETATM   46  C   UNK N   1      27.019  16.654   6.519  0.00  0.00     0.255 C 
HETATM   47  C   UNK N   1      26.336  15.355   6.771  0.00  0.00     0.126 C 
HETATM   48  O   UNK N   1      27.744  17.132   7.374  0.00  0.00    -0.266 OA
ENDBRANCH  45  46
ENDBRANCH  40  45
BRANCH  41  49
HETATM   49  O   UNK N   1      26.661  20.009   6.794  0.00  0.00    -0.368 OA
HETATM   50  H   UNK N   1      26.129  19.595   7.491  0.00  0.00     0.212 HD
ENDBRANCH  41  49
ENDBRANCH  37  38
ENDBRANCH  36  37
ENDBRANCH  32  36
ENDBRANCH  31  32
ENDBRANCH  27  31
ENDBRANCH  26  27
ENDBRANCH   1  26
TORSDOF 18
ENDMDL
MODEL 7
REMARK VINA RESULT:      -7.6      6.049     12.308
REMARK  18 active torsions:
REMARK  status: ('A' for Active; 'I' for Inactive)
REMARK    1  A    between atoms: C_7  and  C_2 
REMARK    2  A    between atoms: O_35  and  C_2 
REMARK    3  A    between atoms: C_8  and  C_3 
REMARK    4  A    between atoms: O_36  and  C_3 
REMARK    5  A    between atoms: O_37  and  C_6 
REMARK    6  A    between atoms: C_10  and  O_27 
REMARK    7  A    between atoms: C_11  and  O_28 
REMARK    8  A    between atoms: C_12  and  O_29 
REMARK    9  A    between atoms: C_13  and  O_37 
REMARK   10  A    between atoms: N_18  and  C_14 
REMARK   11  A    between atoms: C_16  and  N_25 
REMARK   12  A    between atoms: C_17  and  O_30 
REMARK   13  A    between atoms: P_41  and  O_31 
REMARK   14  A    between atoms: P_42  and  O_33 
REMARK   15  A    between atoms: P_41  and  O_35 
REMARK   16  A    between atoms: P_42  and  O_36 
REMARK   17  A    between atoms: P_41  and  O_40 
REMARK   18  A    between atoms: P_42  and  O_40 
ROOT
HETATM    1  C   UNK N   1      34.993  13.290  11.729  0.00  0.00     0.215 C 
ENDROOT
BRANCH   1   2
HETATM    2  C   UNK N   1      35.768  12.883  12.963  0.00  0.00     0.180 C 
HETATM    3  C   UNK N   1      36.970  12.001  12.662  0.00  0.00     0.182 C 
HETATM    4  C   UNK N   1      37.193  11.489  14.054  0.00  0.00     0.198 C 
HETATM    5  C   UNK N   1      35.742  11.147  14.400  0.00  0.00     0.262 C 
HETATM    6  O   UNK N   1      34.928  12.143  13.810  0.00  0.00    -0.353 OA
BRANCH   3   7
HETATM    7  O   UNK N   1      38.061  12.709  12.153  0.00  0.00    -0.390 OA
HETATM    8  H   UNK N   1      38.685  13.353  12.522  0.00  0.00     0.210 HD
ENDBRANCH   3   7
BRANCH   4   9
HETATM    9  O   UNK N   1      38.048  10.385  14.096  0.00  0.00    -0.388 OA
HETATM   10  H   UNK N   1      38.775  10.301  13.459  0.00  0.00     0.210 HD
ENDBRANCH   4   9
BRANCH   5  11
HETATM   11  N   UNK N   1      35.484  11.090  15.838  0.00  0.00    -0.297 N 
HETATM   12  C   UNK N   1      35.299   9.962  16.574  0.00  0.00     0.188 A 
HETATM   13  N   UNK N   1      35.149  10.248  17.896  0.00  0.00    -0.346 N 
HETATM   14  C   UNK N   1      35.250  11.587  17.957  0.00  0.00     0.122 A 
ATOM     15  HN  UNK N   1      34.993   9.596  18.665  1.00  0.00     0.167 HD
HETATM   16  C   UNK N   1      35.209  12.428  19.053  0.00  0.00     0.131 A 
HETATM   17  C   UNK N   1      35.444  12.092  16.722  0.00  0.00     0.142 A 
HETATM   18  N   UNK N   1      35.359  13.768  18.836  0.00  0.00    -0.337 N 
HETATM   19  C   UNK N   1      35.548  14.263  17.566  0.00  0.00     0.183 A 
ATOM     20  HN  UNK N   1      35.331  14.412  19.627  1.00  0.00     0.168 HD
HETATM   21  N   UNK N   1      35.598  13.416  16.492  0.00  0.00    -0.336 N 
ATOM     22  HN  UNK N   1      35.749  13.773  15.547  1.00  0.00     0.168 HD
BRANCH  16  23
HETATM   23  N   UNK N   1      35.037  11.922  20.357  0.00  0.00    -0.383 N 
HETATM   24  H   UNK N   1      34.248  11.396  20.619  0.00  0.00     0.157 HD
HETATM   25  H   UNK N   1      35.732  12.102  21.031  0.00  0.00     0.157 HD
ENDBRANCH  16  23
ENDBRANCH   5  11
ENDBRANCH   1   2
BRANCH   1  26
HETATM   26  O   UNK N   1      34.582  14.613  11.843  0.00  0.00    -0.294 OA
BRANCH  26  27
HETATM   27  P   UNK N   1      35.253  15.481  10.474  0.00  0.00     0.401 P 
HETATM   28  O   UNK N   1      34.692  16.930  10.443  0.00  0.00    -0.631 OA
BRANCH  27  29
HETATM   29  O   UNK N   1      36.981  15.601  10.592  0.00  0.00    -0.307 OA
HETATM   30  H   UNK N   1      37.927  15.629  10.377  0.00  0.00     0.222 HD
ENDBRANCH  27  29
BRANCH  27  31
HETATM   31  O   UNK N   1      34.774  14.741   8.980  0.00  0.00    -0.195 OA
BRANCH  31  32
HETATM   32  P   UNK N   1      33.076  15.068   8.865  0.00  0.00     0.401 P 
HETATM   33  O   UNK N   1      32.417  13.795   8.267  0.00  0.00    -0.631 OA
BRANCH  32  34
HETATM   34  O   UNK N   1      32.404  15.287  10.455  0.00  0.00    -0.307 OA
HETATM   35  H   UNK N   1      31.648  15.285  11.061  0.00  0.00     0.222 HD
ENDBRANCH  32  34
BRANCH  32  36
HETATM   36  O   UNK N   1      32.749  16.452   7.824  0.00  0.00    -0.294 OA
BRANCH  36  37
HETATM   37  C   UNK N   1      31.833  17.281   8.485  0.00  0.00     0.215 C 
BRANCH  37  38
HETATM   38  C   UNK N   1      30.410  16.726   8.385  0.00  0.00     0.180 C 
HETATM   39  C   UNK N   1      29.806  16.933   6.997  0.00  0.00     0.183 C 
HETATM   40  C   UNK N   1      28.698  17.900   7.265  0.00  0.00     0.218 C 
HETATM   41  C   UNK N   1      28.311  17.440   8.663  0.00  0.00     0.289 C 
HETATM   42  O   UNK N   1      29.536  17.290   9.345  0.00  0.00    -0.349 OA
BRANCH  39  43
HETATM   43  O   UNK N   1      30.700  17.403   6.027  0.00  0.00    -0.390 OA
HETATM   44  H   UNK N   1      31.108  16.871   5.326  0.00  0.00     0.210 HD
ENDBRANCH  39  43
BRANCH  40  45
HETATM   45  O   UNK N   1      27.728  17.753   6.287  0.00  0.00    -0.309 OA
BRANCH  45  46
HETATM   46  C   UNK N   1      27.576  18.505   5.172  0.00  0.00     0.255 C 
HETATM   47  C   UNK N   1      26.297  18.417   4.413  0.00  0.00     0.126 C 
HETATM   48  O   UNK N   1      28.460  19.248   4.781  0.00  0.00    -0.266 OA
ENDBRANCH  45  46
ENDBRANCH  40  45
BRANCH  41  49
HETATM   49  O   UNK N   1      27.517  18.384   9.312  0.00  0.00    -0.368 OA
HETATM   50  H   UNK N   1      26.614  18.295   9.656  0.00  0.00     0.212 HD
ENDBRANCH  41  49
ENDBRANCH  37  38
ENDBRANCH  36  37
ENDBRANCH  32  36
ENDBRANCH  31  32
ENDBRANCH  27  31
ENDBRANCH  26  27
ENDBRANCH   1  26
TORSDOF 18
ENDMDL
MODEL 8
REMARK VINA RESULT:      -7.6      2.252      3.711
REMARK  18 active torsions:
REMARK  status: ('A' for Active; 'I' for Inactive)
REMARK    1  A    between atoms: C_7  and  C_2 
REMARK    2  A    between atoms: O_35  and  C_2 
REMARK    3  A    between atoms: C_8  and  C_3 
REMARK    4  A    between atoms: O_36  and  C_3 
REMARK    5  A    between atoms: O_37  and  C_6 
REMARK    6  A    between atoms: C_10  and  O_27 
REMARK    7  A    between atoms: C_11  and  O_28 
REMARK    8  A    between atoms: C_12  and  O_29 
REMARK    9  A    between atoms: C_13  and  O_37 
REMARK   10  A    between atoms: N_18  and  C_14 
REMARK   11  A    between atoms: C_16  and  N_25 
REMARK   12  A    between atoms: C_17  and  O_30 
REMARK   13  A    between atoms: P_41  and  O_31 
REMARK   14  A    between atoms: P_42  and  O_33 
REMARK   15  A    between atoms: P_41  and  O_35 
REMARK   16  A    between atoms: P_42  and  O_36 
REMARK   17  A    between atoms: P_41  and  O_40 
REMARK   18  A    between atoms: P_42  and  O_40 
ROOT
HETATM    1  C   UNK N   1      32.887  14.053   7.792  0.00  0.00     0.215 C 
ENDROOT
BRANCH   1   2
HETATM    2  C   UNK N   1      32.461  15.479   7.517  0.00  0.00     0.180 C 
HETATM    3  C   UNK N   1      32.279  16.312   8.777  0.00  0.00     0.182 C 
HETATM    4  C   UNK N   1      31.491  17.431   8.163  0.00  0.00     0.198 C 
HETATM    5  C   UNK N   1      30.505  16.587   7.350  0.00  0.00     0.262 C 
HETATM    6  O   UNK N   1      31.221  15.470   6.860  0.00  0.00    -0.353 OA
BRANCH   3   7
HETATM    7  O   UNK N   1      33.486  16.732   9.340  0.00  0.00    -0.390 OA
HETATM    8  H   UNK N   1      33.728  17.215  10.146  0.00  0.00     0.210 HD
ENDBRANCH   3   7
BRANCH   4   9
HETATM    9  O   UNK N   1      30.872  18.245   9.114  0.00  0.00    -0.388 OA
HETATM   10  H   UNK N   1      30.070  17.944   9.571  0.00  0.00     0.210 HD
ENDBRANCH   4   9
BRANCH   5  11
HETATM   11  N   UNK N   1      29.901  17.313   6.234  0.00  0.00    -0.297 N 
HETATM   12  C   UNK N   1      30.117  17.074   4.913  0.00  0.00     0.188 A 
HETATM   13  N   UNK N   1      29.352  17.881   4.128  0.00  0.00    -0.346 N 
HETATM   14  C   UNK N   1      28.652  18.624   5.003  0.00  0.00     0.122 A 
ATOM     15  HN  UNK N   1      29.318  17.915   3.110  1.00  0.00     0.167 HD
HETATM   16  C   UNK N   1      27.692  19.590   4.773  0.00  0.00     0.131 A 
HETATM   17  C   UNK N   1      28.988  18.289   6.266  0.00  0.00     0.142 A 
HETATM   18  N   UNK N   1      27.113  20.188   5.857  0.00  0.00    -0.337 N 
HETATM   19  C   UNK N   1      27.475  19.836   7.137  0.00  0.00     0.183 A 
ATOM     20  HN  UNK N   1      26.402  20.905   5.715  1.00  0.00     0.168 HD
HETATM   21  N   UNK N   1      28.421  18.868   7.349  0.00  0.00    -0.336 N 
ATOM     22  HN  UNK N   1      28.689  18.592   8.295  1.00  0.00     0.168 HD
BRANCH  16  23
HETATM   23  N   UNK N   1      27.302  19.937   3.463  0.00  0.00    -0.383 N 
HETATM   24  H   UNK N   1      26.799  19.322   2.883  0.00  0.00     0.157 HD
HETATM   25  H   UNK N   1      27.541  20.827   3.118  0.00  0.00     0.157 HD
ENDBRANCH  16  23
ENDBRANCH   5  11
ENDBRANCH   1   2
BRANCH   1  26
HETATM   26  O   UNK N   1      33.057  13.865   9.158  0.00  0.00    -0.294 OA
BRANCH  26  27
HETATM   27  P   UNK N   1      34.537  12.948   9.372  0.00  0.00     0.401 P 
HETATM   28  O   UNK N   1      34.465  12.131  10.692  0.00  0.00    -0.631 OA
BRANCH  27  29
HETATM   29  O   UNK N   1      34.767  11.814   8.077  0.00  0.00    -0.307 OA
HETATM   30  H   UNK N   1      35.157  11.173   7.463  0.00  0.00     0.222 HD
ENDBRANCH  27  29
BRANCH  27  31
HETATM   31  O   UNK N   1      35.902  14.007   9.529  0.00  0.00    -0.195 OA
BRANCH  31  32
HETATM   32  P   UNK N   1      35.702  14.734  11.089  0.00  0.00     0.401 P 
HETATM   33  O   UNK N   1      36.178  16.207  10.960  0.00  0.00    -0.631 OA
BRANCH  32  34
HETATM   34  O   UNK N   1      34.015  14.783  11.510  0.00  0.00    -0.307 OA
HETATM   35  H   UNK N   1      33.135  15.184  11.434  0.00  0.00     0.222 HD
ENDBRANCH  32  34
BRANCH  32  36
HETATM   36  O   UNK N   1      36.656  13.908  12.319  0.00  0.00    -0.294 OA
BRANCH  36  37
HETATM   37  C   UNK N   1      36.321  14.455  13.565  0.00  0.00     0.215 C 
BRANCH  37  38
HETATM   38  C   UNK N   1      35.608  13.427  14.448  0.00  0.00     0.180 C 
HETATM   39  C   UNK N   1      36.500  12.229  14.772  0.00  0.00     0.183 C 
HETATM   40  C   UNK N   1      35.812  11.109  14.060  0.00  0.00     0.218 C 
HETATM   41  C   UNK N   1      34.373  11.581  14.202  0.00  0.00     0.289 C 
HETATM   42  O   UNK N   1      34.408  12.951  13.868  0.00  0.00    -0.349 OA
BRANCH  39  43
HETATM   43  O   UNK N   1      37.838  12.366  14.385  0.00  0.00    -0.390 OA
HETATM   44  H   UNK N   1      38.194  13.062  13.811  0.00  0.00     0.210 HD
ENDBRANCH  39  43
BRANCH  40  45
HETATM   45  O   UNK N   1      36.127   9.916  14.691  0.00  0.00    -0.309 OA
BRANCH  45  46
HETATM   46  C   UNK N   1      36.987   8.966  14.257  0.00  0.00     0.255 C 
HETATM   47  C   UNK N   1      36.504   7.564  14.124  0.00  0.00     0.126 C 
HETATM   48  O   UNK N   1      38.141   9.237  13.972  0.00  0.00    -0.266 OA
ENDBRANCH  45  46
ENDBRANCH  40  45
BRANCH  41  49
HETATM   49  O   UNK N   1      33.521  10.900  13.334  0.00  0.00    -0.368 OA
HETATM   50  H   UNK N   1      33.731  10.214  12.680  0.00  0.00     0.212 HD
ENDBRANCH  41  49
ENDBRANCH  37  38
ENDBRANCH  36  37
ENDBRANCH  32  36
ENDBRANCH  31  32
ENDBRANCH  27  31
ENDBRANCH  26  27
ENDBRANCH   1  26
TORSDOF 18
ENDMDL
MODEL 9
REMARK VINA RESULT:      -7.5      1.392      2.529
REMARK  18 active torsions:
REMARK  status: ('A' for Active; 'I' for Inactive)
REMARK    1  A    between atoms: C_7  and  C_2 
REMARK    2  A    between atoms: O_35  and  C_2 
REMARK    3  A    between atoms: C_8  and  C_3 
REMARK    4  A    between atoms: O_36  and  C_3 
REMARK    5  A    between atoms: O_37  and  C_6 
REMARK    6  A    between atoms: C_10  and  O_27 
REMARK    7  A    between atoms: C_11  and  O_28 
REMARK    8  A    between atoms: C_12  and  O_29 
REMARK    9  A    between atoms: C_13  and  O_37 
REMARK   10  A    between atoms: N_18  and  C_14 
REMARK   11  A    between atoms: C_16  and  N_25 
REMARK   12  A    between atoms: C_17  and  O_30 
REMARK   13  A    between atoms: P_41  and  O_31 
REMARK   14  A    between atoms: P_42  and  O_33 
REMARK   15  A    between atoms: P_41  and  O_35 
REMARK   16  A    between atoms: P_42  and  O_36 
REMARK   17  A    between atoms: P_41  and  O_40 
REMARK   18  A    between atoms: P_42  and  O_40 
ROOT
HETATM    1  C   UNK N   1      31.870  17.709   8.356  0.00  0.00     0.215 C 
ENDROOT
BRANCH   1   2
HETATM    2  C   UNK N   1      30.396  18.035   8.244  0.00  0.00     0.180 C 
HETATM    3  C   UNK N   1      29.575  17.558   9.432  0.00  0.00     0.182 C 
HETATM    4  C   UNK N   1      28.222  17.662   8.793  0.00  0.00     0.198 C 
HETATM    5  C   UNK N   1      28.558  16.996   7.456  0.00  0.00     0.262 C 
HETATM    6  O   UNK N   1      29.870  17.396   7.110  0.00  0.00    -0.353 OA
BRANCH   3   7
HETATM    7  O   UNK N   1      29.717  18.369  10.561  0.00  0.00    -0.390 OA
HETATM    8  H   UNK N   1      29.778  19.326  10.706  0.00  0.00     0.210 HD
ENDBRANCH   3   7
BRANCH   4   9
HETATM    9  O   UNK N   1      27.230  16.993   9.512  0.00  0.00    -0.388 OA
HETATM   10  H   UNK N   1      26.486  16.574   9.050  0.00  0.00     0.210 HD
ENDBRANCH   4   9
BRANCH   5  11
HETATM   11  N   UNK N   1      27.634  17.355   6.380  0.00  0.00    -0.297 N 
HETATM   12  C   UNK N   1      26.813  16.501   5.712  0.00  0.00     0.188 A 
HETATM   13  N   UNK N   1      26.031  17.160   4.815  0.00  0.00    -0.346 N 
HETATM   14  C   UNK N   1      26.390  18.449   4.951  0.00  0.00     0.122 A 
ATOM     15  HN  UNK N   1      25.333  16.768   4.184  1.00  0.00     0.167 HD
HETATM   16  C   UNK N   1      25.902  19.574   4.314  0.00  0.00     0.131 A 
HETATM   17  C   UNK N   1      27.357  18.564   5.883  0.00  0.00     0.142 A 
HETATM   18  N   UNK N   1      26.435  20.785   4.656  0.00  0.00    -0.337 N 
HETATM   19  C   UNK N   1      27.427  20.878   5.606  0.00  0.00     0.183 A 
ATOM     20  HN  UNK N   1      26.094  21.631   4.201  1.00  0.00     0.168 HD
HETATM   21  N   UNK N   1      27.892  19.755   6.236  0.00  0.00    -0.336 N 
ATOM     22  HN  UNK N   1      28.620  19.815   6.949  1.00  0.00     0.168 HD
BRANCH  16  23
HETATM   23  N   UNK N   1      24.871  19.484   3.357  0.00  0.00    -0.383 N 
HETATM   24  H   UNK N   1      23.920  19.578   3.595  0.00  0.00     0.157 HD
HETATM   25  H   UNK N   1      25.110  19.323   2.416  0.00  0.00     0.157 HD
ENDBRANCH  16  23
ENDBRANCH   5  11
ENDBRANCH   1   2
BRANCH   1  26
HETATM   26  O   UNK N   1      32.051  16.632   9.216  0.00  0.00    -0.294 OA
BRANCH  26  27
HETATM   27  P   UNK N   1      32.751  15.330   8.271  0.00  0.00     0.401 P 
HETATM   28  O   UNK N   1      32.276  13.960   8.829  0.00  0.00    -0.631 OA
BRANCH  27  29
HETATM   29  O   UNK N   1      32.243  15.414   6.613  0.00  0.00    -0.307 OA
HETATM   30  H   UNK N   1      31.702  15.470   5.809  0.00  0.00     0.222 HD
ENDBRANCH  27  29
BRANCH  27  31
HETATM   31  O   UNK N   1      34.481  15.335   8.399  0.00  0.00    -0.195 OA
BRANCH  31  32
HETATM   32  P   UNK N   1      34.784  15.574  10.089  0.00  0.00     0.401 P 
HETATM   33  O   UNK N   1      34.910  17.106  10.308  0.00  0.00    -0.631 OA
BRANCH  32  34
HETATM   34  O   UNK N   1      33.414  15.040  11.020  0.00  0.00    -0.307 OA
HETATM   35  H   UNK N   1      32.458  15.012  11.177  0.00  0.00     0.222 HD
ENDBRANCH  32  34
BRANCH  32  36
HETATM   36  O   UNK N   1      36.270  14.776  10.602  0.00  0.00    -0.294 OA
BRANCH  36  37
HETATM   37  C   UNK N   1      35.916  13.624  11.316  0.00  0.00     0.215 C 
BRANCH  37  38
HETATM   38  C   UNK N   1      36.042  13.847  12.825  0.00  0.00     0.180 C 
HETATM   39  C   UNK N   1      37.065  12.908  13.464  0.00  0.00     0.183 C 
HETATM   40  C   UNK N   1      36.212  12.042  14.334  0.00  0.00     0.218 C 
HETATM   41  C   UNK N   1      35.146  13.059  14.714  0.00  0.00     0.289 C 
HETATM   42  O   UNK N   1      34.808  13.697  13.503  0.00  0.00    -0.349 OA
BRANCH  39  43
HETATM   43  O   UNK N   1      37.831  12.164  12.558  0.00  0.00    -0.390 OA
HETATM   44  H   UNK N   1      38.426  11.433  12.786  0.00  0.00     0.210 HD
ENDBRANCH  39  43
BRANCH  40  45
HETATM   45  O   UNK N   1      36.985  11.553  15.375  0.00  0.00    -0.309 OA
BRANCH  45  46
HETATM   46  C   UNK N   1      36.821  10.381  16.031  0.00  0.00     0.255 C 
HETATM   47  C   UNK N   1      36.015  10.364  17.284  0.00  0.00     0.126 C 
HETATM   48  O   UNK N   1      37.316   9.347  15.618  0.00  0.00    -0.266 OA
ENDBRANCH  45  46
ENDBRANCH  40  45
BRANCH  41  49
HETATM   49  O   UNK N   1      34.019  12.442  15.258  0.00  0.00    -0.368 OA
HETATM   50  H   UNK N   1      33.350  12.806  15.858  0.00  0.00     0.212 HD
ENDBRANCH  41  49
ENDBRANCH  37  38
ENDBRANCH  36  37
ENDBRANCH  32  36
ENDBRANCH  31  32
ENDBRANCH  27  31
ENDBRANCH  26  27
ENDBRANCH   1  26
TORSDOF 18
ENDMDL
