REMARK  9 active torsions:
REMARK  status: ('A' for Active; 'I' for Inactive)
REMARK    1  A    between atoms: C_15  and  C_12 
REMARK    2  A    between atoms: C_21  and  C_12 
REMARK    3  A    between atoms: C_16  and  C_14 
REMARK    4  A    between atoms: N_30  and  C_14 
REMARK    5  A    between atoms: C_24  and  C_17 
REMARK    6  A    between atoms: C_22  and  C_19 
REMARK    7  A    between atoms: C_23  and  C_21 
REMARK    8  A    between atoms: C_21  and  N_30 
REMARK       I    between atoms: N_30  and  C_22 
REMARK    9  A    between atoms: O_33  and  C_23 
ROOT
HETATM    1  C   UNK N   1       5.842  -0.239   0.675  0.00  0.00     0.256 C 
HETATM    2  N   UNK N   1       4.523  -0.467   0.336  0.00  0.00    -0.329 N 
HETATM    3  O   UNK N   1       6.132   0.724   1.376  0.00  0.00    -0.267 OA
ENDROOT
BRANCH   2   4
HETATM    4  C   UNK N   1       4.242  -1.333  -0.820  0.00  0.00     0.165 C 
BRANCH   4   5
HETATM    5  C   UNK N   1       3.199  -2.406  -0.640  0.00  0.00    -0.039 A 
HETATM    6  C   UNK N   1       1.891  -2.187  -1.091  0.00  0.00     0.009 A 
HETATM    7  C   UNK N   1       0.924  -3.188  -0.971  0.00  0.00     0.001 A 
HETATM    8  C   UNK N   1       1.269  -4.433  -0.441  0.00  0.00     0.016 A 
HETATM    9  C   UNK N   1       2.587  -4.685  -0.039  0.00  0.00     0.048 A 
HETATM   10  C   UNK N   1       3.546  -3.667  -0.147  0.00  0.00     0.025 A 
BRANCH   9  11
HETATM   11  C   UNK N   1       2.986  -6.035   0.486  0.00  0.00     0.417 C 
HETATM   12  F   UNK N   1       3.937  -6.591  -0.351  0.00  0.00    -0.166 F 
HETATM   13  F   UNK N   1       3.522  -5.904   1.754  0.00  0.00    -0.166 F 
HETATM   14  F   UNK N   1       1.897  -6.889   0.549  0.00  0.00    -0.166 F 
ENDBRANCH   9  11
ENDBRANCH   4   5
ENDBRANCH   2   4
BRANCH   2  15
HETATM   15  C   UNK N   1       3.495   0.454   0.851  0.00  0.00     0.190 C 
BRANCH  15  16
HETATM   16  C   UNK N   1       2.129  -0.231   1.091  0.00  0.00     0.074 C 
BRANCH  16  17
HETATM   17  C   UNK N   1       0.811   0.296   0.569  0.00  0.00    -0.056 A 
HETATM   18  C   UNK N   1      -0.361  -0.311   1.039  0.00  0.00     0.007 A 
HETATM   19  C   UNK N   1      -1.613   0.107   0.577  0.00  0.00     0.001 A 
HETATM   20  C   UNK N   1      -1.702   1.131  -0.369  0.00  0.00     0.000 A 
HETATM   21  C   UNK N   1      -0.540   1.736  -0.850  0.00  0.00     0.001 A 
HETATM   22  C   UNK N   1       0.709   1.319  -0.383  0.00  0.00     0.007 A 
ENDBRANCH  16  17
ENDBRANCH  15  16
BRANCH  15  23
HETATM   23  C   UNK N   1       3.524   1.764   0.098  0.00  0.00     0.164 C 
HETATM   24  O   UNK N   1       3.361   1.790  -1.111  0.00  0.00    -0.648 OA
BRANCH  23  25
HETATM   25  O   UNK N   1       3.783   2.909   0.760  0.00  0.00    -0.775 OA
HETATM   26  H   UNK N   1       4.562   3.152   1.220  0.00  0.00     0.167 HD
ENDBRANCH  23  25
ENDBRANCH  15  23
ENDBRANCH   2  15
BRANCH   1  27
HETATM   27  C   UNK N   1       6.957  -1.079   0.178  0.00  0.00     0.054 A 
HETATM   28  C   UNK N   1       7.991  -0.481  -0.557  0.00  0.00     0.020 A 
HETATM   29  C   UNK N   1       9.086  -1.237  -0.987  0.00  0.00     0.025 A 
HETATM   30  C   UNK N   1       9.168  -2.593  -0.662  0.00  0.00     0.035 A 
HETATM   31  C   UNK N   1       8.167  -3.188   0.106  0.00  0.00     0.048 A 
HETATM   32 Cl   UNK N   1      10.551  -3.537  -1.173  0.00  0.00    -0.084 Cl
HETATM   33  C   UNK N   1       7.063  -2.443   0.528  0.00  0.00     0.051 A 
HETATM   34 Cl   UNK N   1       5.927  -3.202   1.627  0.00  0.00    -0.083 Cl
ENDBRANCH   1  27
TORSDOF 9
