REMARK  8 active torsions:
REMARK  status: ('A' for Active; 'I' for Inactive)
REMARK    1  A    between atoms: C_6  and  C_3 
REMARK    2  A    between atoms: O_20  and  C_3 
REMARK    3  A    between atoms: C_5  and  O_14 
REMARK    4  A    between atoms: C_7  and  N_13 
REMARK    5  A    between atoms: O_15  and  C_8 
REMARK    6  A    between atoms: P_22  and  O_17 
REMARK    7  A    between atoms: P_22  and  O_18 
REMARK    8  A    between atoms: P_22  and  O_20 
ROOT
HETATM    1  C   UNK N   1       0.055   2.457  -0.027  0.00  0.00     0.088 C 
HETATM    2  C   UNK N   1      -1.148   3.313   0.150  0.00  0.00     0.153 C 
HETATM    3  C   UNK N   1      -2.229   2.348  -0.277  0.00  0.00     0.177 C 
HETATM    4  C   UNK N   1      -0.496   1.172   0.560  0.00  0.00     0.235 C 
HETATM    5  O   UNK N   1      -1.848   1.065   0.162  0.00  0.00    -0.356 OA
ENDROOT
BRANCH   4   6
HETATM    6  N   UNK N   1       0.261  -0.059   0.246  0.00  0.00    -0.279 N 
HETATM    7  C   UNK N   1      -0.432  -1.232   0.177  0.00  0.00     0.145 A 
HETATM    8  C   UNK N   1       0.222  -2.443  -0.028  0.00  0.00     0.182 A 
HETATM    9  C   UNK N   1       1.606  -2.445  -0.159  0.00  0.00     0.185 A 
HETATM   10  F   UNK N   1      -0.484  -3.599  -0.084  0.00  0.00    -0.200 F 
HETATM   11  N   UNK N   1       2.291  -1.278  -0.083  0.00  0.00    -0.286 N 
HETATM   12  C   UNK N   1       1.644  -0.086   0.129  0.00  0.00     0.330 A 
ATOM     13  HN  UNK N   1       3.306  -1.285  -0.184  1.00  0.00     0.172 HD
HETATM   14  O   UNK N   1       2.301   0.935   0.221  0.00  0.00    -0.246 OA
BRANCH   9  15
HETATM   15  O   UNK N   1       2.267  -3.599  -0.352  0.00  0.00    -0.344 OA
HETATM   16  H   UNK N   1       1.800  -4.400  -0.486  0.00  0.00     0.219 HD
ENDBRANCH   9  15
ENDBRANCH   4   6
BRANCH   2  17
HETATM   17  O   UNK N   1      -1.100   4.436  -0.676  0.00  0.00    -0.393 OA
HETATM   18  H   UNK N   1      -0.408   4.797  -1.250  0.00  0.00     0.210 HD
ENDBRANCH   2  17
BRANCH   3  19
HETATM   19  C   UNK N   1      -3.564   2.712   0.345  0.00  0.00     0.215 C 
BRANCH  19  20
HETATM   20  O   UNK N   1      -4.186   3.737  -0.372  0.00  0.00    -0.294 OA
BRANCH  20  21
HETATM   21  P   UNK N   1      -5.543   4.193   0.616  0.00  0.00     0.390 P 
HETATM   22  O   UNK N   1      -6.242   3.380  -0.508  0.00  0.00    -0.632 OA
BRANCH  21  23
HETATM   23  O   UNK N   1      -6.738   5.307   0.032  0.00  0.00    -0.307 OA
HETATM   24  H   UNK N   1      -6.533   6.197  -0.294  0.00  0.00     0.222 HD
ENDBRANCH  21  23
BRANCH  21  25
HETATM   25  O   UNK N   1      -4.795   5.600  -0.071  0.00  0.00    -0.307 OA
HETATM   26  H   UNK N   1      -3.904   5.632  -0.455  0.00  0.00     0.222 HD
ENDBRANCH  21  25
ENDBRANCH  20  21
ENDBRANCH  19  20
ENDBRANCH   3  19
TORSDOF 8
