REMARK  0 active torsions:
REMARK  status: ('A' for Active; 'I' for Inactive)
ROOT
HETATM    1  O   UNK N   1       2.944  -0.811   0.000  0.00  0.00    -0.247 OA
HETATM    2  C   UNK N   1       1.853  -0.269  -0.000  0.00  0.00     0.326 A 
HETATM    3  N   UNK N   1       0.713  -1.029   0.000  0.00  0.00    -0.319 N 
HETATM    4  C   UNK N   1      -0.512  -0.443   0.000  0.00  0.00     0.098 A 
HETATM    5  C   UNK N   1      -0.623   0.944  -0.000  0.00  0.00     0.091 A 
HETATM    6  C   UNK N   1       0.539   1.711  -0.000  0.00  0.00     0.250 A 
HETATM    7  O   UNK N   1       0.465   2.924   0.000  0.00  0.00    -0.268 OA
HETATM    8  N   UNK N   1       1.766   1.097  -0.000  0.00  0.00    -0.276 N 
HETATM    9  H   UNK N   1       0.784  -2.011   0.000  0.00  0.00     0.170 HD
HETATM   10  H   UNK N   1       2.586   1.641  -0.000  0.00  0.00     0.173 HD
ENDROOT
TORSDOF 0
