MODEL 1
REMARK VINA RESULT:      -6.1      0.000      0.000
REMARK  6 active torsions:
REMARK  status: ('A' for Active; 'I' for Inactive)
REMARK    1  A    between atoms: C_4  and  C_2 
REMARK    2  A    between atoms: O_14  and  C_2 
REMARK    3  A    between atoms: C_5  and  O_15 
REMARK    4  A    between atoms: C_6  and  O_16 
REMARK    5  A    between atoms: C_7  and  O_17 
REMARK    6  A    between atoms: C_8  and  C_9 
ROOT
HETATM    1  C   UNK N   1      20.192  17.433   3.645  0.00  0.00     0.177 C 
HETATM    2  C   UNK N   1      19.804  18.110   2.307  0.00  0.00     0.180 C 
HETATM    3  C   UNK N   1      20.823  19.228   1.969  0.00  0.00     0.181 C 
HETATM    4  C   UNK N   1      21.299  19.933   3.247  0.00  0.00     0.186 C 
HETATM    5  C   UNK N   1      21.934  18.860   4.209  0.00  0.00     0.229 C 
HETATM    6  O   UNK N   1      21.588  17.518   3.848  0.00  0.00    -0.365 OA
ENDROOT
BRANCH   5   7
HETATM    7  C   UNK N   1      23.430  18.965   4.320  0.00  0.00     0.172 A 
HETATM    8  N   UNK N   1      24.143  18.413   5.322  0.00  0.00    -0.279 N 
HETATM    9  N   UNK N   1      25.400  18.789   5.149  0.00  0.00    -0.282 N 
ATOM     10  HN  UNK N   1      23.784  17.819   6.070  1.00  0.00     0.189 HD
HETATM   11  C   UNK N   1      25.420  19.565   4.051  0.00  0.00     0.136 A 
ATOM     12  HN  UNK N   1      26.198  18.541   5.734  1.00  0.00     0.189 HD
HETATM   13  C   UNK N   1      26.633  20.242   3.523  0.00  0.00     0.099 C 
HETATM   14  O   UNK N   1      24.215  19.674   3.542  0.00  0.00    -0.280 OA
ENDBRANCH   5   7
BRANCH   4  15
HETATM   15  O   UNK N   1      20.201  20.535   3.870  0.00  0.00    -0.390 OA
HETATM   16  H   UNK N   1      19.757  20.896   4.653  0.00  0.00     0.210 HD
ENDBRANCH   4  15
BRANCH   3  17
HETATM   17  O   UNK N   1      20.285  20.130   1.046  0.00  0.00    -0.390 OA
HETATM   18  H   UNK N   1      19.811  19.813   0.261  0.00  0.00     0.210 HD
ENDBRANCH   3  17
BRANCH   1  19
HETATM   19  C   UNK N   1      19.707  15.990   3.726  0.00  0.00     0.198 C 
BRANCH  19  20
HETATM   20  O   UNK N   1      19.296  15.532   2.473  0.00  0.00    -0.398 OA
HETATM   21  H   UNK N   1      19.217  15.344   1.525  0.00  0.00     0.209 HD
ENDBRANCH  19  20
ENDBRANCH   1  19
BRANCH   2  22
HETATM   22  O   UNK N   1      18.506  18.621   2.426  0.00  0.00    -0.390 OA
HETATM   23  H   UNK N   1      17.713  18.331   2.904  0.00  0.00     0.210 HD
ENDBRANCH   2  22
TORSDOF 6
ENDMDL
MODEL 2
REMARK VINA RESULT:      -5.8     15.530     17.017
REMARK  6 active torsions:
REMARK  status: ('A' for Active; 'I' for Inactive)
REMARK    1  A    between atoms: C_4  and  C_2 
REMARK    2  A    between atoms: O_14  and  C_2 
REMARK    3  A    between atoms: C_5  and  O_15 
REMARK    4  A    between atoms: C_6  and  O_16 
REMARK    5  A    between atoms: C_7  and  O_17 
REMARK    6  A    between atoms: C_8  and  C_9 
ROOT
HETATM    1  C   UNK N   1      35.933  13.699   9.766  0.00  0.00     0.177 C 
HETATM    2  C   UNK N   1      35.789  15.205   9.432  0.00  0.00     0.180 C 
HETATM    3  C   UNK N   1      35.427  15.996  10.714  0.00  0.00     0.181 C 
HETATM    4  C   UNK N   1      34.505  15.168  11.620  0.00  0.00     0.186 C 
HETATM    5  C   UNK N   1      35.228  13.814  11.975  0.00  0.00     0.229 C 
HETATM    6  O   UNK N   1      36.335  13.534  11.111  0.00  0.00    -0.365 OA
ENDROOT
BRANCH   5   7
HETATM    7  C   UNK N   1      35.693  13.738  13.404  0.00  0.00     0.172 A 
HETATM    8  N   UNK N   1      36.967  13.958  13.784  0.00  0.00    -0.279 N 
HETATM    9  N   UNK N   1      37.025  13.710  15.083  0.00  0.00    -0.282 N 
ATOM     10  HN  UNK N   1      37.738  14.257  13.187  1.00  0.00     0.189 HD
HETATM   11  C   UNK N   1      35.788  13.341  15.459  0.00  0.00     0.136 A 
ATOM     12  HN  UNK N   1      37.848  13.784  15.682  1.00  0.00     0.189 HD
HETATM   13  C   UNK N   1      35.418  12.925  16.837  0.00  0.00     0.099 C 
HETATM   14  O   UNK N   1      34.970  13.358  14.433  0.00  0.00    -0.280 OA
ENDBRANCH   5   7
BRANCH   4  15
HETATM   15  O   UNK N   1      33.314  14.902  10.937  0.00  0.00    -0.390 OA
HETATM   16  H   UNK N   1      32.767  14.346  10.361  0.00  0.00     0.210 HD
ENDBRANCH   4  15
BRANCH   3  17
HETATM   17  O   UNK N   1      34.865  17.235  10.394  0.00  0.00    -0.390 OA
HETATM   18  H   UNK N   1      34.053  17.289   9.867  0.00  0.00     0.210 HD
ENDBRANCH   3  17
BRANCH   1  19
HETATM   19  C   UNK N   1      36.881  12.981   8.812  0.00  0.00     0.198 C 
BRANCH  19  20
HETATM   20  O   UNK N   1      37.274  13.826   7.773  0.00  0.00    -0.398 OA
HETATM   21  H   UNK N   1      37.723  14.485   7.220  0.00  0.00     0.209 HD
ENDBRANCH  19  20
ENDBRANCH   1  19
BRANCH   2  22
HETATM   22  O   UNK N   1      34.805  15.351   8.447  0.00  0.00    -0.390 OA
HETATM   23  H   UNK N   1      34.787  15.777   7.576  0.00  0.00     0.210 HD
ENDBRANCH   2  22
TORSDOF 6
ENDMDL
MODEL 3
REMARK VINA RESULT:      -5.6      8.933     12.407
REMARK  6 active torsions:
REMARK  status: ('A' for Active; 'I' for Inactive)
REMARK    1  A    between atoms: C_4  and  C_2 
REMARK    2  A    between atoms: O_14  and  C_2 
REMARK    3  A    between atoms: C_5  and  O_15 
REMARK    4  A    between atoms: C_6  and  O_16 
REMARK    5  A    between atoms: C_7  and  O_17 
REMARK    6  A    between atoms: C_8  and  C_9 
ROOT
HETATM    1  C   UNK N   1      33.208  15.654   8.674  0.00  0.00     0.177 C 
HETATM    2  C   UNK N   1      34.016  16.891   9.139  0.00  0.00     0.180 C 
HETATM    3  C   UNK N   1      33.799  18.063   8.150  0.00  0.00     0.181 C 
HETATM    4  C   UNK N   1      33.671  17.542   6.711  0.00  0.00     0.186 C 
HETATM    5  C   UNK N   1      32.474  16.519   6.649  0.00  0.00     0.229 C 
HETATM    6  O   UNK N   1      32.068  16.061   7.944  0.00  0.00    -0.365 OA
ENDROOT
BRANCH   5   7
HETATM    7  C   UNK N   1      31.270  17.048   5.919  0.00  0.00     0.172 A 
HETATM    8  N   UNK N   1      31.308  17.499   4.650  0.00  0.00    -0.279 N 
HETATM    9  N   UNK N   1      30.102  17.973   4.377  0.00  0.00    -0.282 N 
ATOM     10  HN  UNK N   1      32.110  17.480   4.020  1.00  0.00     0.189 HD
HETATM   11  C   UNK N   1      29.364  17.804   5.488  0.00  0.00     0.136 A 
ATOM     12  HN  UNK N   1      29.794  18.386   3.497  1.00  0.00     0.189 HD
HETATM   13  C   UNK N   1      27.952  18.246   5.633  0.00  0.00     0.099 C 
HETATM   14  O   UNK N   1      30.076  17.238   6.433  0.00  0.00    -0.280 OA
ENDBRANCH   5   7
BRANCH   4  15
HETATM   15  O   UNK N   1      34.860  16.900   6.352  0.00  0.00    -0.390 OA
HETATM   16  H   UNK N   1      35.771  16.625   6.540  0.00  0.00     0.210 HD
ENDBRANCH   4  15
BRANCH   3  17
HETATM   17  O   UNK N   1      34.818  19.013   8.269  0.00  0.00    -0.390 OA
HETATM   18  H   UNK N   1      35.284  19.341   7.484  0.00  0.00     0.210 HD
ENDBRANCH   3  17
BRANCH   1  19
HETATM   19  C   UNK N   1      32.825  14.742   9.834  0.00  0.00     0.198 C 
BRANCH  19  20
HETATM   20  O   UNK N   1      33.349  15.220  11.037  0.00  0.00    -0.398 OA
HETATM   21  H   UNK N   1      33.475  15.641  11.902  0.00  0.00     0.209 HD
ENDBRANCH  19  20
ENDBRANCH   1  19
BRANCH   2  22
HETATM   22  O   UNK N   1      35.367  16.535   9.221  0.00  0.00    -0.390 OA
HETATM   23  H   UNK N   1      36.155  16.773   8.707  0.00  0.00     0.210 HD
ENDBRANCH   2  22
TORSDOF 6
ENDMDL
MODEL 4
REMARK VINA RESULT:      -5.6     14.232     17.170
REMARK  6 active torsions:
REMARK  status: ('A' for Active; 'I' for Inactive)
REMARK    1  A    between atoms: C_4  and  C_2 
REMARK    2  A    between atoms: O_14  and  C_2 
REMARK    3  A    between atoms: C_5  and  O_15 
REMARK    4  A    between atoms: C_6  and  O_16 
REMARK    5  A    between atoms: C_7  and  O_17 
REMARK    6  A    between atoms: C_8  and  C_9 
ROOT
HETATM    1  C   UNK N   1      37.389  13.127  11.374  0.00  0.00     0.177 C 
HETATM    2  C   UNK N   1      36.585  12.462  12.518  0.00  0.00     0.180 C 
HETATM    3  C   UNK N   1      35.377  13.355  12.899  0.00  0.00     0.181 C 
HETATM    4  C   UNK N   1      35.743  14.841  12.782  0.00  0.00     0.186 C 
HETATM    5  C   UNK N   1      36.218  15.130  11.308  0.00  0.00     0.229 C 
HETATM    6  O   UNK N   1      36.540  13.936  10.585  0.00  0.00    -0.365 OA
ENDROOT
BRANCH   5   7
HETATM    7  C   UNK N   1      35.231  15.934  10.506  0.00  0.00     0.172 A 
HETATM    8  N   UNK N   1      33.917  15.643  10.436  0.00  0.00    -0.279 N 
HETATM    9  N   UNK N   1      33.384  16.492   9.572  0.00  0.00    -0.282 N 
ATOM     10  HN  UNK N   1      33.427  14.911  10.950  1.00  0.00     0.189 HD
HETATM   11  C   UNK N   1      34.386  17.274   9.134  0.00  0.00     0.136 A 
ATOM     12  HN  UNK N   1      32.404  16.543   9.292  1.00  0.00     0.189 HD
HETATM   13  C   UNK N   1      34.234  18.338   8.108  0.00  0.00     0.099 C 
HETATM   14  O   UNK N   1      35.518  16.934   9.704  0.00  0.00    -0.280 OA
ENDBRANCH   5   7
BRANCH   4  15
HETATM   15  O   UNK N   1      36.779  15.127  13.676  0.00  0.00    -0.390 OA
HETATM   16  H   UNK N   1      37.190  15.065  14.552  0.00  0.00     0.210 HD
ENDBRANCH   4  15
BRANCH   3  17
HETATM   17  O   UNK N   1      34.903  13.036  14.175  0.00  0.00    -0.390 OA
HETATM   18  H   UNK N   1      34.574  12.144  14.372  0.00  0.00     0.210 HD
ENDBRANCH   3  17
BRANCH   1  19
HETATM   19  C   UNK N   1      38.133  12.107  10.518  0.00  0.00     0.198 C 
BRANCH  19  20
HETATM   20  O   UNK N   1      37.996  10.822  11.047  0.00  0.00    -0.398 OA
HETATM   21  H   UNK N   1      37.893   9.865  11.167  0.00  0.00     0.209 HD
ENDBRANCH  19  20
ENDBRANCH   1  19
BRANCH   2  22
HETATM   22  O   UNK N   1      37.440  12.267  13.609  0.00  0.00    -0.390 OA
HETATM   23  H   UNK N   1      37.885  11.489  13.981  0.00  0.00     0.210 HD
ENDBRANCH   2  22
TORSDOF 6
ENDMDL
MODEL 5
REMARK VINA RESULT:      -5.5     14.292     16.940
REMARK  6 active torsions:
REMARK  status: ('A' for Active; 'I' for Inactive)
REMARK    1  A    between atoms: C_4  and  C_2 
REMARK    2  A    between atoms: O_14  and  C_2 
REMARK    3  A    between atoms: C_5  and  O_15 
REMARK    4  A    between atoms: C_6  and  O_16 
REMARK    5  A    between atoms: C_7  and  O_17 
REMARK    6  A    between atoms: C_8  and  C_9 
ROOT
HETATM    1  C   UNK N   1      34.346  14.777  10.096  0.00  0.00     0.177 C 
HETATM    2  C   UNK N   1      35.129  13.750   9.240  0.00  0.00     0.180 C 
HETATM    3  C   UNK N   1      36.270  13.127  10.081  0.00  0.00     0.181 C 
HETATM    4  C   UNK N   1      36.870  14.167  11.038  0.00  0.00     0.186 C 
HETATM    5  C   UNK N   1      35.723  14.723  11.964  0.00  0.00     0.229 C 
HETATM    6  O   UNK N   1      34.414  14.426  11.464  0.00  0.00    -0.365 OA
ENDROOT
BRANCH   5   7
HETATM    7  C   UNK N   1      35.819  14.249  13.388  0.00  0.00     0.172 A 
HETATM    8  N   UNK N   1      36.904  14.442  14.165  0.00  0.00    -0.279 N 
HETATM    9  N   UNK N   1      36.673  13.813  15.306  0.00  0.00    -0.282 N 
ATOM     10  HN  UNK N   1      37.741  14.972  13.921  1.00  0.00     0.189 HD
HETATM   11  C   UNK N   1      35.458  13.247  15.193  0.00  0.00     0.136 A 
ATOM     12  HN  UNK N   1      37.296  13.764  16.113  1.00  0.00     0.189 HD
HETATM   13  C   UNK N   1      34.826  12.399  16.237  0.00  0.00     0.099 C 
HETATM   14  O   UNK N   1      34.933  13.513  14.020  0.00  0.00    -0.280 OA
ENDBRANCH   5   7
BRANCH   4  15
HETATM   15  O   UNK N   1      37.419  15.211  10.288  0.00  0.00    -0.390 OA
HETATM   16  H   UNK N   1      37.706  16.133  10.191  0.00  0.00     0.210 HD
ENDBRANCH   4  15
BRANCH   3  17
HETATM   17  O   UNK N   1      37.244  12.557   9.256  0.00  0.00    -0.390 OA
HETATM   18  H   UNK N   1      37.850  13.117   8.745  0.00  0.00     0.210 HD
ENDBRANCH   3  17
BRANCH   1  19
HETATM   19  C   UNK N   1      32.900  14.933   9.637  0.00  0.00     0.198 C 
BRANCH  19  20
HETATM   20  O   UNK N   1      32.050  15.125  10.728  0.00  0.00    -0.398 OA
HETATM   21  H   UNK N   1      31.362  15.037  11.406  0.00  0.00     0.209 HD
ENDBRANCH  19  20
ENDBRANCH   1  19
BRANCH   2  22
HETATM   22  O   UNK N   1      35.627  14.404   8.107  0.00  0.00    -0.390 OA
HETATM   23  H   UNK N   1      35.257  14.607   7.233  0.00  0.00     0.210 HD
ENDBRANCH   2  22
TORSDOF 6
ENDMDL
MODEL 6
REMARK VINA RESULT:      -5.3     14.682     17.448
REMARK  6 active torsions:
REMARK  status: ('A' for Active; 'I' for Inactive)
REMARK    1  A    between atoms: C_4  and  C_2 
REMARK    2  A    between atoms: O_14  and  C_2 
REMARK    3  A    between atoms: C_5  and  O_15 
REMARK    4  A    between atoms: C_6  and  O_16 
REMARK    5  A    between atoms: C_7  and  O_17 
REMARK    6  A    between atoms: C_8  and  C_9 
ROOT
HETATM    1  C   UNK N   1      35.038  14.832  10.714  0.00  0.00     0.177 C 
HETATM    2  C   UNK N   1      36.521  14.931  10.280  0.00  0.00     0.180 C 
HETATM    3  C   UNK N   1      37.263  13.620  10.640  0.00  0.00     0.181 C 
HETATM    4  C   UNK N   1      36.732  13.041  11.959  0.00  0.00     0.186 C 
HETATM    5  C   UNK N   1      35.183  12.794  11.816  0.00  0.00     0.229 C 
HETATM    6  O   UNK N   1      34.613  13.484  10.698  0.00  0.00    -0.365 OA
ENDROOT
BRANCH   5   7
HETATM    7  C   UNK N   1      34.813  11.339  11.732  0.00  0.00     0.172 A 
HETATM    8  N   UNK N   1      33.641  10.897  11.234  0.00  0.00    -0.279 N 
HETATM    9  N   UNK N   1      33.623   9.585  11.409  0.00  0.00    -0.282 N 
ATOM     10  HN  UNK N   1      32.909  11.463  10.806  1.00  0.00     0.189 HD
HETATM   11  C   UNK N   1      34.780   9.263  12.013  0.00  0.00     0.136 A 
ATOM     12  HN  UNK N   1      32.876   8.944  11.139  1.00  0.00     0.189 HD
HETATM   13  C   UNK N   1      35.150   7.888  12.439  0.00  0.00     0.099 C 
HETATM   14  O   UNK N   1      35.510  10.335  12.212  0.00  0.00    -0.280 OA
ENDBRANCH   5   7
BRANCH   4  15
HETATM   15  O   UNK N   1      36.972  13.958  12.987  0.00  0.00    -0.390 OA
HETATM   16  H   UNK N   1      37.107  14.174  13.923  0.00  0.00     0.210 HD
ENDBRANCH   4  15
BRANCH   3  17
HETATM   17  O   UNK N   1      38.645  13.823  10.681  0.00  0.00    -0.390 OA
HETATM   18  H   UNK N   1      39.168  13.525  11.442  0.00  0.00     0.210 HD
ENDBRANCH   3  17
BRANCH   1  19
HETATM   19  C   UNK N   1      34.125  15.710   9.864  0.00  0.00     0.198 C 
BRANCH  19  20
HETATM   20  O   UNK N   1      34.412  17.062  10.061  0.00  0.00    -0.398 OA
HETATM   21  H   UNK N   1      34.839  17.908  10.267  0.00  0.00     0.209 HD
ENDBRANCH  19  20
ENDBRANCH   1  19
BRANCH   2  22
HETATM   22  O   UNK N   1      37.098  16.036  10.917  0.00  0.00    -0.390 OA
HETATM   23  H   UNK N   1      37.577  16.153  11.753  0.00  0.00     0.210 HD
ENDBRANCH   2  22
TORSDOF 6
ENDMDL
MODEL 7
REMARK VINA RESULT:      -5.2     12.814     15.770
REMARK  6 active torsions:
REMARK  status: ('A' for Active; 'I' for Inactive)
REMARK    1  A    between atoms: C_4  and  C_2 
REMARK    2  A    between atoms: O_14  and  C_2 
REMARK    3  A    between atoms: C_5  and  O_15 
REMARK    4  A    between atoms: C_6  and  O_16 
REMARK    5  A    between atoms: C_7  and  O_17 
REMARK    6  A    between atoms: C_8  and  C_9 
ROOT
HETATM    1  C   UNK N   1      35.297  12.909  10.613  0.00  0.00     0.177 C 
HETATM    2  C   UNK N   1      35.745  13.361  12.025  0.00  0.00     0.180 C 
HETATM    3  C   UNK N   1      35.717  14.907  12.117  0.00  0.00     0.181 C 
HETATM    4  C   UNK N   1      36.133  15.537  10.780  0.00  0.00     0.186 C 
HETATM    5  C   UNK N   1      35.162  15.018   9.653  0.00  0.00     0.229 C 
HETATM    6  O   UNK N   1      34.417  13.863  10.052  0.00  0.00    -0.365 OA
ENDROOT
BRANCH   5   7
HETATM    7  C   UNK N   1      34.206  16.068   9.156  0.00  0.00     0.172 A 
HETATM    8  N   UNK N   1      34.236  17.353   9.560  0.00  0.00    -0.279 N 
HETATM    9  N   UNK N   1      33.199  17.954   8.998  0.00  0.00    -0.282 N 
ATOM     10  HN  UNK N   1      34.924  17.781  10.179  1.00  0.00     0.189 HD
HETATM   11  C   UNK N   1      32.562  17.019   8.271  0.00  0.00     0.136 A 
ATOM     12  HN  UNK N   1      32.934  18.934   9.097  1.00  0.00     0.189 HD
HETATM   13  C   UNK N   1      31.308  17.257   7.510  0.00  0.00     0.099 C 
HETATM   14  O   UNK N   1      33.176  15.863   8.366  0.00  0.00    -0.280 OA
ENDBRANCH   5   7
BRANCH   4  15
HETATM   15  O   UNK N   1      37.446  15.154  10.485  0.00  0.00    -0.390 OA
HETATM   16  H   UNK N   1      38.312  14.807  10.748  0.00  0.00     0.210 HD
ENDBRANCH   4  15
BRANCH   3  17
HETATM   17  O   UNK N   1      36.512  15.359  13.174  0.00  0.00    -0.390 OA
HETATM   18  H   UNK N   1      37.411  15.016  13.299  0.00  0.00     0.210 HD
ENDBRANCH   3  17
BRANCH   1  19
HETATM   19  C   UNK N   1      34.674  11.517  10.619  0.00  0.00     0.198 C 
BRANCH  19  20
HETATM   20  O   UNK N   1      34.234  11.176  11.900  0.00  0.00    -0.398 OA
HETATM   21  H   UNK N   1      33.786  11.148  12.760  0.00  0.00     0.209 HD
ENDBRANCH  19  20
ENDBRANCH   1  19
BRANCH   2  22
HETATM   22  O   UNK N   1      37.029  12.858  12.267  0.00  0.00    -0.390 OA
HETATM   23  H   UNK N   1      37.441  12.406  13.020  0.00  0.00     0.210 HD
ENDBRANCH   2  22
TORSDOF 6
ENDMDL
MODEL 8
REMARK VINA RESULT:      -5.2     12.590     14.082
REMARK  6 active torsions:
REMARK  status: ('A' for Active; 'I' for Inactive)
REMARK    1  A    between atoms: C_4  and  C_2 
REMARK    2  A    between atoms: O_14  and  C_2 
REMARK    3  A    between atoms: C_5  and  O_15 
REMARK    4  A    between atoms: C_6  and  O_16 
REMARK    5  A    between atoms: C_7  and  O_17 
REMARK    6  A    between atoms: C_8  and  C_9 
ROOT
HETATM    1  C   UNK N   1      33.144  14.818   7.507  0.00  0.00     0.177 C 
HETATM    2  C   UNK N   1      33.689  16.039   6.726  0.00  0.00     0.180 C 
HETATM    3  C   UNK N   1      34.449  16.984   7.691  0.00  0.00     0.181 C 
HETATM    4  C   UNK N   1      33.776  17.006   9.071  0.00  0.00     0.186 C 
HETATM    5  C   UNK N   1      33.731  15.536   9.635  0.00  0.00     0.229 C 
HETATM    6  O   UNK N   1      33.965  14.547   8.626  0.00  0.00    -0.365 OA
ENDROOT
BRANCH   5   7
HETATM    7  C   UNK N   1      34.682  15.302  10.776  0.00  0.00     0.172 A 
HETATM    8  N   UNK N   1      35.931  15.807  10.819  0.00  0.00    -0.279 N 
HETATM    9  N   UNK N   1      36.503  15.319  11.908  0.00  0.00    -0.282 N 
ATOM     10  HN  UNK N   1      36.354  16.443  10.143  1.00  0.00     0.189 HD
HETATM   11  C   UNK N   1      35.591  14.525  12.497  0.00  0.00     0.136 A 
ATOM     12  HN  UNK N   1      37.451  15.506  12.236  1.00  0.00     0.189 HD
HETATM   13  C   UNK N   1      35.838  13.735  13.732  0.00  0.00     0.099 C 
HETATM   14  O   UNK N   1      34.476  14.513  11.806  0.00  0.00    -0.280 OA
ENDBRANCH   5   7
BRANCH   4  15
HETATM   15  O   UNK N   1      32.474  17.499   8.934  0.00  0.00    -0.390 OA
HETATM   16  H   UNK N   1      31.724  18.026   9.251  0.00  0.00     0.210 HD
ENDBRANCH   4  15
BRANCH   3  17
HETATM   17  O   UNK N   1      34.563  18.266   7.148  0.00  0.00    -0.390 OA
HETATM   18  H   UNK N   1      33.811  18.880   7.164  0.00  0.00     0.210 HD
ENDBRANCH   3  17
BRANCH   1  19
HETATM   19  C   UNK N   1      32.991  13.585   6.622  0.00  0.00     0.198 C 
BRANCH  19  20
HETATM   20  O   UNK N   1      31.666  13.434   6.207  0.00  0.00    -0.398 OA
HETATM   21  H   UNK N   1      30.712  13.264   6.163  0.00  0.00     0.209 HD
ENDBRANCH  19  20
ENDBRANCH   1  19
BRANCH   2  22
HETATM   22  O   UNK N   1      32.613  16.693   6.114  0.00  0.00    -0.390 OA
HETATM   23  H   UNK N   1      32.536  17.497   5.576  0.00  0.00     0.210 HD
ENDBRANCH   2  22
TORSDOF 6
ENDMDL
MODEL 9
REMARK VINA RESULT:      -5.1     15.671     17.794
REMARK  6 active torsions:
REMARK  status: ('A' for Active; 'I' for Inactive)
REMARK    1  A    between atoms: C_4  and  C_2 
REMARK    2  A    between atoms: O_14  and  C_2 
REMARK    3  A    between atoms: C_5  and  O_15 
REMARK    4  A    between atoms: C_6  and  O_16 
REMARK    5  A    between atoms: C_7  and  O_17 
REMARK    6  A    between atoms: C_8  and  C_9 
ROOT
HETATM    1  C   UNK N   1      35.751  15.148  10.802  0.00  0.00     0.177 C 
HETATM    2  C   UNK N   1      35.849  13.988   9.780  0.00  0.00     0.180 C 
HETATM    3  C   UNK N   1      36.057  12.647  10.527  0.00  0.00     0.181 C 
HETATM    4  C   UNK N   1      36.936  12.848  11.769  0.00  0.00     0.186 C 
HETATM    5  C   UNK N   1      36.253  13.917  12.704  0.00  0.00     0.229 C 
HETATM    6  O   UNK N   1      35.240  14.674  12.032  0.00  0.00    -0.365 OA
ENDROOT
BRANCH   5   7
HETATM    7  C   UNK N   1      35.668  13.329  13.960  0.00  0.00     0.172 A 
HETATM    8  N   UNK N   1      34.738  12.353  13.962  0.00  0.00    -0.279 N 
HETATM    9  N   UNK N   1      34.391  12.160  15.224  0.00  0.00    -0.282 N 
ATOM     10  HN  UNK N   1      34.372  11.859  13.148  1.00  0.00     0.189 HD
HETATM   11  C   UNK N   1      35.113  13.025  15.957  0.00  0.00     0.136 A 
ATOM     12  HN  UNK N   1      33.708  11.487  15.573  1.00  0.00     0.189 HD
HETATM   13  C   UNK N   1      34.998  13.178  17.431  0.00  0.00     0.099 C 
HETATM   14  O   UNK N   1      35.896  13.742  15.186  0.00  0.00    -0.280 OA
ENDBRANCH   5   7
BRANCH   4  15
HETATM   15  O   UNK N   1      38.194  13.308  11.367  0.00  0.00    -0.390 OA
HETATM   16  H   UNK N   1      39.156  13.368  11.478  0.00  0.00     0.210 HD
ENDBRANCH   4  15
BRANCH   3  17
HETATM   17  O   UNK N   1      36.583  11.675   9.671  0.00  0.00    -0.390 OA
HETATM   18  H   UNK N   1      37.333  11.881   9.089  0.00  0.00     0.210 HD
ENDBRANCH   3  17
BRANCH   1  19
HETATM   19  C   UNK N   1      34.926  16.318  10.274  0.00  0.00     0.198 C 
BRANCH  19  20
HETATM   20  O   UNK N   1      35.657  17.506  10.330  0.00  0.00    -0.398 OA
HETATM   21  H   UNK N   1      36.363  18.172  10.335  0.00  0.00     0.209 HD
ENDBRANCH  19  20
ENDBRANCH   1  19
BRANCH   2  22
HETATM   22  O   UNK N   1      36.907  14.254   8.904  0.00  0.00    -0.390 OA
HETATM   23  H   UNK N   1      37.649  13.726   8.569  0.00  0.00     0.210 HD
ENDBRANCH   2  22
TORSDOF 6
ENDMDL
