MODEL 1
REMARK VINA RESULT:      -3.7      0.000      0.000
REMARK  1 active torsions:
REMARK  status: ('A' for Active; 'I' for Inactive)
REMARK       I    between atoms: N_1  and  C_2 
REMARK       I    between atoms: C_2  and  N_5 
REMARK    1  A    between atoms: N_5  and  O_6 
ROOT
HETATM    1  N   UNK N   1      22.800  11.273  10.715  0.00  0.00    -0.233 N 
HETATM    2  C   UNK N   1      23.633  11.903  11.665  0.00  0.00     0.689 C 
HETATM    3  N   UNK N   1      24.792  12.322  11.316  0.00  0.00    -0.233 N 
ATOM      4  HN  UNK N   1      25.111  12.201  10.355  1.00  0.00     0.174 HD
HETATM    5  N   UNK N   1      23.182  12.068  12.997  0.00  0.00    -0.100 N 
HETATM    6  H   UNK N   1      23.110  11.157   9.789  0.00  0.00     0.174 HD
HETATM    7  H   UNK N   1      21.909  10.950  10.981  0.00  0.00     0.174 HD
HETATM    8  H   UNK N   1      25.376  12.762  11.976  0.00  0.00     0.174 HD
HETATM    9  H   UNK N   1      22.290  11.742  13.252  0.00  0.00     0.213 HD
ENDROOT
BRANCH   5  10
HETATM   10  O   UNK N   1      23.957  12.663  13.914  0.00  0.00    -0.276 OA
HETATM   11  H   UNK N   1      24.381  12.134  14.607  0.00  0.00     0.245 HD
ENDBRANCH   5  10
TORSDOF 1
ENDMDL
MODEL 2
REMARK VINA RESULT:      -3.7      9.089      9.312
REMARK  1 active torsions:
REMARK  status: ('A' for Active; 'I' for Inactive)
REMARK       I    between atoms: N_1  and  C_2 
REMARK       I    between atoms: C_2  and  N_5 
REMARK    1  A    between atoms: N_5  and  O_6 
ROOT
HETATM    1  N   UNK N   1      16.938  19.436  11.731  0.00  0.00    -0.233 N 
HETATM    2  C   UNK N   1      17.820  19.008  10.715  0.00  0.00     0.689 C 
HETATM    3  N   UNK N   1      17.476  18.052   9.935  0.00  0.00    -0.233 N 
ATOM      4  HN  UNK N   1      16.567  17.602  10.048  1.00  0.00     0.174 HD
HETATM    5  N   UNK N   1      19.080  19.637  10.566  0.00  0.00    -0.100 N 
HETATM    6  H   UNK N   1      16.061  19.001  11.838  0.00  0.00     0.174 HD
HETATM    7  H   UNK N   1      17.200  20.170  12.332  0.00  0.00     0.174 HD
HETATM    8  H   UNK N   1      18.088  17.751   9.226  0.00  0.00     0.174 HD
HETATM    9  H   UNK N   1      19.332  20.370  11.172  0.00  0.00     0.213 HD
ENDROOT
BRANCH   5  10
HETATM   10  O   UNK N   1      19.931  19.245   9.609  0.00  0.00    -0.276 OA
HETATM   11  H   UNK N   1      19.676  19.315   8.675  0.00  0.00     0.245 HD
ENDBRANCH   5  10
TORSDOF 1
ENDMDL
MODEL 3
REMARK VINA RESULT:      -3.6     13.462     13.759
REMARK  1 active torsions:
REMARK  status: ('A' for Active; 'I' for Inactive)
REMARK       I    between atoms: N_1  and  C_2 
REMARK       I    between atoms: C_2  and  N_5 
REMARK    1  A    between atoms: N_5  and  O_6 
ROOT
HETATM    1  N   UNK N   1      20.427  19.207   3.279  0.00  0.00    -0.233 N 
HETATM    2  C   UNK N   1      20.631  20.141   2.241  0.00  0.00     0.689 C 
HETATM    3  N   UNK N   1      20.984  21.340   2.523  0.00  0.00    -0.233 N 
ATOM      4  HN  UNK N   1      21.116  21.618   3.496  1.00  0.00     0.174 HD
HETATM    5  N   UNK N   1      20.446  19.747   0.893  0.00  0.00    -0.100 N 
HETATM    6  H   UNK N   1      20.555  19.478   4.217  0.00  0.00     0.174 HD
HETATM    7  H   UNK N   1      20.156  18.286   3.066  0.00  0.00     0.174 HD
HETATM    8  H   UNK N   1      21.127  21.994   1.801  0.00  0.00     0.174 HD
HETATM    9  H   UNK N   1      20.175  18.823   0.690  0.00  0.00     0.213 HD
ENDROOT
BRANCH   5  10
HETATM   10  O   UNK N   1      20.634  20.618  -0.107  0.00  0.00    -0.276 OA
HETATM   11  H   UNK N   1      21.189  21.402   0.031  0.00  0.00     0.245 HD
ENDBRANCH   5  10
TORSDOF 1
ENDMDL
MODEL 4
REMARK VINA RESULT:      -3.5      1.422      2.026
REMARK  1 active torsions:
REMARK  status: ('A' for Active; 'I' for Inactive)
REMARK       I    between atoms: N_1  and  C_2 
REMARK       I    between atoms: C_2  and  N_5 
REMARK    1  A    between atoms: N_5  and  O_6 
ROOT
HETATM    1  N   UNK N   1      22.213  11.534  11.036  0.00  0.00    -0.233 N 
HETATM    2  C   UNK N   1      23.375  12.058  11.643  0.00  0.00     0.689 C 
HETATM    3  N   UNK N   1      23.451  12.125  12.920  0.00  0.00    -0.233 N 
ATOM      4  HN  UNK N   1      22.674  11.800  13.496  1.00  0.00     0.174 HD
HETATM    5  N   UNK N   1      24.449  12.507  10.837  0.00  0.00    -0.100 N 
HETATM    6  H   UNK N   1      21.465  11.221  11.593  0.00  0.00     0.174 HD
HETATM    7  H   UNK N   1      22.152  11.482  10.055  0.00  0.00     0.174 HD
HETATM    8  H   UNK N   1      24.260  12.490  13.346  0.00  0.00     0.174 HD
HETATM    9  H   UNK N   1      24.378  12.451   9.857  0.00  0.00     0.213 HD
ENDROOT
BRANCH   5  10
HETATM   10  O   UNK N   1      25.560  13.008  11.393  0.00  0.00    -0.276 OA
HETATM   11  H   UNK N   1      25.499  13.539  12.203  0.00  0.00     0.245 HD
ENDBRANCH   5  10
TORSDOF 1
ENDMDL
MODEL 5
REMARK VINA RESULT:      -3.5     13.520     13.786
REMARK  1 active torsions:
REMARK  status: ('A' for Active; 'I' for Inactive)
REMARK       I    between atoms: N_1  and  C_2 
REMARK       I    between atoms: C_2  and  N_5 
REMARK    1  A    between atoms: N_5  and  O_6 
ROOT
HETATM    1  N   UNK N   1      20.328  18.859   1.099  0.00  0.00    -0.233 N 
HETATM    2  C   UNK N   1      20.747  20.188   1.324  0.00  0.00     0.689 C 
HETATM    3  N   UNK N   1      20.459  21.099   0.471  0.00  0.00    -0.233 N 
ATOM      4  HN  UNK N   1      19.929  20.864  -0.369  1.00  0.00     0.174 HD
HETATM    5  N   UNK N   1      21.483  20.506   2.491  0.00  0.00    -0.100 N 
HETATM    6  H   UNK N   1      19.817  18.634   0.288  0.00  0.00     0.174 HD
HETATM    7  H   UNK N   1      20.548  18.157   1.752  0.00  0.00     0.174 HD
HETATM    8  H   UNK N   1      20.750  22.027   0.625  0.00  0.00     0.174 HD
HETATM    9  H   UNK N   1      21.697  19.797   3.139  0.00  0.00     0.213 HD
ENDROOT
BRANCH   5  10
HETATM   10  O   UNK N   1      21.889  21.761   2.724  0.00  0.00    -0.276 OA
HETATM   11  H   UNK N   1      22.723  22.079   2.342  0.00  0.00     0.245 HD
ENDBRANCH   5  10
TORSDOF 1
ENDMDL
MODEL 6
REMARK VINA RESULT:      -3.4      8.641      8.711
REMARK  1 active torsions:
REMARK  status: ('A' for Active; 'I' for Inactive)
REMARK       I    between atoms: N_1  and  C_2 
REMARK       I    between atoms: C_2  and  N_5 
REMARK    1  A    between atoms: N_5  and  O_6 
ROOT
HETATM    1  N   UNK N   1      17.191  17.606   9.257  0.00  0.00    -0.233 N 
HETATM    2  C   UNK N   1      18.292  18.356   9.726  0.00  0.00     0.689 C 
HETATM    3  N   UNK N   1      19.418  18.280   9.121  0.00  0.00    -0.233 N 
ATOM      4  HN  UNK N   1      19.518  17.680   8.302  1.00  0.00     0.174 HD
HETATM    5  N   UNK N   1      18.143  19.186  10.864  0.00  0.00    -0.100 N 
HETATM    6  H   UNK N   1      17.291  17.028   8.467  0.00  0.00     0.174 HD
HETATM    7  H   UNK N   1      16.325  17.662   9.720  0.00  0.00     0.174 HD
HETATM    8  H   UNK N   1      20.187  18.802   9.446  0.00  0.00     0.174 HD
HETATM    9  H   UNK N   1      17.273  19.235  11.320  0.00  0.00     0.213 HD
ENDROOT
BRANCH   5  10
HETATM   10  O   UNK N   1      19.175  19.906  11.325  0.00  0.00    -0.276 OA
HETATM   11  H   UNK N   1      20.024  19.892  10.855  0.00  0.00     0.245 HD
ENDBRANCH   5  10
TORSDOF 1
ENDMDL
MODEL 7
REMARK VINA RESULT:      -3.3     24.777     25.080
REMARK  1 active torsions:
REMARK  status: ('A' for Active; 'I' for Inactive)
REMARK       I    between atoms: N_1  and  C_2 
REMARK       I    between atoms: C_2  and  N_5 
REMARK    1  A    between atoms: N_5  and  O_6 
ROOT
HETATM    1  N   UNK N   1      43.161  23.578   2.078  0.00  0.00    -0.233 N 
HETATM    2  C   UNK N   1      43.929  23.360   3.242  0.00  0.00     0.689 C 
HETATM    3  N   UNK N   1      43.531  23.832   4.365  0.00  0.00    -0.233 N 
ATOM      4  HN  UNK N   1      42.663  24.365   4.416  1.00  0.00     0.174 HD
HETATM    5  N   UNK N   1      45.133  22.619   3.163  0.00  0.00    -0.100 N 
HETATM    6  H   UNK N   1      42.324  24.093   2.129  0.00  0.00     0.174 HD
HETATM    7  H   UNK N   1      43.464  23.216   1.214  0.00  0.00     0.174 HD
HETATM    8  H   UNK N   1      44.064  23.682   5.179  0.00  0.00     0.174 HD
HETATM    9  H   UNK N   1      45.427  22.261   2.295  0.00  0.00     0.213 HD
ENDROOT
BRANCH   5  10
HETATM   10  O   UNK N   1      45.876  22.400   4.256  0.00  0.00    -0.276 OA
HETATM   11  H   UNK N   1      46.836  22.534   4.224  0.00  0.00     0.245 HD
ENDBRANCH   5  10
TORSDOF 1
ENDMDL
MODEL 8
REMARK VINA RESULT:      -3.2     11.098     11.915
REMARK  1 active torsions:
REMARK  status: ('A' for Active; 'I' for Inactive)
REMARK       I    between atoms: N_1  and  C_2 
REMARK       I    between atoms: C_2  and  N_5 
REMARK    1  A    between atoms: N_5  and  O_6 
ROOT
HETATM    1  N   UNK N   1      36.581  15.428  11.499  0.00  0.00    -0.233 N 
HETATM    2  C   UNK N   1      35.242  15.749  11.185  0.00  0.00     0.689 C 
HETATM    3  N   UNK N   1      34.945  16.936  10.806  0.00  0.00    -0.233 N 
ATOM      4  HN  UNK N   1      35.673  17.646  10.731  1.00  0.00     0.174 HD
HETATM    5  N   UNK N   1      34.237  14.758  11.292  0.00  0.00    -0.100 N 
HETATM    6  H   UNK N   1      37.282  16.115  11.427  0.00  0.00     0.174 HD
HETATM    7  H   UNK N   1      36.812  14.517  11.791  0.00  0.00     0.174 HD
HETATM    8  H   UNK N   1      34.012  17.163  10.586  0.00  0.00     0.174 HD
HETATM    9  H   UNK N   1      34.479  13.850  11.584  0.00  0.00     0.213 HD
ENDROOT
BRANCH   5  10
HETATM   10  O   UNK N   1      32.961  15.042  10.998  0.00  0.00    -0.276 OA
HETATM   11  H   UNK N   1      32.567  14.707  10.178  0.00  0.00     0.245 HD
ENDBRANCH   5  10
TORSDOF 1
ENDMDL
MODEL 9
REMARK VINA RESULT:      -3.1      1.031      1.794
REMARK  1 active torsions:
REMARK  status: ('A' for Active; 'I' for Inactive)
REMARK       I    between atoms: N_1  and  C_2 
REMARK       I    between atoms: C_2  and  N_5 
REMARK    1  A    between atoms: N_5  and  O_6 
ROOT
HETATM    1  N   UNK N   1      25.050  12.738  10.922  0.00  0.00    -0.233 N 
HETATM    2  C   UNK N   1      23.894  12.059  11.364  0.00  0.00     0.689 C 
HETATM    3  N   UNK N   1      23.130  11.482  10.513  0.00  0.00    -0.233 N 
ATOM      4  HN  UNK N   1      23.357  11.514   9.518  1.00  0.00     0.174 HD
HETATM    5  N   UNK N   1      23.586  12.020  12.745  0.00  0.00    -0.100 N 
HETATM    6  H   UNK N   1      25.267  12.767   9.962  0.00  0.00     0.174 HD
HETATM    7  H   UNK N   1      25.639  13.182  11.573  0.00  0.00     0.174 HD
HETATM    8  H   UNK N   1      22.322  11.008  10.818  0.00  0.00     0.174 HD
HETATM    9  H   UNK N   1      24.181  12.467  13.389  0.00  0.00     0.213 HD
ENDROOT
BRANCH   5  10
HETATM   10  O   UNK N   1      22.494  11.381  13.186  0.00  0.00    -0.276 OA
HETATM   11  H   UNK N   1      22.361  10.444  12.972  0.00  0.00     0.245 HD
ENDBRANCH   5  10
TORSDOF 1
ENDMDL
