MODEL 1
REMARK VINA RESULT:      -7.2      0.000      0.000
REMARK  15 active torsions:
REMARK  status: ('A' for Active; 'I' for Inactive)
REMARK    1  A    between atoms: C_4  and  C_2 
REMARK    2  A    between atoms: O_29  and  C_2 
REMARK    3  A    between atoms: C_6  and  O_19 
REMARK    4  A    between atoms: C_7  and  O_20 
REMARK    5  A    between atoms: O_21  and  C_9 
REMARK    6  A    between atoms: C_10  and  N_18 
REMARK    7  A    between atoms: P_33  and  O_22 
REMARK    8  A    between atoms: P_33  and  O_23 
REMARK    9  A    between atoms: P_34  and  O_25 
REMARK   10  A    between atoms: P_35  and  O_27 
REMARK   11  A    between atoms: P_34  and  O_29 
REMARK   12  A    between atoms: P_33  and  O_31 
REMARK   13  A    between atoms: P_35  and  O_31 
REMARK   14  A    between atoms: P_34  and  O_32 
REMARK   15  A    between atoms: P_35  and  O_32 
ROOT
HETATM    1  C   UNK N   1      35.881  13.018  13.931  0.00  0.00     0.180 C 
HETATM    2  C   UNK N   1      34.610  12.394  13.385  0.00  0.00     0.182 C 
HETATM    3  C   UNK N   1      34.192  11.651  14.616  0.00  0.00     0.198 C 
HETATM    4  C   UNK N   1      35.538  11.062  15.049  0.00  0.00     0.258 C 
HETATM    5  O   UNK N   1      36.521  12.030  14.720  0.00  0.00    -0.354 OA
ENDROOT
BRANCH   1   6
HETATM    6  C   UNK N   1      36.779  13.512  12.802  0.00  0.00     0.215 C 
BRANCH   6   7
HETATM    7  O   UNK N   1      36.025  14.262  11.895  0.00  0.00    -0.294 OA
BRANCH   7   8
HETATM    8  P   UNK N   1      36.910  14.230  10.391  0.00  0.00     0.401 P 
HETATM    9  O   UNK N   1      35.744  13.225  10.196  0.00  0.00    -0.631 OA
BRANCH   8  10
HETATM   10  O   UNK N   1      36.799  15.890  10.889  0.00  0.00    -0.307 OA
HETATM   11  H   UNK N   1      37.533  16.310  11.365  0.00  0.00     0.222 HD
ENDBRANCH   8  10
BRANCH   8  12
HETATM   12  O   UNK N   1      35.976  15.058   9.121  0.00  0.00    -0.195 OA
BRANCH  12  13
HETATM   13  P   UNK N   1      34.404  15.725   9.649  0.00  0.00     0.410 P 
HETATM   14  O   UNK N   1      34.559  17.246   9.926  0.00  0.00    -0.631 OA
BRANCH  13  15
HETATM   15  O   UNK N   1      33.747  15.020  11.096  0.00  0.00    -0.307 OA
HETATM   16  H   UNK N   1      33.107  14.981  11.824  0.00  0.00     0.222 HD
ENDBRANCH  13  15
BRANCH  13  17
HETATM   17  O   UNK N   1      33.248  15.633   8.352  0.00  0.00    -0.195 OA
BRANCH  17  18
HETATM   18  P   UNK N   1      33.051  17.254   7.745  0.00  0.00     0.399 P 
HETATM   19  O   UNK N   1      32.208  17.207   6.441  0.00  0.00    -0.631 OA
BRANCH  18  20
HETATM   20  O   UNK N   1      32.238  18.289   8.876  0.00  0.00    -0.307 OA
HETATM   21  H   UNK N   1      31.569  18.525   9.538  0.00  0.00     0.222 HD
ENDBRANCH  18  20
BRANCH  18  22
HETATM   22  O   UNK N   1      34.592  17.919   7.307  0.00  0.00    -0.307 OA
HETATM   23  H   UNK N   1      35.385  17.372   7.199  0.00  0.00     0.222 HD
ENDBRANCH  18  22
ENDBRANCH  17  18
ENDBRANCH  13  17
ENDBRANCH  12  13
ENDBRANCH   8  12
ENDBRANCH   7   8
ENDBRANCH   6   7
ENDBRANCH   1   6
BRANCH   2  24
HETATM   24  O   UNK N   1      34.917  11.487  12.359  0.00  0.00    -0.390 OA
HETATM   25  H   UNK N   1      34.821  10.958  11.552  0.00  0.00     0.210 HD
ENDBRANCH   2  24
BRANCH   3  26
HETATM   26  O   UNK N   1      33.223  10.684  14.337  0.00  0.00    -0.388 OA
HETATM   27  H   UNK N   1      33.320   9.719  14.326  0.00  0.00     0.210 HD
ENDBRANCH   3  26
BRANCH   4  28
HETATM   28  N   UNK N   1      35.606  10.749  16.470  0.00  0.00    -0.319 N 
HETATM   29  C   UNK N   1      35.476   9.386  16.991  0.00  0.00     0.253 A 
HETATM   30  N   UNK N   1      35.296   9.608  18.421  0.00  0.00    -0.362 N 
HETATM   31  C   UNK N   1      35.119   8.560  19.391  0.00  0.00     0.152 C 
HETATM   32  C   UNK N   1      35.273  10.984  18.687  0.00  0.00     0.128 A 
HETATM   33  C   UNK N   1      35.439  11.655  17.537  0.00  0.00     0.153 A 
HETATM   34  C   UNK N   1      35.100  11.678  19.880  0.00  0.00     0.186 A 
HETATM   35  N   UNK N   1      35.441  13.008  17.487  0.00  0.00    -0.174 N 
HETATM   36  C   UNK N   1      35.278  13.707  18.649  0.00  0.00     0.679 A 
HETATM   37  H   UNK N   1      35.560  13.478  16.630  0.00  0.00     0.186 HD
HETATM   38  N   UNK N   1      35.284  14.985  18.628  0.00  0.00    -0.234 N 
HETATM   39  N   UNK N   1      35.109  13.043  19.837  0.00  0.00    -0.168 N 
HETATM   40  H   UNK N   1      35.480  15.464  17.790  0.00  0.00     0.174 HD
ATOM     41  HN  UNK N   1      35.086  15.510  19.480  1.00  0.00     0.174 HD
ATOM     42  HN  UNK N   1      34.988  13.574  20.699  1.00  0.00     0.186 HD
BRANCH  34  43
HETATM   43  O   UNK N   1      34.929  11.035  21.046  0.00  0.00    -0.344 OA
HETATM   44  H   UNK N   1      34.064  10.888  21.378  0.00  0.00     0.219 HD
ENDBRANCH  34  43
ENDBRANCH   4  28
TORSDOF 15
ENDMDL
MODEL 2
REMARK VINA RESULT:      -7.1      7.222     10.438
REMARK  15 active torsions:
REMARK  status: ('A' for Active; 'I' for Inactive)
REMARK    1  A    between atoms: C_4  and  C_2 
REMARK    2  A    between atoms: O_29  and  C_2 
REMARK    3  A    between atoms: C_6  and  O_19 
REMARK    4  A    between atoms: C_7  and  O_20 
REMARK    5  A    between atoms: O_21  and  C_9 
REMARK    6  A    between atoms: C_10  and  N_18 
REMARK    7  A    between atoms: P_33  and  O_22 
REMARK    8  A    between atoms: P_33  and  O_23 
REMARK    9  A    between atoms: P_34  and  O_25 
REMARK   10  A    between atoms: P_35  and  O_27 
REMARK   11  A    between atoms: P_34  and  O_29 
REMARK   12  A    between atoms: P_33  and  O_31 
REMARK   13  A    between atoms: P_35  and  O_31 
REMARK   14  A    between atoms: P_34  and  O_32 
REMARK   15  A    between atoms: P_35  and  O_32 
ROOT
HETATM    1  C   UNK N   1      33.554  15.553   7.900  0.00  0.00     0.180 C 
HETATM    2  C   UNK N   1      34.447  16.470   7.083  0.00  0.00     0.182 C 
HETATM    3  C   UNK N   1      33.381  17.360   6.523  0.00  0.00     0.198 C 
HETATM    4  C   UNK N   1      32.330  16.315   6.135  0.00  0.00     0.258 C 
HETATM    5  O   UNK N   1      32.401  15.295   7.118  0.00  0.00    -0.354 OA
ENDROOT
BRANCH   1   6
HETATM    6  C   UNK N   1      34.285  14.268   8.276  0.00  0.00     0.215 C 
BRANCH   6   7
HETATM    7  O   UNK N   1      35.608  14.561   8.615  0.00  0.00    -0.294 OA
BRANCH   7   8
HETATM    8  P   UNK N   1      36.257  13.106   9.325  0.00  0.00     0.401 P 
HETATM    9  O   UNK N   1      37.406  14.144   9.411  0.00  0.00    -0.631 OA
BRANCH   8  10
HETATM   10  O   UNK N   1      34.630  13.282   9.907  0.00  0.00    -0.307 OA
HETATM   11  H   UNK N   1      34.383  12.949  10.784  0.00  0.00     0.222 HD
ENDBRANCH   8  10
BRANCH   8  12
HETATM   12  O   UNK N   1      36.389  13.299  11.091  0.00  0.00    -0.195 OA
BRANCH  12  13
HETATM   13  P   UNK N   1      35.929  14.911  11.713  0.00  0.00     0.410 P 
HETATM   14  O   UNK N   1      34.389  15.086  11.596  0.00  0.00    -0.631 OA
BRANCH  13  15
HETATM   15  O   UNK N   1      36.646  16.260  10.882  0.00  0.00    -0.307 OA
HETATM   16  H   UNK N   1      37.405  16.769  10.557  0.00  0.00     0.222 HD
ENDBRANCH  13  15
BRANCH  13  17
HETATM   17  O   UNK N   1      36.252  15.010  13.419  0.00  0.00    -0.195 OA
BRANCH  17  18
HETATM   18  P   UNK N   1      35.948  13.425  14.075  0.00  0.00     0.399 P 
HETATM   19  O   UNK N   1      35.815  13.532  15.619  0.00  0.00    -0.631 OA
BRANCH  18  20
HETATM   20  O   UNK N   1      34.487  12.721  13.456  0.00  0.00    -0.307 OA
HETATM   21  H   UNK N   1      33.751  12.614  12.834  0.00  0.00     0.222 HD
ENDBRANCH  18  20
BRANCH  18  22
HETATM   22  O   UNK N   1      37.303  12.383  13.773  0.00  0.00    -0.307 OA
HETATM   23  H   UNK N   1      37.675  12.255  12.887  0.00  0.00     0.222 HD
ENDBRANCH  18  22
ENDBRANCH  17  18
ENDBRANCH  13  17
ENDBRANCH  12  13
ENDBRANCH   8  12
ENDBRANCH   7   8
ENDBRANCH   6   7
ENDBRANCH   1   6
BRANCH   2  24
HETATM   24  O   UNK N   1      35.064  15.750   6.048  0.00  0.00    -0.390 OA
HETATM   25  H   UNK N   1      35.286  15.015   5.457  0.00  0.00     0.210 HD
ENDBRANCH   2  24
BRANCH   3  26
HETATM   26  O   UNK N   1      33.846  18.112   5.440  0.00  0.00    -0.388 OA
HETATM   27  H   UNK N   1      34.429  18.887   5.450  0.00  0.00     0.210 HD
ENDBRANCH   3  26
BRANCH   4  28
HETATM   28  N   UNK N   1      30.975  16.849   6.072  0.00  0.00    -0.319 N 
HETATM   29  C   UNK N   1      30.398  17.407   4.847  0.00  0.00     0.253 A 
HETATM   30  N   UNK N   1      29.197  18.074   5.337  0.00  0.00    -0.362 N 
HETATM   31  C   UNK N   1      28.267  18.789   4.505  0.00  0.00     0.152 C 
HETATM   32  C   UNK N   1      29.123  17.951   6.732  0.00  0.00     0.128 A 
HETATM   33  C   UNK N   1      30.178  17.245   7.165  0.00  0.00     0.153 A 
HETATM   34  C   UNK N   1      28.189  18.438   7.640  0.00  0.00     0.186 A 
HETATM   35  N   UNK N   1      30.378  16.983   8.478  0.00  0.00    -0.174 N 
HETATM   36  C   UNK N   1      29.470  17.449   9.386  0.00  0.00     0.679 A 
HETATM   37  H   UNK N   1      31.163  16.466   8.773  0.00  0.00     0.186 HD
HETATM   38  N   UNK N   1      29.633  17.208  10.629  0.00  0.00    -0.234 N 
HETATM   39  N   UNK N   1      28.382  18.171   8.965  0.00  0.00    -0.168 N 
HETATM   40  H   UNK N   1      30.371  16.627  10.927  0.00  0.00     0.174 HD
ATOM     41  HN  UNK N   1      29.000  17.618  11.316  1.00  0.00     0.174 HD
ATOM     42  HN  UNK N   1      27.709  18.514   9.651  1.00  0.00     0.186 HD
BRANCH  34  43
HETATM   43  O   UNK N   1      27.125  19.151   7.237  0.00  0.00    -0.344 OA
HETATM   44  H   UNK N   1      26.445  19.363   7.846  0.00  0.00     0.219 HD
ENDBRANCH  34  43
ENDBRANCH   4  28
TORSDOF 15
ENDMDL
MODEL 3
REMARK VINA RESULT:      -7.1      8.126     10.670
REMARK  15 active torsions:
REMARK  status: ('A' for Active; 'I' for Inactive)
REMARK    1  A    between atoms: C_4  and  C_2 
REMARK    2  A    between atoms: O_29  and  C_2 
REMARK    3  A    between atoms: C_6  and  O_19 
REMARK    4  A    between atoms: C_7  and  O_20 
REMARK    5  A    between atoms: O_21  and  C_9 
REMARK    6  A    between atoms: C_10  and  N_18 
REMARK    7  A    between atoms: P_33  and  O_22 
REMARK    8  A    between atoms: P_33  and  O_23 
REMARK    9  A    between atoms: P_34  and  O_25 
REMARK   10  A    between atoms: P_35  and  O_27 
REMARK   11  A    between atoms: P_34  and  O_29 
REMARK   12  A    between atoms: P_33  and  O_31 
REMARK   13  A    between atoms: P_35  and  O_31 
REMARK   14  A    between atoms: P_34  and  O_32 
REMARK   15  A    between atoms: P_35  and  O_32 
ROOT
HETATM    1  C   UNK N   1      33.273  17.721   7.310  0.00  0.00     0.180 C 
HETATM    2  C   UNK N   1      33.846  17.535   5.916  0.00  0.00     0.182 C 
HETATM    3  C   UNK N   1      32.614  17.007   5.249  0.00  0.00     0.198 C 
HETATM    4  C   UNK N   1      32.129  16.019   6.315  0.00  0.00     0.258 C 
HETATM    5  O   UNK N   1      32.446  16.600   7.569  0.00  0.00    -0.354 OA
ENDROOT
BRANCH   1   6
HETATM    6  C   UNK N   1      34.384  17.859   8.346  0.00  0.00     0.215 C 
BRANCH   6   7
HETATM    7  O   UNK N   1      33.972  17.297   9.556  0.00  0.00    -0.294 OA
BRANCH   7   8
HETATM    8  P   UNK N   1      35.054  15.963   9.861  0.00  0.00     0.401 P 
HETATM    9  O   UNK N   1      35.734  17.193  10.518  0.00  0.00    -0.631 OA
BRANCH   8  10
HETATM   10  O   UNK N   1      33.437  15.386  10.125  0.00  0.00    -0.307 OA
HETATM   11  H   UNK N   1      32.822  15.290   9.380  0.00  0.00     0.222 HD
ENDBRANCH   8  10
BRANCH   8  12
HETATM   12  O   UNK N   1      34.976  15.499  11.579  0.00  0.00    -0.195 OA
BRANCH  12  13
HETATM   13  P   UNK N   1      35.202  13.755  11.904  0.00  0.00     0.410 P 
HETATM   14  O   UNK N   1      36.705  13.395  11.746  0.00  0.00    -0.631 OA
BRANCH  13  15
HETATM   15  O   UNK N   1      34.321  12.685  10.854  0.00  0.00    -0.307 OA
HETATM   16  H   UNK N   1      34.151  11.820  10.448  0.00  0.00     0.222 HD
ENDBRANCH  13  15
BRANCH  13  17
HETATM   17  O   UNK N   1      34.840  13.404  13.568  0.00  0.00    -0.195 OA
BRANCH  17  18
HETATM   18  P   UNK N   1      36.309  13.672  14.465  0.00  0.00     0.399 P 
HETATM   19  O   UNK N   1      35.985  13.662  15.983  0.00  0.00    -0.631 OA
BRANCH  18  20
HETATM   20  O   UNK N   1      37.503  12.449  14.160  0.00  0.00    -0.307 OA
HETATM   21  H   UNK N   1      37.824  11.571  13.905  0.00  0.00     0.222 HD
ENDBRANCH  18  20
BRANCH  18  22
HETATM   22  O   UNK N   1      36.946  15.247  14.112  0.00  0.00    -0.307 OA
HETATM   23  H   UNK N   1      37.838  15.382  13.754  0.00  0.00     0.222 HD
ENDBRANCH  18  22
ENDBRANCH  17  18
ENDBRANCH  13  17
ENDBRANCH  12  13
ENDBRANCH   8  12
ENDBRANCH   7   8
ENDBRANCH   6   7
ENDBRANCH   1   6
BRANCH   2  24
HETATM   24  O   UNK N   1      34.845  16.550   5.929  0.00  0.00    -0.390 OA
HETATM   25  H   UNK N   1      35.415  15.835   6.252  0.00  0.00     0.210 HD
ENDBRANCH   2  24
BRANCH   3  26
HETATM   26  O   UNK N   1      32.903  16.406   4.021  0.00  0.00    -0.388 OA
HETATM   27  H   UNK N   1      33.432  16.757   3.287  0.00  0.00     0.210 HD
ENDBRANCH   3  26
BRANCH   4  28
HETATM   28  N   UNK N   1      30.701  15.742   6.244  0.00  0.00    -0.319 N 
HETATM   29  C   UNK N   1      30.104  14.907   5.199  0.00  0.00     0.253 A 
HETATM   30  N   UNK N   1      28.679  15.175   5.353  0.00  0.00    -0.362 N 
HETATM   31  C   UNK N   1      27.648  14.584   4.542  0.00  0.00     0.152 C 
HETATM   32  C   UNK N   1      28.483  16.123   6.367  0.00  0.00     0.128 A 
HETATM   33  C   UNK N   1      29.673  16.469   6.879  0.00  0.00     0.153 A 
HETATM   34  C   UNK N   1      27.318  16.708   6.853  0.00  0.00     0.186 A 
HETATM   35  N   UNK N   1      29.792  17.385   7.869  0.00  0.00    -0.174 N 
HETATM   36  C   UNK N   1      28.659  17.967   8.363  0.00  0.00     0.679 A 
HETATM   37  H   UNK N   1      30.677  17.626   8.226  0.00  0.00     0.186 HD
HETATM   38  N   UNK N   1      28.746  18.830   9.301  0.00  0.00    -0.234 N 
HETATM   39  N   UNK N   1      27.431  17.628   7.856  0.00  0.00    -0.168 N 
HETATM   40  H   UNK N   1      29.618  19.019   9.718  0.00  0.00     0.174 HD
ATOM     41  HN  UNK N   1      27.911  19.322   9.620  1.00  0.00     0.174 HD
ATOM     42  HN  UNK N   1      26.591  18.068   8.231  1.00  0.00     0.186 HD
BRANCH  34  43
HETATM   43  O   UNK N   1      26.112  16.386   6.358  0.00  0.00    -0.344 OA
HETATM   44  H   UNK N   1      25.442  17.038   6.293  0.00  0.00     0.219 HD
ENDBRANCH  34  43
ENDBRANCH   4  28
TORSDOF 15
ENDMDL
MODEL 4
REMARK VINA RESULT:      -7.0      7.381     10.853
REMARK  15 active torsions:
REMARK  status: ('A' for Active; 'I' for Inactive)
REMARK    1  A    between atoms: C_4  and  C_2 
REMARK    2  A    between atoms: O_29  and  C_2 
REMARK    3  A    between atoms: C_6  and  O_19 
REMARK    4  A    between atoms: C_7  and  O_20 
REMARK    5  A    between atoms: O_21  and  C_9 
REMARK    6  A    between atoms: C_10  and  N_18 
REMARK    7  A    between atoms: P_33  and  O_22 
REMARK    8  A    between atoms: P_33  and  O_23 
REMARK    9  A    between atoms: P_34  and  O_25 
REMARK   10  A    between atoms: P_35  and  O_27 
REMARK   11  A    between atoms: P_34  and  O_29 
REMARK   12  A    between atoms: P_33  and  O_31 
REMARK   13  A    between atoms: P_35  and  O_31 
REMARK   14  A    between atoms: P_34  and  O_32 
REMARK   15  A    between atoms: P_35  and  O_32 
ROOT
HETATM    1  C   UNK N   1      33.698  16.288   8.242  0.00  0.00     0.180 C 
HETATM    2  C   UNK N   1      34.496  16.942   7.128  0.00  0.00     0.182 C 
HETATM    3  C   UNK N   1      33.347  17.472   6.327  0.00  0.00     0.198 C 
HETATM    4  C   UNK N   1      32.409  16.261   6.363  0.00  0.00     0.258 C 
HETATM    5  O   UNK N   1      32.580  15.662   7.637  0.00  0.00    -0.354 OA
ENDROOT
BRANCH   1   6
HETATM    6  C   UNK N   1      34.554  15.294   9.019  0.00  0.00     0.215 C 
BRANCH   6   7
HETATM    7  O   UNK N   1      34.590  15.657  10.368  0.00  0.00    -0.294 OA
BRANCH   7   8
HETATM    8  P   UNK N   1      35.898  14.746  11.078  0.00  0.00     0.401 P 
HETATM    9  O   UNK N   1      36.439  16.194  10.946  0.00  0.00    -0.631 OA
BRANCH   8  10
HETATM   10  O   UNK N   1      34.432  14.234  11.855  0.00  0.00    -0.307 OA
HETATM   11  H   UNK N   1      34.386  13.371  12.297  0.00  0.00     0.222 HD
ENDBRANCH   8  10
BRANCH   8  12
HETATM   12  O   UNK N   1      36.079  15.182  12.795  0.00  0.00    -0.195 OA
BRANCH  12  13
HETATM   13  P   UNK N   1      36.265  13.799  13.912  0.00  0.00     0.410 P 
HETATM   14  O   UNK N   1      34.909  13.528  14.622  0.00  0.00    -0.631 OA
BRANCH  13  15
HETATM   15  O   UNK N   1      37.449  14.012  15.168  0.00  0.00    -0.307 OA
HETATM   16  H   UNK N   1      38.346  13.938  15.531  0.00  0.00     0.222 HD
ENDBRANCH  13  15
BRANCH  13  17
HETATM   17  O   UNK N   1      36.589  12.344  13.016  0.00  0.00    -0.195 OA
BRANCH  17  18
HETATM   18  P   UNK N   1      37.314  11.222  14.134  0.00  0.00     0.399 P 
HETATM   19  O   UNK N   1      37.200   9.785  13.556  0.00  0.00    -0.631 OA
BRANCH  18  20
HETATM   20  O   UNK N   1      38.993  11.559  14.414  0.00  0.00    -0.307 OA
HETATM   21  H   UNK N   1      39.821  11.571  14.919  0.00  0.00     0.222 HD
ENDBRANCH  18  20
BRANCH  18  22
HETATM   22  O   UNK N   1      36.435  11.217  15.630  0.00  0.00    -0.307 OA
HETATM   23  H   UNK N   1      35.660  11.780  15.783  0.00  0.00     0.222 HD
ENDBRANCH  18  22
ENDBRANCH  17  18
ENDBRANCH  13  17
ENDBRANCH  12  13
ENDBRANCH   8  12
ENDBRANCH   7   8
ENDBRANCH   6   7
ENDBRANCH   1   6
BRANCH   2  24
HETATM   24  O   UNK N   1      35.187  15.970   6.391  0.00  0.00    -0.390 OA
HETATM   25  H   UNK N   1      35.702  15.172   6.192  0.00  0.00     0.210 HD
ENDBRANCH   2  24
BRANCH   3  26
HETATM   26  O   UNK N   1      33.737  17.838   5.036  0.00  0.00    -0.388 OA
HETATM   27  H   UNK N   1      33.359  18.524   4.464  0.00  0.00     0.210 HD
ENDBRANCH   3  26
BRANCH   4  28
HETATM   28  N   UNK N   1      31.008  16.604   6.161  0.00  0.00    -0.319 N 
HETATM   29  C   UNK N   1      30.361  16.563   4.847  0.00  0.00     0.253 A 
HETATM   30  N   UNK N   1      29.106  17.266   5.088  0.00  0.00    -0.362 N 
HETATM   31  C   UNK N   1      28.098  17.498   4.088  0.00  0.00     0.152 C 
HETATM   32  C   UNK N   1      29.064  17.716   6.415  0.00  0.00     0.128 A 
HETATM   33  C   UNK N   1      30.190  17.341   7.041  0.00  0.00     0.153 A 
HETATM   34  C   UNK N   1      28.098  18.450   7.097  0.00  0.00     0.186 A 
HETATM   35  N   UNK N   1      30.432  17.655   8.335  0.00  0.00    -0.174 N 
HETATM   36  C   UNK N   1      29.494  18.370   9.024  0.00  0.00     0.679 A 
HETATM   37  H   UNK N   1      31.268  17.373   8.772  0.00  0.00     0.186 HD
HETATM   38  N   UNK N   1      29.697  18.672  10.248  0.00  0.00    -0.234 N 
HETATM   39  N   UNK N   1      28.335  18.762   8.405  0.00  0.00    -0.168 N 
HETATM   40  H   UNK N   1      30.493  18.328  10.716  0.00  0.00     0.174 HD
ATOM     41  HN  UNK N   1      29.035  19.270  10.743  1.00  0.00     0.174 HD
ATOM     42  HN  UNK N   1      27.639  19.296   8.928  1.00  0.00     0.186 HD
BRANCH  34  43
HETATM   43  O   UNK N   1      26.963  18.843   6.498  0.00  0.00    -0.344 OA
HETATM   44  H   UNK N   1      26.455  19.539   6.866  0.00  0.00     0.219 HD
ENDBRANCH  34  43
ENDBRANCH   4  28
TORSDOF 15
ENDMDL
MODEL 5
REMARK VINA RESULT:      -7.0      8.232     11.243
REMARK  15 active torsions:
REMARK  status: ('A' for Active; 'I' for Inactive)
REMARK    1  A    between atoms: C_4  and  C_2 
REMARK    2  A    between atoms: O_29  and  C_2 
REMARK    3  A    between atoms: C_6  and  O_19 
REMARK    4  A    between atoms: C_7  and  O_20 
REMARK    5  A    between atoms: O_21  and  C_9 
REMARK    6  A    between atoms: C_10  and  N_18 
REMARK    7  A    between atoms: P_33  and  O_22 
REMARK    8  A    between atoms: P_33  and  O_23 
REMARK    9  A    between atoms: P_34  and  O_25 
REMARK   10  A    between atoms: P_35  and  O_27 
REMARK   11  A    between atoms: P_34  and  O_29 
REMARK   12  A    between atoms: P_33  and  O_31 
REMARK   13  A    between atoms: P_35  and  O_31 
REMARK   14  A    between atoms: P_34  and  O_32 
REMARK   15  A    between atoms: P_35  and  O_32 
ROOT
HETATM    1  C   UNK N   1      32.786  17.154   5.130  0.00  0.00     0.180 C 
HETATM    2  C   UNK N   1      32.498  16.780   3.686  0.00  0.00     0.182 C 
HETATM    3  C   UNK N   1      31.092  17.291   3.612  0.00  0.00     0.198 C 
HETATM    4  C   UNK N   1      30.545  16.779   4.949  0.00  0.00     0.258 C 
HETATM    5  O   UNK N   1      31.617  16.860   5.874  0.00  0.00    -0.354 OA
ENDROOT
BRANCH   1   6
HETATM    6  C   UNK N   1      34.002  16.401   5.659  0.00  0.00     0.215 C 
BRANCH   6   7
HETATM    7  O   UNK N   1      33.600  15.175   6.195  0.00  0.00    -0.294 OA
BRANCH   7   8
HETATM    8  P   UNK N   1      34.845  14.712   7.326  0.00  0.00     0.401 P 
HETATM    9  O   UNK N   1      35.351  16.031   6.686  0.00  0.00    -0.631 OA
BRANCH   8  10
HETATM   10  O   UNK N   1      33.315  14.434   8.101  0.00  0.00    -0.307 OA
HETATM   11  H   UNK N   1      32.500  14.803   7.725  0.00  0.00     0.222 HD
ENDBRANCH   8  10
BRANCH   8  12
HETATM   12  O   UNK N   1      34.812  15.793   8.741  0.00  0.00    -0.195 OA
BRANCH  12  13
HETATM   13  P   UNK N   1      34.647  14.971  10.320  0.00  0.00     0.410 P 
HETATM   14  O   UNK N   1      35.015  13.470  10.157  0.00  0.00    -0.631 OA
BRANCH  13  15
HETATM   15  O   UNK N   1      33.055  15.019  11.019  0.00  0.00    -0.307 OA
HETATM   16  H   UNK N   1      32.416  15.301  11.693  0.00  0.00     0.222 HD
ENDBRANCH  13  15
BRANCH  13  17
HETATM   17  O   UNK N   1      35.821  15.590  11.444  0.00  0.00    -0.195 OA
BRANCH  17  18
HETATM   18  P   UNK N   1      36.056  14.354  12.649  0.00  0.00     0.399 P 
HETATM   19  O   UNK N   1      36.495  15.022  13.980  0.00  0.00    -0.631 OA
BRANCH  18  20
HETATM   20  O   UNK N   1      34.609  13.444  12.954  0.00  0.00    -0.307 OA
HETATM   21  H   UNK N   1      34.058  12.647  13.001  0.00  0.00     0.222 HD
ENDBRANCH  18  20
BRANCH  18  22
HETATM   22  O   UNK N   1      37.352  13.300  12.181  0.00  0.00    -0.307 OA
HETATM   23  H   UNK N   1      38.247  13.380  12.546  0.00  0.00     0.222 HD
ENDBRANCH  18  22
ENDBRANCH  17  18
ENDBRANCH  13  17
ENDBRANCH  12  13
ENDBRANCH   8  12
ENDBRANCH   7   8
ENDBRANCH   6   7
ENDBRANCH   1   6
BRANCH   2  24
HETATM   24  O   UNK N   1      32.511  15.385   3.535  0.00  0.00    -0.390 OA
HETATM   25  H   UNK N   1      32.629  14.447   3.748  0.00  0.00     0.210 HD
ENDBRANCH   2  24
BRANCH   3  26
HETATM   26  O   UNK N   1      30.412  16.784   2.501  0.00  0.00    -0.388 OA
HETATM   27  H   UNK N   1      29.456  16.674   2.378  0.00  0.00     0.210 HD
ENDBRANCH   3  26
BRANCH   4  28
HETATM   28  N   UNK N   1      29.407  17.542   5.442  0.00  0.00    -0.319 N 
HETATM   29  C   UNK N   1      28.638  18.458   4.596  0.00  0.00     0.253 A 
HETATM   30  N   UNK N   1      27.840  19.196   5.569  0.00  0.00    -0.362 N 
HETATM   31  C   UNK N   1      26.903  20.235   5.233  0.00  0.00     0.152 C 
HETATM   32  C   UNK N   1      28.165  18.772   6.865  0.00  0.00     0.128 A 
HETATM   33  C   UNK N   1      29.099  17.811   6.791  0.00  0.00     0.153 A 
HETATM   34  C   UNK N   1      27.697  19.195   8.105  0.00  0.00     0.186 A 
HETATM   35  N   UNK N   1      29.618  17.225   7.895  0.00  0.00    -0.174 N 
HETATM   36  C   UNK N   1      29.168  17.624   9.122  0.00  0.00     0.679 A 
HETATM   37  H   UNK N   1      30.306  16.525   7.816  0.00  0.00     0.186 HD
HETATM   38  N   UNK N   1      29.637  17.080  10.179  0.00  0.00    -0.234 N 
HETATM   39  N   UNK N   1      28.212  18.602   9.222  0.00  0.00    -0.168 N 
HETATM   40  H   UNK N   1      30.266  16.326  10.107  0.00  0.00     0.174 HD
ATOM     41  HN  UNK N   1      29.360  17.427  11.097  1.00  0.00     0.174 HD
ATOM     42  HN  UNK N   1      27.882  18.893  10.143  1.00  0.00     0.186 HD
BRANCH  34  43
HETATM   43  O   UNK N   1      26.767  20.157   8.213  0.00  0.00    -0.344 OA
HETATM   44  H   UNK N   1      26.624  20.753   7.503  0.00  0.00     0.219 HD
ENDBRANCH  34  43
ENDBRANCH   4  28
TORSDOF 15
ENDMDL
MODEL 6
REMARK VINA RESULT:      -6.9      3.449      5.821
REMARK  15 active torsions:
REMARK  status: ('A' for Active; 'I' for Inactive)
REMARK    1  A    between atoms: C_4  and  C_2 
REMARK    2  A    between atoms: O_29  and  C_2 
REMARK    3  A    between atoms: C_6  and  O_19 
REMARK    4  A    between atoms: C_7  and  O_20 
REMARK    5  A    between atoms: O_21  and  C_9 
REMARK    6  A    between atoms: C_10  and  N_18 
REMARK    7  A    between atoms: P_33  and  O_22 
REMARK    8  A    between atoms: P_33  and  O_23 
REMARK    9  A    between atoms: P_34  and  O_25 
REMARK   10  A    between atoms: P_35  and  O_27 
REMARK   11  A    between atoms: P_34  and  O_29 
REMARK   12  A    between atoms: P_33  and  O_31 
REMARK   13  A    between atoms: P_35  and  O_31 
REMARK   14  A    between atoms: P_34  and  O_32 
REMARK   15  A    between atoms: P_35  and  O_32 
ROOT
HETATM    1  C   UNK N   1      33.912  15.026   9.065  0.00  0.00     0.180 C 
HETATM    2  C   UNK N   1      34.949  16.114   9.283  0.00  0.00     0.182 C 
HETATM    3  C   UNK N   1      35.840  15.372  10.230  0.00  0.00     0.198 C 
HETATM    4  C   UNK N   1      34.791  14.735  11.147  0.00  0.00     0.258 C 
HETATM    5  O   UNK N   1      33.681  14.418  10.324  0.00  0.00    -0.354 OA
ENDROOT
BRANCH   1   6
HETATM    6  C   UNK N   1      32.632  15.599   8.467  0.00  0.00     0.215 C 
BRANCH   6   7
HETATM    7  O   UNK N   1      32.943  16.677   7.634  0.00  0.00    -0.294 OA
BRANCH   7   8
HETATM    8  P   UNK N   1      31.429  17.471   7.287  0.00  0.00     0.401 P 
HETATM    9  O   UNK N   1      31.280  16.044   6.697  0.00  0.00    -0.631 OA
BRANCH   8  10
HETATM   10  O   UNK N   1      31.878  17.901   8.909  0.00  0.00    -0.307 OA
HETATM   11  H   UNK N   1      32.296  17.248   9.493  0.00  0.00     0.222 HD
ENDBRANCH   8  10
BRANCH   8  12
HETATM   12  O   UNK N   1      30.147  16.817   8.337  0.00  0.00    -0.195 OA
BRANCH  12  13
HETATM   13  P   UNK N   1      28.935  18.012   8.887  0.00  0.00     0.410 P 
HETATM   14  O   UNK N   1      29.517  18.821  10.079  0.00  0.00    -0.631 OA
BRANCH  13  15
HETATM   15  O   UNK N   1      27.426  17.341   9.431  0.00  0.00    -0.307 OA
HETATM   16  H   UNK N   1      26.516  17.037   9.292  0.00  0.00     0.222 HD
ENDBRANCH  13  15
BRANCH  13  17
HETATM   17  O   UNK N   1      28.657  19.198   7.646  0.00  0.00    -0.195 OA
BRANCH  17  18
HETATM   18  P   UNK N   1      27.850  18.373   6.341  0.00  0.00     0.399 P 
HETATM   19  O   UNK N   1      28.679  18.551   5.039  0.00  0.00    -0.631 OA
BRANCH  18  20
HETATM   20  O   UNK N   1      27.676  16.672   6.641  0.00  0.00    -0.307 OA
HETATM   21  H   UNK N   1      27.424  15.759   6.435  0.00  0.00     0.222 HD
ENDBRANCH  18  20
BRANCH  18  22
HETATM   22  O   UNK N   1      26.305  19.101   6.039  0.00  0.00    -0.307 OA
HETATM   23  H   UNK N   1      25.974  19.856   6.550  0.00  0.00     0.222 HD
ENDBRANCH  18  22
ENDBRANCH  17  18
ENDBRANCH  13  17
ENDBRANCH  12  13
ENDBRANCH   8  12
ENDBRANCH   7   8
ENDBRANCH   6   7
ENDBRANCH   1   6
BRANCH   2  24
HETATM   24  O   UNK N   1      34.368  17.214   9.931  0.00  0.00    -0.390 OA
HETATM   25  H   UNK N   1      33.708  17.758  10.388  0.00  0.00     0.210 HD
ENDBRANCH   2  24
BRANCH   3  26
HETATM   26  O   UNK N   1      36.719  16.228  10.898  0.00  0.00    -0.388 OA
HETATM   27  H   UNK N   1      36.683  16.531  11.819  0.00  0.00     0.210 HD
ENDBRANCH   3  26
BRANCH   4  28
HETATM   28  N   UNK N   1      35.263  13.535  11.825  0.00  0.00    -0.319 N 
HETATM   29  C   UNK N   1      34.827  12.187  11.451  0.00  0.00     0.253 A 
HETATM   30  N   UNK N   1      35.298  11.379  12.570  0.00  0.00    -0.362 N 
HETATM   31  C   UNK N   1      35.111   9.957  12.681  0.00  0.00     0.152 C 
HETATM   32  C   UNK N   1      35.905  12.204  13.527  0.00  0.00     0.128 A 
HETATM   33  C   UNK N   1      35.870  13.474  13.097  0.00  0.00     0.153 A 
HETATM   34  C   UNK N   1      36.473  11.901  14.760  0.00  0.00     0.186 A 
HETATM   35  N   UNK N   1      36.371  14.496  13.828  0.00  0.00    -0.174 N 
HETATM   36  C   UNK N   1      36.938  14.219  15.041  0.00  0.00     0.679 A 
HETATM   37  H   UNK N   1      36.330  15.421  13.494  0.00  0.00     0.186 HD
HETATM   38  N   UNK N   1      37.424  15.166  15.746  0.00  0.00    -0.234 N 
HETATM   39  N   UNK N   1      36.987  12.928  15.500  0.00  0.00    -0.168 N 
HETATM   40  H   UNK N   1      37.458  16.082  15.386  0.00  0.00     0.174 HD
ATOM     41  HN  UNK N   1      37.778  14.974  16.683  1.00  0.00     0.174 HD
ATOM     42  HN  UNK N   1      37.412  12.730  16.406  1.00  0.00     0.186 HD
BRANCH  34  43
HETATM   43  O   UNK N   1      36.520  10.641  15.220  0.00  0.00    -0.344 OA
HETATM   44  H   UNK N   1      35.877  10.340  15.832  0.00  0.00     0.219 HD
ENDBRANCH  34  43
ENDBRANCH   4  28
TORSDOF 15
ENDMDL
MODEL 7
REMARK VINA RESULT:      -6.7      9.112     12.136
REMARK  15 active torsions:
REMARK  status: ('A' for Active; 'I' for Inactive)
REMARK    1  A    between atoms: C_4  and  C_2 
REMARK    2  A    between atoms: O_29  and  C_2 
REMARK    3  A    between atoms: C_6  and  O_19 
REMARK    4  A    between atoms: C_7  and  O_20 
REMARK    5  A    between atoms: O_21  and  C_9 
REMARK    6  A    between atoms: C_10  and  N_18 
REMARK    7  A    between atoms: P_33  and  O_22 
REMARK    8  A    between atoms: P_33  and  O_23 
REMARK    9  A    between atoms: P_34  and  O_25 
REMARK   10  A    between atoms: P_35  and  O_27 
REMARK   11  A    between atoms: P_34  and  O_29 
REMARK   12  A    between atoms: P_33  and  O_31 
REMARK   13  A    between atoms: P_35  and  O_31 
REMARK   14  A    between atoms: P_34  and  O_32 
REMARK   15  A    between atoms: P_35  and  O_32 
ROOT
HETATM    1  C   UNK N   1      31.450  16.931   6.779  0.00  0.00     0.180 C 
HETATM    2  C   UNK N   1      32.300  17.234   5.557  0.00  0.00     0.182 C 
HETATM    3  C   UNK N   1      31.195  17.345   4.553  0.00  0.00     0.198 C 
HETATM    4  C   UNK N   1      30.340  16.138   4.954  0.00  0.00     0.258 C 
HETATM    5  O   UNK N   1      30.435  16.034   6.365  0.00  0.00    -0.354 OA
ENDROOT
BRANCH   1   6
HETATM    6  C   UNK N   1      32.298  16.350   7.906  0.00  0.00     0.215 C 
BRANCH   6   7
HETATM    7  O   UNK N   1      32.165  14.959   7.926  0.00  0.00    -0.294 OA
BRANCH   7   8
HETATM    8  P   UNK N   1      33.484  14.363   8.900  0.00  0.00     0.401 P 
HETATM    9  O   UNK N   1      33.943  14.162   7.432  0.00  0.00    -0.631 OA
BRANCH   8  10
HETATM   10  O   UNK N   1      32.921  15.831   9.638  0.00  0.00    -0.307 OA
HETATM   11  H   UNK N   1      32.480  16.511   9.104  0.00  0.00     0.222 HD
ENDBRANCH   8  10
BRANCH   8  12
HETATM   12  O   UNK N   1      34.853  15.500   8.829  0.00  0.00    -0.195 OA
BRANCH  12  13
HETATM   13  P   UNK N   1      35.526  15.976  10.415  0.00  0.00     0.410 P 
HETATM   14  O   UNK N   1      35.362  17.510  10.602  0.00  0.00    -0.631 OA
BRANCH  13  15
HETATM   15  O   UNK N   1      37.214  15.625  10.641  0.00  0.00    -0.307 OA
HETATM   16  H   UNK N   1      37.975  15.025  10.667  0.00  0.00     0.222 HD
ENDBRANCH  13  15
BRANCH  13  17
HETATM   17  O   UNK N   1      34.585  15.276  11.700  0.00  0.00    -0.195 OA
BRANCH  17  18
HETATM   18  P   UNK N   1      35.583  14.054  12.438  0.00  0.00     0.399 P 
HETATM   19  O   UNK N   1      34.707  13.187  13.383  0.00  0.00    -0.631 OA
BRANCH  18  20
HETATM   20  O   UNK N   1      36.317  13.002  11.267  0.00  0.00    -0.307 OA
HETATM   21  H   UNK N   1      36.402  12.553  10.412  0.00  0.00     0.222 HD
ENDBRANCH  18  20
BRANCH  18  22
HETATM   22  O   UNK N   1      36.794  14.793  13.437  0.00  0.00    -0.307 OA
HETATM   23  H   UNK N   1      37.129  14.376  14.246  0.00  0.00     0.222 HD
ENDBRANCH  18  22
ENDBRANCH  17  18
ENDBRANCH  13  17
ENDBRANCH  12  13
ENDBRANCH   8  12
ENDBRANCH   7   8
ENDBRANCH   6   7
ENDBRANCH   1   6
BRANCH   2  24
HETATM   24  O   UNK N   1      33.118  16.135   5.251  0.00  0.00    -0.390 OA
HETATM   25  H   UNK N   1      33.402  15.216   5.135  0.00  0.00     0.210 HD
ENDBRANCH   2  24
BRANCH   3  26
HETATM   26  O   UNK N   1      31.673  17.279   3.242  0.00  0.00    -0.388 OA
HETATM   27  H   UNK N   1      32.558  17.501   2.911  0.00  0.00     0.210 HD
ENDBRANCH   3  26
BRANCH   4  28
HETATM   28  N   UNK N   1      28.943  16.259   4.559  0.00  0.00    -0.319 N 
HETATM   29  C   UNK N   1      28.385  15.574   3.390  0.00  0.00     0.253 A 
HETATM   30  N   UNK N   1      27.092  16.227   3.227  0.00  0.00    -0.362 N 
HETATM   31  C   UNK N   1      26.143  15.905   2.193  0.00  0.00     0.152 C 
HETATM   32  C   UNK N   1      26.945  17.235   4.190  0.00  0.00     0.128 A 
HETATM   33  C   UNK N   1      28.041  17.264   4.963  0.00  0.00     0.153 A 
HETATM   34  C   UNK N   1      25.909  18.136   4.414  0.00  0.00     0.186 A 
HETATM   35  N   UNK N   1      28.186  18.155   5.972  0.00  0.00    -0.174 N 
HETATM   36  C   UNK N   1      27.178  19.045   6.211  0.00  0.00     0.679 A 
HETATM   37  H   UNK N   1      29.002  18.161   6.523  0.00  0.00     0.186 HD
HETATM   38  N   UNK N   1      27.289  19.890   7.162  0.00  0.00    -0.234 N 
HETATM   39  N   UNK N   1      26.047  19.032   5.435  0.00  0.00    -0.168 N 
HETATM   40  H   UNK N   1      28.065  19.853   7.768  0.00  0.00     0.174 HD
ATOM     41  HN  UNK N   1      26.573  20.605   7.295  1.00  0.00     0.174 HD
ATOM     42  HN  UNK N   1      25.299  19.700   5.622  1.00  0.00     0.186 HD
BRANCH  34  43
HETATM   43  O   UNK N   1      24.802  18.134   3.655  0.00  0.00    -0.344 OA
HETATM   44  H   UNK N   1      24.806  18.554   2.817  0.00  0.00     0.219 HD
ENDBRANCH  34  43
ENDBRANCH   4  28
TORSDOF 15
ENDMDL
MODEL 8
REMARK VINA RESULT:      -6.7      7.241     10.395
REMARK  15 active torsions:
REMARK  status: ('A' for Active; 'I' for Inactive)
REMARK    1  A    between atoms: C_4  and  C_2 
REMARK    2  A    between atoms: O_29  and  C_2 
REMARK    3  A    between atoms: C_6  and  O_19 
REMARK    4  A    between atoms: C_7  and  O_20 
REMARK    5  A    between atoms: O_21  and  C_9 
REMARK    6  A    between atoms: C_10  and  N_18 
REMARK    7  A    between atoms: P_33  and  O_22 
REMARK    8  A    between atoms: P_33  and  O_23 
REMARK    9  A    between atoms: P_34  and  O_25 
REMARK   10  A    between atoms: P_35  and  O_27 
REMARK   11  A    between atoms: P_34  and  O_29 
REMARK   12  A    between atoms: P_33  and  O_31 
REMARK   13  A    between atoms: P_35  and  O_31 
REMARK   14  A    between atoms: P_34  and  O_32 
REMARK   15  A    between atoms: P_35  and  O_32 
ROOT
HETATM    1  C   UNK N   1      34.012  14.619   8.137  0.00  0.00     0.180 C 
HETATM    2  C   UNK N   1      33.379  14.830   9.501  0.00  0.00     0.182 C 
HETATM    3  C   UNK N   1      32.001  15.192   9.040  0.00  0.00     0.198 C 
HETATM    4  C   UNK N   1      32.340  16.147   7.891  0.00  0.00     0.258 C 
HETATM    5  O   UNK N   1      33.521  15.643   7.290  0.00  0.00    -0.354 OA
ENDROOT
BRANCH   1   6
HETATM    6  C   UNK N   1      35.535  14.640   8.230  0.00  0.00     0.215 C 
BRANCH   6   7
HETATM    7  O   UNK N   1      35.963  13.672   9.142  0.00  0.00    -0.294 OA
BRANCH   7   8
HETATM    8  P   UNK N   1      37.645  14.015   9.454  0.00  0.00     0.401 P 
HETATM    9  O   UNK N   1      36.861  14.881  10.475  0.00  0.00    -0.631 OA
BRANCH   8  10
HETATM   10  O   UNK N   1      37.508  12.303   9.196  0.00  0.00    -0.307 OA
HETATM   11  H   UNK N   1      36.875  11.778   9.711  0.00  0.00     0.222 HD
ENDBRANCH   8  10
BRANCH   8  12
HETATM   12  O   UNK N   1      38.148  13.250  10.982  0.00  0.00    -0.195 OA
BRANCH  12  13
HETATM   13  P   UNK N   1      36.877  12.305  11.810  0.00  0.00     0.410 P 
HETATM   14  O   UNK N   1      36.989  10.814  11.387  0.00  0.00    -0.631 OA
BRANCH  13  15
HETATM   15  O   UNK N   1      35.244  12.797  11.468  0.00  0.00    -0.307 OA
HETATM   16  H   UNK N   1      34.530  13.453  11.428  0.00  0.00     0.222 HD
ENDBRANCH  13  15
BRANCH  13  17
HETATM   17  O   UNK N   1      37.159  12.296  13.526  0.00  0.00    -0.195 OA
BRANCH  17  18
HETATM   18  P   UNK N   1      36.329  13.684  14.174  0.00  0.00     0.399 P 
HETATM   19  O   UNK N   1      36.942  14.042  15.555  0.00  0.00    -0.631 OA
BRANCH  18  20
HETATM   20  O   UNK N   1      36.466  15.076  13.146  0.00  0.00    -0.307 OA
HETATM   21  H   UNK N   1      36.669  15.555  12.328  0.00  0.00     0.222 HD
ENDBRANCH  18  20
BRANCH  18  22
HETATM   22  O   UNK N   1      34.661  13.302  14.465  0.00  0.00    -0.307 OA
HETATM   23  H   UNK N   1      34.006  13.975  14.704  0.00  0.00     0.222 HD
ENDBRANCH  18  22
ENDBRANCH  17  18
ENDBRANCH  13  17
ENDBRANCH  12  13
ENDBRANCH   8  12
ENDBRANCH   7   8
ENDBRANCH   6   7
ENDBRANCH   1   6
BRANCH   2  24
HETATM   24  O   UNK N   1      33.973  15.925  10.147  0.00  0.00    -0.390 OA
HETATM   25  H   UNK N   1      34.385  16.793  10.276  0.00  0.00     0.210 HD
ENDBRANCH   2  24
BRANCH   3  26
HETATM   26  O   UNK N   1      31.252  15.788  10.058  0.00  0.00    -0.388 OA
HETATM   27  H   UNK N   1      30.907  16.695  10.102  0.00  0.00     0.210 HD
ENDBRANCH   3  26
BRANCH   4  28
HETATM   28  N   UNK N   1      31.284  16.255   6.894  0.00  0.00    -0.319 N 
HETATM   29  C   UNK N   1      31.506  15.990   5.470  0.00  0.00     0.253 A 
HETATM   30  N   UNK N   1      30.293  16.517   4.855  0.00  0.00    -0.362 N 
HETATM   31  C   UNK N   1      30.022  16.496   3.443  0.00  0.00     0.152 C 
HETATM   32  C   UNK N   1      29.472  17.083   5.840  0.00  0.00     0.128 A 
HETATM   33  C   UNK N   1      30.063  16.944   7.036  0.00  0.00     0.153 A 
HETATM   34  C   UNK N   1      28.242  17.726   5.740  0.00  0.00     0.186 A 
HETATM   35  N   UNK N   1      29.502  17.416   8.175  0.00  0.00    -0.174 N 
HETATM   36  C   UNK N   1      28.293  18.046   8.098  0.00  0.00     0.679 A 
HETATM   37  H   UNK N   1      29.957  17.306   9.041  0.00  0.00     0.186 HD
HETATM   38  N   UNK N   1      27.741  18.493   9.160  0.00  0.00    -0.234 N 
HETATM   39  N   UNK N   1      27.669  18.198   6.886  0.00  0.00    -0.168 N 
HETATM   40  H   UNK N   1      28.149  18.319  10.039  0.00  0.00     0.174 HD
ATOM     41  HN  UNK N   1      26.876  19.031   9.098  1.00  0.00     0.174 HD
ATOM     42  HN  UNK N   1      26.766  18.670   6.839  1.00  0.00     0.186 HD
BRANCH  34  43
HETATM   43  O   UNK N   1      27.628  17.884   4.557  0.00  0.00    -0.344 OA
HETATM   44  H   UNK N   1      27.341  17.134   4.073  0.00  0.00     0.219 HD
ENDBRANCH  34  43
ENDBRANCH   4  28
TORSDOF 15
ENDMDL
MODEL 9
REMARK VINA RESULT:      -6.6     10.672     13.831
REMARK  15 active torsions:
REMARK  status: ('A' for Active; 'I' for Inactive)
REMARK    1  A    between atoms: C_4  and  C_2 
REMARK    2  A    between atoms: O_29  and  C_2 
REMARK    3  A    between atoms: C_6  and  O_19 
REMARK    4  A    between atoms: C_7  and  O_20 
REMARK    5  A    between atoms: O_21  and  C_9 
REMARK    6  A    between atoms: C_10  and  N_18 
REMARK    7  A    between atoms: P_33  and  O_22 
REMARK    8  A    between atoms: P_33  and  O_23 
REMARK    9  A    between atoms: P_34  and  O_25 
REMARK   10  A    between atoms: P_35  and  O_27 
REMARK   11  A    between atoms: P_34  and  O_29 
REMARK   12  A    between atoms: P_33  and  O_31 
REMARK   13  A    between atoms: P_35  and  O_31 
REMARK   14  A    between atoms: P_34  and  O_32 
REMARK   15  A    between atoms: P_35  and  O_32 
ROOT
HETATM    1  C   UNK N   1      27.252  17.462   3.980  0.00  0.00     0.180 C 
HETATM    2  C   UNK N   1      26.766  18.683   4.741  0.00  0.00     0.182 C 
HETATM    3  C   UNK N   1      27.989  18.915   5.573  0.00  0.00     0.198 C 
HETATM    4  C   UNK N   1      28.304  17.478   6.002  0.00  0.00     0.258 C 
HETATM    5  O   UNK N   1      27.952  16.649   4.906  0.00  0.00    -0.354 OA
ENDROOT
BRANCH   1   6
HETATM    6  C   UNK N   1      26.087  16.716   3.337  0.00  0.00     0.215 C 
BRANCH   6   7
HETATM    7  O   UNK N   1      25.687  15.664   4.164  0.00  0.00    -0.294 OA
BRANCH   7   8
HETATM    8  P   UNK N   1      24.300  14.942   3.390  0.00  0.00     0.401 P 
HETATM    9  O   UNK N   1      24.668  13.973   4.544  0.00  0.00    -0.631 OA
BRANCH   8  10
HETATM   10  O   UNK N   1      23.999  16.649   3.501  0.00  0.00    -0.307 OA
HETATM   11  H   UNK N   1      23.581  17.024   4.293  0.00  0.00     0.222 HD
ENDBRANCH   8  10
BRANCH   8  12
HETATM   12  O   UNK N   1      22.865  15.117   4.430  0.00  0.00    -0.195 OA
BRANCH  12  13
HETATM   13  P   UNK N   1      23.148  15.972   5.975  0.00  0.00     0.410 P 
HETATM   14  O   UNK N   1      22.828  17.481   5.792  0.00  0.00    -0.631 OA
BRANCH  13  15
HETATM   15  O   UNK N   1      24.773  15.879   6.587  0.00  0.00    -0.307 OA
HETATM   16  H   UNK N   1      25.635  15.445   6.687  0.00  0.00     0.222 HD
ENDBRANCH  13  15
BRANCH  13  17
HETATM   17  O   UNK N   1      22.016  15.427   7.178  0.00  0.00    -0.195 OA
BRANCH  17  18
HETATM   18  P   UNK N   1      20.566  16.366   6.957  0.00  0.00     0.399 P 
HETATM   19  O   UNK N   1      19.376  15.625   7.626  0.00  0.00    -0.631 OA
BRANCH  18  20
HETATM   20  O   UNK N   1      20.685  17.945   7.668  0.00  0.00    -0.307 OA
HETATM   21  H   UNK N   1      20.695  18.915   7.673  0.00  0.00     0.222 HD
ENDBRANCH  18  20
BRANCH  18  22
HETATM   22  O   UNK N   1      20.181  16.485   5.269  0.00  0.00    -0.307 OA
HETATM   23  H   UNK N   1      19.573  15.871   4.828  0.00  0.00     0.222 HD
ENDBRANCH  18  22
ENDBRANCH  17  18
ENDBRANCH  13  17
ENDBRANCH  12  13
ENDBRANCH   8  12
ENDBRANCH   7   8
ENDBRANCH   6   7
ENDBRANCH   1   6
BRANCH   2  24
HETATM   24  O   UNK N   1      25.683  18.341   5.565  0.00  0.00    -0.390 OA
HETATM   25  H   UNK N   1      24.887  18.438   6.110  0.00  0.00     0.210 HD
ENDBRANCH   2  24
BRANCH   3  26
HETATM   26  O   UNK N   1      27.735  19.774   6.645  0.00  0.00    -0.388 OA
HETATM   27  H   UNK N   1      27.515  20.719   6.621  0.00  0.00     0.210 HD
ENDBRANCH   3  26
BRANCH   4  28
HETATM   28  N   UNK N   1      29.702  17.268   6.352  0.00  0.00    -0.319 N 
HETATM   29  C   UNK N   1      30.205  17.393   7.723  0.00  0.00     0.253 A 
HETATM   30  N   UNK N   1      31.650  17.409   7.531  0.00  0.00    -0.362 N 
HETATM   31  C   UNK N   1      32.611  17.520   8.596  0.00  0.00     0.152 C 
HETATM   32  C   UNK N   1      31.946  17.350   6.161  0.00  0.00     0.128 A 
HETATM   33  C   UNK N   1      30.799  17.285   5.468  0.00  0.00     0.153 A 
HETATM   34  C   UNK N   1      33.166  17.367   5.493  0.00  0.00     0.186 A 
HETATM   35  N   UNK N   1      30.778  17.236   4.116  0.00  0.00    -0.174 N 
HETATM   36  C   UNK N   1      31.966  17.246   3.440  0.00  0.00     0.679 A 
HETATM   37  H   UNK N   1      29.924  17.193   3.628  0.00  0.00     0.186 HD
HETATM   38  N   UNK N   1      31.972  17.193   2.164  0.00  0.00    -0.234 N 
HETATM   39  N   UNK N   1      33.150  17.310   4.128  0.00  0.00    -0.168 N 
HETATM   40  H   UNK N   1      31.128  17.071   1.671  0.00  0.00     0.174 HD
ATOM     41  HN  UNK N   1      32.851  17.278   1.654  1.00  0.00     0.174 HD
ATOM     42  HN  UNK N   1      34.032  17.317   3.615  1.00  0.00     0.186 HD
BRANCH  34  43
HETATM   43  O   UNK N   1      34.330  17.436   6.158  0.00  0.00    -0.344 OA
HETATM   44  H   UNK N   1      35.134  17.238   5.719  0.00  0.00     0.219 HD
ENDBRANCH  34  43
ENDBRANCH   4  28
TORSDOF 15
ENDMDL
