REMARK  3 active torsions:
REMARK  status: ('A' for Active; 'I' for Inactive)
REMARK    1  A    between atoms: O_1  and  C_2 
REMARK    2  A    between atoms: C_2  and  C_3 
REMARK    3  A    between atoms: C_3  and  S_4 
ROOT
HETATM    1  C   UNK N   1       1.196  -1.115  -0.000  0.00  0.00     0.174 C 
ENDROOT
BRANCH   1   2
HETATM    2  O   UNK N   1       2.566  -1.366   0.000  0.00  0.00    -0.400 OA
HETATM    3  H   UNK N   1       2.892  -2.279   0.000  0.00  0.00     0.209 HD
ENDBRANCH   1   2
BRANCH   1   4
HETATM    4  C   UNK N   1       0.951   0.378  -0.000  0.00  0.00     0.096 C 
BRANCH   4   5
HETATM    5  S   UNK N   1      -0.837   0.674   0.000  0.00  0.00    -0.180 SA
HETATM    6  H   UNK N   1      -1.315   1.948   0.000  0.00  0.00     0.101 HD
ENDBRANCH   4   5
ENDBRANCH   1   4
TORSDOF 3
