MODEL 1
REMARK VINA RESULT:      -6.9      0.000      0.000
REMARK WARNING: 32 MAX_TORS EXCEEDED!!!
REMARK  34 active torsions:
REMARK  status: ('A' for Active; 'I' for Inactive)
REMARK    1  A    between atoms: C_2  and  C_1 
REMARK    2  A    between atoms: C_3  and  C_1 
REMARK    3  A    between atoms: C_4  and  C_2 
REMARK    4  A    between atoms: C_13  and  C_3 
REMARK    5  A    between atoms: C_25  and  C_4 
REMARK    6  A    between atoms: N_39  and  C_13 
REMARK    7  A    between atoms: C_18  and  C_14 
REMARK    8  A    between atoms: C_22  and  C_14 
REMARK    9  A    between atoms: C_19  and  C_15 
REMARK   10  A    between atoms: C_26  and  C_15 
REMARK   11  A    between atoms: C_23  and  C_16 
REMARK   12  A    between atoms: C_27  and  C_16 
REMARK   13  A    between atoms: C_24  and  C_17 
REMARK   14  A    between atoms: S_62  and  C_17 
REMARK   15  A    between atoms: C_31  and  C_20 
REMARK   16  A    between atoms: C_32  and  C_21 
REMARK   17  A    between atoms: C_29  and  C_22 
REMARK   18  A    between atoms: C_22  and  N_45 
REMARK   19  A    between atoms: C_30  and  C_23 
REMARK   20  A    between atoms: N_41  and  C_23 
REMARK   21  A    between atoms: C_28  and  C_24 
REMARK   22  A    between atoms: N_43  and  C_24 
REMARK   23  A    between atoms: O_47  and  C_25 
REMARK   24  A    between atoms: O_48  and  C_26 
REMARK   25  A    between atoms: O_50  and  C_27 
REMARK   26  A    between atoms: O_51  and  C_28 
REMARK   27  A    between atoms: O_52  and  C_29 
REMARK   28  A    between atoms: C_30  and  O_53 
REMARK   29  A    between atoms: P_60  and  C_31 
REMARK   30  A    between atoms: P_61  and  C_32 
REMARK   31  A    between atoms: P_60  and  O_54 
REMARK   32  A    between atoms: P_60  and  O_55 
REMARK   33  A    between atoms: P_61  and  O_57 
REMARK   34  A    between atoms: P_61  and  O_58 
ROOT
HETATM    1  C   UNK N   1      24.526  16.318   3.988  0.00  0.00     0.162 C 
ENDROOT
BRANCH   1   2
HETATM    2  C   UNK N   1      25.675  17.283   3.624  0.00  0.00     0.072 C 
BRANCH   2   3
HETATM    3  C   UNK N   1      26.781  17.284   4.627  0.00  0.00    -0.056 A 
HETATM    4  C   UNK N   1      26.914  16.201   5.490  0.00  0.00     0.008 A 
HETATM    5  C   UNK N   1      27.889  16.196   6.476  0.00  0.00     0.014 A 
HETATM    6  C   UNK N   1      28.776  17.271   6.602  0.00  0.00     0.025 A 
HETATM    7  C   UNK N   1      28.679  18.343   5.696  0.00  0.00     0.014 A 
HETATM    8  C   UNK N   1      27.680  18.352   4.712  0.00  0.00     0.008 A 
BRANCH   6   9
HETATM    9  C   UNK N   1      29.766  17.336   7.738  0.00  0.00     0.364 C 
HETATM   10  F   UNK N   1      30.424  16.127   7.867  0.00  0.00    -0.187 F 
HETATM   11  F   UNK N   1      30.691  18.319   7.440  0.00  0.00    -0.187 F 
BRANCH   9  12
HETATM   12  P   UNK N   1      28.982  17.792   9.384  0.00  0.00     0.315 P 
HETATM   13  O   UNK N   1      28.863  16.560  10.320  0.00  0.00    -0.649 OA
BRANCH  12  14
HETATM   14  O   UNK N   1      27.355  18.389   9.260  0.00  0.00    -0.325 OA
HETATM   15  H   UNK N   1      26.546  17.945   8.963  0.00  0.00     0.220 HD
ENDBRANCH  12  14
BRANCH  12  16
HETATM   16  O   UNK N   1      29.863  18.961  10.315  0.00  0.00    -0.325 OA
HETATM   17  H   UNK N   1      30.599  19.501   9.989  0.00  0.00     0.220 HD
ENDBRANCH  12  16
ENDBRANCH   9  12
ENDBRANCH   6   9
ENDBRANCH   2   3
ENDBRANCH   1   2
BRANCH   1  18
HETATM   18  C   UNK N   1      23.342  17.077   4.540  0.00  0.00     0.135 C 
HETATM   19  N   UNK N   1      22.745  16.671   5.616  0.00  0.00    -0.373 N 
ATOM     20  HN  UNK N   1      23.023  15.782   6.031  1.00  0.00     0.161 HD
BRANCH  19  21
HETATM   21  C   UNK N   1      21.702  17.440   6.244  0.00  0.00     0.121 C 
BRANCH  21  22
HETATM   22  C   UNK N   1      20.373  16.730   6.032  0.00  0.00     0.020 C 
BRANCH  22  23
HETATM   23  C   UNK N   1      20.327  15.457   6.862  0.00  0.00     0.002 C 
BRANCH  23  24
HETATM   24  C   UNK N   1      20.256  15.782   8.344  0.00  0.00     0.008 C 
BRANCH  24  25
HETATM   25  C   UNK N   1      21.370  15.067   9.097  0.00  0.00     0.083 C 
BRANCH  25  26
HETATM   26  C   UNK N   1      20.816  13.886   9.838  0.00  0.00     0.111 C 
HETATM   27  N   UNK N   1      21.549  12.923  10.308  0.00  0.00    -0.362 N 
ATOM     28  HN  UNK N   1      21.032  12.165  10.753  1.00  0.00     0.162 HD
BRANCH  27  29
HETATM   29  C   UNK N   1      23.005  12.759  10.297  0.00  0.00     0.166 C 
BRANCH  29  30
HETATM   30  C   UNK N   1      23.567  12.026   9.078  0.00  0.00     0.104 C 
BRANCH  30  31
HETATM   31  S   UNK N   1      24.690  13.096   8.127  0.00  0.00    -0.180 SA
HETATM   32  H   UNK N   1      24.405  14.255   7.475  0.00  0.00     0.101 HD
ENDBRANCH  30  31
ENDBRANCH  29  30
BRANCH  29  33
HETATM   33  C   UNK N   1      23.508  12.106  11.559  0.00  0.00     0.133 C 
HETATM   34  N   UNK N   1      22.702  11.525  12.369  0.00  0.00    -0.382 N 
HETATM   35  H   UNK N   1      22.904  11.500  13.332  0.00  0.00     0.158 HD
ATOM     36  HN  UNK N   1      21.852  11.089  12.014  1.00  0.00     0.158 HD
BRANCH  33  37
HETATM   37  O   UNK N   1      24.823  12.150  11.853  0.00  0.00    -0.348 OA
HETATM   38  H   UNK N   1      25.481  11.568  11.528  0.00  0.00     0.219 HD
ENDBRANCH  33  37
ENDBRANCH  29  33
ENDBRANCH  27  29
BRANCH  26  39
HETATM   39  O   UNK N   1      19.482  13.817  10.005  0.00  0.00    -0.350 OA
HETATM   40  H   UNK N   1      18.928  13.380  10.621  0.00  0.00     0.219 HD
ENDBRANCH  26  39
ENDBRANCH  25  26
ENDBRANCH  24  25
ENDBRANCH  23  24
ENDBRANCH  22  23
ENDBRANCH  21  22
ENDBRANCH  19  21
BRANCH  18  41
HETATM   41  O   UNK N   1      22.979  18.240   3.963  0.00  0.00    -0.348 OA
HETATM   42  H   UNK N   1      23.286  19.076   3.673  0.00  0.00     0.219 HD
ENDBRANCH  18  41
ENDBRANCH   1  18
BRANCH   1  43
HETATM   43  N   UNK N   1      24.041  15.729   2.756  0.00  0.00    -0.360 N 
HETATM   44  C   UNK N   1      24.061  14.543   2.276  0.00  0.00     0.136 C 
ATOM     45  HN  UNK N   1      23.587  16.403   2.140  1.00  0.00     0.162 HD
BRANCH  44  46
HETATM   46  C   UNK N   1      24.642  13.277   2.901  0.00  0.00     0.167 C 
BRANCH  46  47
HETATM   47  C   UNK N   1      23.944  11.904   2.863  0.00  0.00     0.143 C 
BRANCH  47  48
HETATM   48  C   UNK N   1      22.575  11.728   3.442  0.00  0.00     0.141 C 
HETATM   49  O   UNK N   1      22.377  11.899   4.632  0.00  0.00    -0.650 OA
BRANCH  48  50
HETATM   50  O   UNK N   1      21.586  11.257   2.660  0.00  0.00    -0.776 OA
HETATM   51  H   UNK N   1      21.644  10.423   2.236  0.00  0.00     0.167 HD
ENDBRANCH  48  50
ENDBRANCH  47  48
ENDBRANCH  46  47
BRANCH  46  52
HETATM   52  N   UNK N   1      26.064  13.232   2.650  0.00  0.00    -0.362 N 
HETATM   53  C   UNK N   1      27.002  13.026   3.528  0.00  0.00     0.116 C 
ATOM     54  HN  UNK N   1      26.363  13.376   1.686  1.00  0.00     0.162 HD
BRANCH  53  55
HETATM   55  C   UNK N   1      28.429  12.869   3.065  0.00  0.00     0.122 C 
BRANCH  55  56
HETATM   56  C   UNK N   1      29.252  13.994   3.583  0.00  0.00    -0.051 A 
HETATM   57  C   UNK N   1      29.331  15.177   2.855  0.00  0.00     0.008 A 
HETATM   58  C   UNK N   1      30.287  16.132   3.193  0.00  0.00     0.014 A 
HETATM   59  C   UNK N   1      31.173  15.912   4.260  0.00  0.00     0.025 A 
HETATM   60  C   UNK N   1      31.035  14.750   5.033  0.00  0.00     0.014 A 
HETATM   61  C   UNK N   1      30.079  13.796   4.697  0.00  0.00     0.008 A 
BRANCH  59  62
HETATM   62  C   UNK N   1      32.368  16.820   4.459  0.00  0.00     0.364 C 
HETATM   63  F   UNK N   1      33.070  16.860   3.254  0.00  0.00    -0.187 F 
HETATM   64  F   UNK N   1      31.848  18.090   4.703  0.00  0.00    -0.187 F 
BRANCH  62  65
HETATM   65  P   UNK N   1      33.526  16.221   5.873  0.00  0.00     0.315 P 
HETATM   66  O   UNK N   1      35.059  16.032   6.019  0.00  0.00    -0.649 OA
BRANCH  65  67
HETATM   67  O   UNK N   1      33.995  17.893   5.860  0.00  0.00    -0.325 OA
HETATM   68  H   UNK N   1      34.475  18.678   6.165  0.00  0.00     0.220 HD
ENDBRANCH  65  67
BRANCH  65  69
HETATM   69  O   UNK N   1      34.130  15.574   4.372  0.00  0.00    -0.325 OA
HETATM   70  H   UNK N   1      34.362  14.654   4.169  0.00  0.00     0.220 HD
ENDBRANCH  65  69
ENDBRANCH  62  65
ENDBRANCH  59  62
ENDBRANCH  55  56
ENDBRANCH  53  55
BRANCH  53  71
HETATM   71  O   UNK N   1      26.707  12.895   4.835  0.00  0.00    -0.349 OA
HETATM   72  H   UNK N   1      26.580  12.183   5.430  0.00  0.00     0.219 HD
ENDBRANCH  53  71
ENDBRANCH  46  52
ENDBRANCH  44  46
BRANCH  44  73
HETATM   73  O   UNK N   1      23.549  14.374   1.035  0.00  0.00    -0.348 OA
HETATM   74  H   UNK N   1      23.378  15.038   0.396  0.00  0.00     0.219 HD
ENDBRANCH  44  73
ENDBRANCH   1  43
TORSDOF 34
ENDMDL
MODEL 2
REMARK VINA RESULT:      -6.7      4.874      9.784
REMARK WARNING: 32 MAX_TORS EXCEEDED!!!
REMARK  34 active torsions:
REMARK  status: ('A' for Active; 'I' for Inactive)
REMARK    1  A    between atoms: C_2  and  C_1 
REMARK    2  A    between atoms: C_3  and  C_1 
REMARK    3  A    between atoms: C_4  and  C_2 
REMARK    4  A    between atoms: C_13  and  C_3 
REMARK    5  A    between atoms: C_25  and  C_4 
REMARK    6  A    between atoms: N_39  and  C_13 
REMARK    7  A    between atoms: C_18  and  C_14 
REMARK    8  A    between atoms: C_22  and  C_14 
REMARK    9  A    between atoms: C_19  and  C_15 
REMARK   10  A    between atoms: C_26  and  C_15 
REMARK   11  A    between atoms: C_23  and  C_16 
REMARK   12  A    between atoms: C_27  and  C_16 
REMARK   13  A    between atoms: C_24  and  C_17 
REMARK   14  A    between atoms: S_62  and  C_17 
REMARK   15  A    between atoms: C_31  and  C_20 
REMARK   16  A    between atoms: C_32  and  C_21 
REMARK   17  A    between atoms: C_29  and  C_22 
REMARK   18  A    between atoms: C_22  and  N_45 
REMARK   19  A    between atoms: C_30  and  C_23 
REMARK   20  A    between atoms: N_41  and  C_23 
REMARK   21  A    between atoms: C_28  and  C_24 
REMARK   22  A    between atoms: N_43  and  C_24 
REMARK   23  A    between atoms: O_47  and  C_25 
REMARK   24  A    between atoms: O_48  and  C_26 
REMARK   25  A    between atoms: O_50  and  C_27 
REMARK   26  A    between atoms: O_51  and  C_28 
REMARK   27  A    between atoms: O_52  and  C_29 
REMARK   28  A    between atoms: C_30  and  O_53 
REMARK   29  A    between atoms: P_60  and  C_31 
REMARK   30  A    between atoms: P_61  and  C_32 
REMARK   31  A    between atoms: P_60  and  O_54 
REMARK   32  A    between atoms: P_60  and  O_55 
REMARK   33  A    between atoms: P_61  and  O_57 
REMARK   34  A    between atoms: P_61  and  O_58 
ROOT
HETATM    1  C   UNK N   1      25.278  13.448   5.828  0.00  0.00     0.162 C 
ENDROOT
BRANCH   1   2
HETATM    2  C   UNK N   1      24.619  14.762   5.356  0.00  0.00     0.072 C 
BRANCH   2   3
HETATM    3  C   UNK N   1      23.598  14.555   4.287  0.00  0.00    -0.056 A 
HETATM    4  C   UNK N   1      22.674  13.524   4.423  0.00  0.00     0.008 A 
HETATM    5  C   UNK N   1      21.752  13.262   3.421  0.00  0.00     0.014 A 
HETATM    6  C   UNK N   1      21.717  14.049   2.265  0.00  0.00     0.025 A 
HETATM    7  C   UNK N   1      22.614  15.127   2.148  0.00  0.00     0.014 A 
HETATM    8  C   UNK N   1      23.556  15.377   3.156  0.00  0.00     0.008 A 
BRANCH   6   9
HETATM    9  C   UNK N   1      20.800  13.708   1.116  0.00  0.00     0.364 C 
HETATM   10  F   UNK N   1      20.267  14.862   0.573  0.00  0.00    -0.187 F 
HETATM   11  F   UNK N   1      21.552  13.065   0.151  0.00  0.00    -0.187 F 
BRANCH   9  12
HETATM   12  P   UNK N   1      19.403  12.547   1.598  0.00  0.00     0.315 P 
HETATM   13  O   UNK N   1      18.440  12.290   0.409  0.00  0.00    -0.649 OA
BRANCH  12  14
HETATM   14  O   UNK N   1      18.371  13.152   2.857  0.00  0.00    -0.325 OA
HETATM   15  H   UNK N   1      18.101  12.746   3.695  0.00  0.00     0.220 HD
ENDBRANCH  12  14
BRANCH  12  16
HETATM   16  O   UNK N   1      19.907  10.964   2.098  0.00  0.00    -0.325 OA
HETATM   17  H   UNK N   1      20.348  10.309   1.534  0.00  0.00     0.220 HD
ENDBRANCH  12  16
ENDBRANCH   9  12
ENDBRANCH   6   9
ENDBRANCH   2   3
ENDBRANCH   1   2
BRANCH   1  18
HETATM   18  C   UNK N   1      26.654  13.291   5.224  0.00  0.00     0.135 C 
HETATM   19  N   UNK N   1      27.442  14.313   5.108  0.00  0.00    -0.373 N 
ATOM     20  HN  UNK N   1      27.087  15.240   5.340  1.00  0.00     0.161 HD
BRANCH  19  21
HETATM   21  C   UNK N   1      28.805  14.178   4.662  0.00  0.00     0.121 C 
BRANCH  21  22
HETATM   22  C   UNK N   1      29.717  14.897   5.644  0.00  0.00     0.020 C 
BRANCH  22  23
HETATM   23  C   UNK N   1      30.321  16.126   4.985  0.00  0.00     0.002 C 
BRANCH  23  24
HETATM   24  C   UNK N   1      29.282  17.225   4.838  0.00  0.00     0.008 C 
BRANCH  24  25
HETATM   25  C   UNK N   1      28.868  17.748   6.207  0.00  0.00     0.083 C 
BRANCH  25  26
HETATM   26  C   UNK N   1      27.406  17.497   6.434  0.00  0.00     0.111 C 
HETATM   27  N   UNK N   1      26.462  18.189   5.874  0.00  0.00    -0.362 N 
ATOM     28  HN  UNK N   1      25.515  17.933   6.154  1.00  0.00     0.162 HD
BRANCH  27  29
HETATM   29  C   UNK N   1      26.547  19.282   4.903  0.00  0.00     0.166 C 
BRANCH  29  30
HETATM   30  C   UNK N   1      25.925  20.604   5.354  0.00  0.00     0.104 C 
BRANCH  30  31
HETATM   31  S   UNK N   1      26.707  21.213   6.880  0.00  0.00    -0.180 SA
HETATM   32  H   UNK N   1      27.966  20.977   7.339  0.00  0.00     0.101 HD
ENDBRANCH  30  31
ENDBRANCH  29  30
BRANCH  29  33
HETATM   33  C   UNK N   1      25.985  18.888   3.561  0.00  0.00     0.133 C 
HETATM   34  N   UNK N   1      26.051  17.678   3.147  0.00  0.00    -0.382 N 
HETATM   35  H   UNK N   1      26.113  17.489   2.182  0.00  0.00     0.158 HD
ATOM     36  HN  UNK N   1      26.040  16.909   3.817  1.00  0.00     0.158 HD
BRANCH  33  37
HETATM   37  O   UNK N   1      25.421  19.826   2.774  0.00  0.00    -0.348 OA
HETATM   38  H   UNK N   1      25.671  20.727   2.723  0.00  0.00     0.219 HD
ENDBRANCH  33  37
ENDBRANCH  29  33
ENDBRANCH  27  29
BRANCH  26  39
HETATM   39  O   UNK N   1      27.063  16.510   7.282  0.00  0.00    -0.350 OA
HETATM   40  H   UNK N   1      26.697  15.655   7.166  0.00  0.00     0.219 HD
ENDBRANCH  26  39
ENDBRANCH  25  26
ENDBRANCH  24  25
ENDBRANCH  23  24
ENDBRANCH  22  23
ENDBRANCH  21  22
ENDBRANCH  19  21
BRANCH  18  41
HETATM   41  O   UNK N   1      27.096  12.057   4.905  0.00  0.00    -0.348 OA
HETATM   42  H   UNK N   1      27.040  11.367   4.273  0.00  0.00     0.219 HD
ENDBRANCH  18  41
ENDBRANCH   1  18
BRANCH   1  43
HETATM   43  N   UNK N   1      25.516  13.564   7.254  0.00  0.00    -0.360 N 
HETATM   44  C   UNK N   1      24.790  13.366   8.288  0.00  0.00     0.136 C 
ATOM     45  HN  UNK N   1      26.463  13.869   7.479  1.00  0.00     0.162 HD
BRANCH  44  46
HETATM   46  C   UNK N   1      23.337  12.903   8.353  0.00  0.00     0.167 C 
BRANCH  46  47
HETATM   47  C   UNK N   1      22.806  11.888   9.383  0.00  0.00     0.143 C 
BRANCH  47  48
HETATM   48  C   UNK N   1      22.386  12.334  10.748  0.00  0.00     0.141 C 
HETATM   49  O   UNK N   1      21.225  12.623  10.978  0.00  0.00    -0.650 OA
BRANCH  48  50
HETATM   50  O   UNK N   1      23.326  12.536  11.691  0.00  0.00    -0.776 OA
HETATM   51  H   UNK N   1      23.963  13.219  11.617  0.00  0.00     0.167 HD
ENDBRANCH  48  50
ENDBRANCH  47  48
ENDBRANCH  46  47
BRANCH  46  52
HETATM   52  N   UNK N   1      22.468  14.034   8.124  0.00  0.00    -0.362 N 
HETATM   53  C   UNK N   1      21.254  14.000   7.655  0.00  0.00     0.116 C 
ATOM     54  HN  UNK N   1      22.844  14.954   8.355  1.00  0.00     0.162 HD
BRANCH  53  55
HETATM   55  C   UNK N   1      20.439  15.268   7.617  0.00  0.00     0.122 C 
BRANCH  55  56
HETATM   56  C   UNK N   1      20.547  15.894   6.272  0.00  0.00    -0.051 A 
HETATM   57  C   UNK N   1      21.464  16.919   6.065  0.00  0.00     0.008 A 
HETATM   58  C   UNK N   1      21.399  17.677   4.899  0.00  0.00     0.014 A 
HETATM   59  C   UNK N   1      20.416  17.418   3.930  0.00  0.00     0.025 A 
HETATM   60  C   UNK N   1      19.544  16.335   4.114  0.00  0.00     0.014 A 
HETATM   61  C   UNK N   1      19.609  15.576   5.280  0.00  0.00     0.008 A 
BRANCH  59  62
HETATM   62  C   UNK N   1      20.182  18.397   2.799  0.00  0.00     0.364 C 
HETATM   63  F   UNK N   1      20.278  17.686   1.602  0.00  0.00    -0.187 F 
HETATM   64  F   UNK N   1      18.867  18.839   2.939  0.00  0.00    -0.187 F 
BRANCH  62  65
HETATM   65  P   UNK N   1      21.444  19.848   2.803  0.00  0.00     0.315 P 
HETATM   66  O   UNK N   1      21.456  21.282   2.209  0.00  0.00    -0.649 OA
BRANCH  65  67
HETATM   67  O   UNK N   1      20.240  20.564   3.829  0.00  0.00    -0.325 OA
HETATM   68  H   UNK N   1      19.761  21.292   4.254  0.00  0.00     0.220 HD
ENDBRANCH  65  67
BRANCH  65  69
HETATM   69  O   UNK N   1      20.706  19.781   1.225  0.00  0.00    -0.325 OA
HETATM   70  H   UNK N   1      20.621  19.015   0.637  0.00  0.00     0.220 HD
ENDBRANCH  65  69
ENDBRANCH  62  65
ENDBRANCH  59  62
ENDBRANCH  55  56
ENDBRANCH  53  55
BRANCH  53  71
HETATM   71  O   UNK N   1      20.700  12.839   7.259  0.00  0.00    -0.349 OA
HETATM   72  H   UNK N   1      20.018  12.276   7.568  0.00  0.00     0.219 HD
ENDBRANCH  53  71
ENDBRANCH  46  52
ENDBRANCH  44  46
BRANCH  44  73
HETATM   73  O   UNK N   1      25.348  13.640   9.490  0.00  0.00    -0.348 OA
HETATM   74  H   UNK N   1      25.183  14.383  10.037  0.00  0.00     0.219 HD
ENDBRANCH  44  73
ENDBRANCH   1  43
TORSDOF 34
ENDMDL
MODEL 3
REMARK VINA RESULT:      -6.7      5.415     10.051
REMARK WARNING: 32 MAX_TORS EXCEEDED!!!
REMARK  34 active torsions:
REMARK  status: ('A' for Active; 'I' for Inactive)
REMARK    1  A    between atoms: C_2  and  C_1 
REMARK    2  A    between atoms: C_3  and  C_1 
REMARK    3  A    between atoms: C_4  and  C_2 
REMARK    4  A    between atoms: C_13  and  C_3 
REMARK    5  A    between atoms: C_25  and  C_4 
REMARK    6  A    between atoms: N_39  and  C_13 
REMARK    7  A    between atoms: C_18  and  C_14 
REMARK    8  A    between atoms: C_22  and  C_14 
REMARK    9  A    between atoms: C_19  and  C_15 
REMARK   10  A    between atoms: C_26  and  C_15 
REMARK   11  A    between atoms: C_23  and  C_16 
REMARK   12  A    between atoms: C_27  and  C_16 
REMARK   13  A    between atoms: C_24  and  C_17 
REMARK   14  A    between atoms: S_62  and  C_17 
REMARK   15  A    between atoms: C_31  and  C_20 
REMARK   16  A    between atoms: C_32  and  C_21 
REMARK   17  A    between atoms: C_29  and  C_22 
REMARK   18  A    between atoms: C_22  and  N_45 
REMARK   19  A    between atoms: C_30  and  C_23 
REMARK   20  A    between atoms: N_41  and  C_23 
REMARK   21  A    between atoms: C_28  and  C_24 
REMARK   22  A    between atoms: N_43  and  C_24 
REMARK   23  A    between atoms: O_47  and  C_25 
REMARK   24  A    between atoms: O_48  and  C_26 
REMARK   25  A    between atoms: O_50  and  C_27 
REMARK   26  A    between atoms: O_51  and  C_28 
REMARK   27  A    between atoms: O_52  and  C_29 
REMARK   28  A    between atoms: C_30  and  O_53 
REMARK   29  A    between atoms: P_60  and  C_31 
REMARK   30  A    between atoms: P_61  and  C_32 
REMARK   31  A    between atoms: P_60  and  O_54 
REMARK   32  A    between atoms: P_60  and  O_55 
REMARK   33  A    between atoms: P_61  and  O_57 
REMARK   34  A    between atoms: P_61  and  O_58 
ROOT
HETATM    1  C   UNK N   1      32.020  15.206   4.861  0.00  0.00     0.162 C 
ENDROOT
BRANCH   1   2
HETATM    2  C   UNK N   1      31.225  15.563   3.587  0.00  0.00     0.072 C 
BRANCH   2   3
HETATM    3  C   UNK N   1      29.761  15.297   3.715  0.00  0.00    -0.056 A 
HETATM    4  C   UNK N   1      28.882  15.909   2.829  0.00  0.00     0.008 A 
HETATM    5  C   UNK N   1      27.512  15.736   2.957  0.00  0.00     0.014 A 
HETATM    6  C   UNK N   1      26.991  14.918   3.965  0.00  0.00     0.025 A 
HETATM    7  C   UNK N   1      27.881  14.254   4.830  0.00  0.00     0.014 A 
HETATM    8  C   UNK N   1      29.264  14.446   4.708  0.00  0.00     0.008 A 
BRANCH   6   9
HETATM    9  C   UNK N   1      25.504  14.810   4.192  0.00  0.00     0.364 C 
HETATM   10  F   UNK N   1      24.819  15.418   3.155  0.00  0.00    -0.187 F 
HETATM   11  F   UNK N   1      25.175  13.468   4.220  0.00  0.00    -0.187 F 
BRANCH   9  12
HETATM   12  P   UNK N   1      24.943  15.553   5.824  0.00  0.00     0.315 P 
HETATM   13  O   UNK N   1      24.294  14.485   6.744  0.00  0.00    -0.649 OA
BRANCH  12  14
HETATM   14  O   UNK N   1      23.722  16.779   5.671  0.00  0.00    -0.325 OA
HETATM   15  H   UNK N   1      22.846  16.742   5.255  0.00  0.00     0.220 HD
ENDBRANCH  12  14
BRANCH  12  16
HETATM   16  O   UNK N   1      26.210  16.243   6.788  0.00  0.00    -0.325 OA
HETATM   17  H   UNK N   1      26.182  16.367   7.749  0.00  0.00     0.220 HD
ENDBRANCH  12  16
ENDBRANCH   9  12
ENDBRANCH   6   9
ENDBRANCH   2   3
ENDBRANCH   1   2
BRANCH   1  18
HETATM   18  C   UNK N   1      32.933  14.028   4.612  0.00  0.00     0.135 C 
HETATM   19  N   UNK N   1      32.954  13.027   5.433  0.00  0.00    -0.373 N 
ATOM     20  HN  UNK N   1      32.419  13.086   6.300  1.00  0.00     0.161 HD
BRANCH  19  21
HETATM   21  C   UNK N   1      33.710  11.831   5.159  0.00  0.00     0.121 C 
BRANCH  21  22
HETATM   22  C   UNK N   1      34.482  11.441   6.410  0.00  0.00     0.020 C 
BRANCH  22  23
HETATM   23  C   UNK N   1      35.608  12.433   6.654  0.00  0.00     0.002 C 
BRANCH  23  24
HETATM   24  C   UNK N   1      35.928  12.532   8.136  0.00  0.00     0.008 C 
BRANCH  24  25
HETATM   25  C   UNK N   1      34.913  11.742   8.951  0.00  0.00     0.083 C 
BRANCH  25  26
HETATM   26  C   UNK N   1      34.151  12.662   9.858  0.00  0.00     0.111 C 
HETATM   27  N   UNK N   1      34.536  12.970  11.059  0.00  0.00    -0.362 N 
ATOM     28  HN  UNK N   1      33.897  13.574  11.575  1.00  0.00     0.162 HD
BRANCH  27  29
HETATM   29  C   UNK N   1      35.748  12.582  11.785  0.00  0.00     0.166 C 
BRANCH  29  30
HETATM   30  C   UNK N   1      35.536  12.218  13.255  0.00  0.00     0.104 C 
BRANCH  30  31
HETATM   31  S   UNK N   1      36.605  10.832  13.752  0.00  0.00    -0.180 SA
HETATM   32  H   UNK N   1      36.317   9.502  13.761  0.00  0.00     0.101 HD
ENDBRANCH  30  31
ENDBRANCH  29  30
BRANCH  29  33
HETATM   33  C   UNK N   1      36.831  13.624  11.670  0.00  0.00     0.133 C 
HETATM   34  N   UNK N   1      38.001  13.316  11.250  0.00  0.00    -0.382 N 
HETATM   35  H   UNK N   1      38.787  13.814  11.571  0.00  0.00     0.158 HD
ATOM     36  HN  UNK N   1      38.118  12.554  10.582  1.00  0.00     0.158 HD
BRANCH  33  37
HETATM   37  O   UNK N   1      36.573  14.896  12.033  0.00  0.00    -0.348 OA
HETATM   38  H   UNK N   1      36.056  15.167  12.766  0.00  0.00     0.219 HD
ENDBRANCH  33  37
ENDBRANCH  29  33
ENDBRANCH  27  29
BRANCH  26  39
HETATM   39  O   UNK N   1      32.995  13.179   9.402  0.00  0.00    -0.350 OA
HETATM   40  H   UNK N   1      32.765  13.989   8.991  0.00  0.00     0.219 HD
ENDBRANCH  26  39
ENDBRANCH  25  26
ENDBRANCH  24  25
ENDBRANCH  23  24
ENDBRANCH  22  23
ENDBRANCH  21  22
ENDBRANCH  19  21
BRANCH  18  41
HETATM   41  O   UNK N   1      33.648  13.980   3.469  0.00  0.00    -0.348 OA
HETATM   42  H   UNK N   1      34.428  13.646   3.071  0.00  0.00     0.219 HD
ENDBRANCH  18  41
ENDBRANCH   1  18
BRANCH   1  43
HETATM   43  N   UNK N   1      32.917  16.310   5.143  0.00  0.00    -0.360 N 
HETATM   44  C   UNK N   1      33.594  16.656   6.172  0.00  0.00     0.136 C 
ATOM     45  HN  UNK N   1      33.032  16.946   4.354  1.00  0.00     0.162 HD
BRANCH  44  46
HETATM   46  C   UNK N   1      33.683  15.961   7.527  0.00  0.00     0.167 C 
BRANCH  46  47
HETATM   47  C   UNK N   1      34.926  16.010   8.436  0.00  0.00     0.143 C 
BRANCH  47  48
HETATM   48  C   UNK N   1      34.818  16.489   9.850  0.00  0.00     0.141 C 
HETATM   49  O   UNK N   1      35.533  17.387  10.258  0.00  0.00    -0.650 OA
BRANCH  48  50
HETATM   50  O   UNK N   1      34.011  15.836  10.706  0.00  0.00    -0.776 OA
HETATM   51  H   UNK N   1      33.152  15.553  10.458  0.00  0.00     0.167 HD
ENDBRANCH  48  50
ENDBRANCH  47  48
ENDBRANCH  46  47
BRANCH  46  52
HETATM   52  N   UNK N   1      32.426  16.112   8.223  0.00  0.00    -0.362 N 
HETATM   53  C   UNK N   1      31.836  17.231   8.530  0.00  0.00     0.116 C 
ATOM     54  HN  UNK N   1      31.952  15.254   8.502  1.00  0.00     0.162 HD
BRANCH  53  55
HETATM   55  C   UNK N   1      30.454  17.200   9.131  0.00  0.00     0.122 C 
BRANCH  55  56
HETATM   56  C   UNK N   1      29.469  17.734   8.154  0.00  0.00    -0.051 A 
HETATM   57  C   UNK N   1      29.526  17.319   6.827  0.00  0.00     0.008 A 
HETATM   58  C   UNK N   1      28.783  17.995   5.861  0.00  0.00     0.014 A 
HETATM   59  C   UNK N   1      27.979  19.091   6.213  0.00  0.00     0.025 A 
HETATM   60  C   UNK N   1      27.870  19.453   7.564  0.00  0.00     0.014 A 
HETATM   61  C   UNK N   1      28.611  18.777   8.530  0.00  0.00     0.008 A 
BRANCH  59  62
HETATM   62  C   UNK N   1      27.384  19.977   5.139  0.00  0.00     0.364 C 
HETATM   63  F   UNK N   1      26.692  21.005   5.779  0.00  0.00    -0.187 F 
HETATM   64  F   UNK N   1      28.467  20.536   4.462  0.00  0.00    -0.187 F 
BRANCH  62  65
HETATM   65  P   UNK N   1      26.201  19.023   3.962  0.00  0.00     0.315 P 
HETATM   66  O   UNK N   1      24.666  19.009   3.738  0.00  0.00    -0.649 OA
BRANCH  65  67
HETATM   67  O   UNK N   1      26.028  20.601   3.260  0.00  0.00    -0.325 OA
HETATM   68  H   UNK N   1      25.652  21.265   2.662  0.00  0.00     0.220 HD
ENDBRANCH  65  67
BRANCH  65  69
HETATM   69  O   UNK N   1      25.431  19.138   5.521  0.00  0.00    -0.325 OA
HETATM   70  H   UNK N   1      25.836  19.035   6.396  0.00  0.00     0.220 HD
ENDBRANCH  65  69
ENDBRANCH  62  65
ENDBRANCH  59  62
ENDBRANCH  55  56
ENDBRANCH  53  55
BRANCH  53  71
HETATM   71  O   UNK N   1      32.421  18.415   8.263  0.00  0.00    -0.349 OA
HETATM   72  H   UNK N   1      32.302  19.100   7.635  0.00  0.00     0.219 HD
ENDBRANCH  53  71
ENDBRANCH  46  52
ENDBRANCH  44  46
BRANCH  44  73
HETATM   73  O   UNK N   1      34.292  17.812   6.085  0.00  0.00    -0.348 OA
HETATM   74  H   UNK N   1      34.707  18.279   6.784  0.00  0.00     0.219 HD
ENDBRANCH  44  73
ENDBRANCH   1  43
TORSDOF 34
ENDMDL
MODEL 4
REMARK VINA RESULT:      -6.5      4.789      9.809
REMARK WARNING: 32 MAX_TORS EXCEEDED!!!
REMARK  34 active torsions:
REMARK  status: ('A' for Active; 'I' for Inactive)
REMARK    1  A    between atoms: C_2  and  C_1 
REMARK    2  A    between atoms: C_3  and  C_1 
REMARK    3  A    between atoms: C_4  and  C_2 
REMARK    4  A    between atoms: C_13  and  C_3 
REMARK    5  A    between atoms: C_25  and  C_4 
REMARK    6  A    between atoms: N_39  and  C_13 
REMARK    7  A    between atoms: C_18  and  C_14 
REMARK    8  A    between atoms: C_22  and  C_14 
REMARK    9  A    between atoms: C_19  and  C_15 
REMARK   10  A    between atoms: C_26  and  C_15 
REMARK   11  A    between atoms: C_23  and  C_16 
REMARK   12  A    between atoms: C_27  and  C_16 
REMARK   13  A    between atoms: C_24  and  C_17 
REMARK   14  A    between atoms: S_62  and  C_17 
REMARK   15  A    between atoms: C_31  and  C_20 
REMARK   16  A    between atoms: C_32  and  C_21 
REMARK   17  A    between atoms: C_29  and  C_22 
REMARK   18  A    between atoms: C_22  and  N_45 
REMARK   19  A    between atoms: C_30  and  C_23 
REMARK   20  A    between atoms: N_41  and  C_23 
REMARK   21  A    between atoms: C_28  and  C_24 
REMARK   22  A    between atoms: N_43  and  C_24 
REMARK   23  A    between atoms: O_47  and  C_25 
REMARK   24  A    between atoms: O_48  and  C_26 
REMARK   25  A    between atoms: O_50  and  C_27 
REMARK   26  A    between atoms: O_51  and  C_28 
REMARK   27  A    between atoms: O_52  and  C_29 
REMARK   28  A    between atoms: C_30  and  O_53 
REMARK   29  A    between atoms: P_60  and  C_31 
REMARK   30  A    between atoms: P_61  and  C_32 
REMARK   31  A    between atoms: P_60  and  O_54 
REMARK   32  A    between atoms: P_60  and  O_55 
REMARK   33  A    between atoms: P_61  and  O_57 
REMARK   34  A    between atoms: P_61  and  O_58 
ROOT
HETATM    1  C   UNK N   1      25.388  13.441   5.665  0.00  0.00     0.162 C 
ENDROOT
BRANCH   1   2
HETATM    2  C   UNK N   1      24.768  14.747   5.124  0.00  0.00     0.072 C 
BRANCH   2   3
HETATM    3  C   UNK N   1      23.593  14.514   4.233  0.00  0.00    -0.056 A 
HETATM    4  C   UNK N   1      22.695  13.501   4.547  0.00  0.00     0.008 A 
HETATM    5  C   UNK N   1      21.628  13.214   3.709  0.00  0.00     0.014 A 
HETATM    6  C   UNK N   1      21.421  13.960   2.543  0.00  0.00     0.025 A 
HETATM    7  C   UNK N   1      22.297  15.021   2.250  0.00  0.00     0.014 A 
HETATM    8  C   UNK N   1      23.384  15.296   3.091  0.00  0.00     0.008 A 
BRANCH   6   9
HETATM    9  C   UNK N   1      20.337  13.588   1.562  0.00  0.00     0.364 C 
HETATM   10  F   UNK N   1      19.107  14.019   2.026  0.00  0.00    -0.187 F 
HETATM   11  F   UNK N   1      20.612  14.223   0.366  0.00  0.00    -0.187 F 
BRANCH   9  12
HETATM   12  P   UNK N   1      20.254  11.745   1.207  0.00  0.00     0.315 P 
HETATM   13  O   UNK N   1      19.324  11.438   0.002  0.00  0.00    -0.649 OA
BRANCH  12  14
HETATM   14  O   UNK N   1      19.595  10.795   2.503  0.00  0.00    -0.325 OA
HETATM   15  H   UNK N   1      18.712  10.408   2.610  0.00  0.00     0.220 HD
ENDBRANCH  12  14
BRANCH  12  16
HETATM   16  O   UNK N   1      21.768  11.012   0.784  0.00  0.00    -0.325 OA
HETATM   17  H   UNK N   1      22.287  11.211  -0.010  0.00  0.00     0.220 HD
ENDBRANCH  12  16
ENDBRANCH   9  12
ENDBRANCH   6   9
ENDBRANCH   2   3
ENDBRANCH   1   2
BRANCH   1  18
HETATM   18  C   UNK N   1      26.765  13.220   5.085  0.00  0.00     0.135 C 
HETATM   19  N   UNK N   1      27.511  14.227   4.757  0.00  0.00    -0.373 N 
ATOM     20  HN  UNK N   1      27.120  15.168   4.807  1.00  0.00     0.161 HD
BRANCH  19  21
HETATM   21  C   UNK N   1      28.875  14.058   4.327  0.00  0.00     0.121 C 
BRANCH  21  22
HETATM   22  C   UNK N   1      29.802  14.544   5.431  0.00  0.00     0.020 C 
BRANCH  22  23
HETATM   23  C   UNK N   1      31.066  15.132   4.824  0.00  0.00     0.002 C 
BRANCH  23  24
HETATM   24  C   UNK N   1      31.809  15.981   5.841  0.00  0.00     0.008 C 
BRANCH  24  25
HETATM   25  C   UNK N   1      31.492  15.511   7.255  0.00  0.00     0.083 C 
BRANCH  25  26
HETATM   26  C   UNK N   1      31.397  16.688   8.181  0.00  0.00     0.111 C 
HETATM   27  N   UNK N   1      30.330  17.417   8.310  0.00  0.00    -0.362 N 
ATOM     28  HN  UNK N   1      30.424  18.209   8.945  1.00  0.00     0.162 HD
BRANCH  27  29
HETATM   29  C   UNK N   1      29.014  17.275   7.684  0.00  0.00     0.166 C 
BRANCH  29  30
HETATM   30  C   UNK N   1      28.798  18.120   6.427  0.00  0.00     0.104 C 
BRANCH  30  31
HETATM   31  S   UNK N   1      27.220  17.708   5.620  0.00  0.00    -0.180 SA
HETATM   32  H   UNK N   1      26.542  18.415   4.676  0.00  0.00     0.101 HD
ENDBRANCH  30  31
ENDBRANCH  29  30
BRANCH  29  33
HETATM   33  C   UNK N   1      27.895  17.525   8.662  0.00  0.00     0.133 C 
HETATM   34  N   UNK N   1      27.678  18.696   9.134  0.00  0.00    -0.382 N 
HETATM   35  H   UNK N   1      27.299  18.802  10.036  0.00  0.00     0.158 HD
ATOM     36  HN  UNK N   1      27.898  19.519   8.573  1.00  0.00     0.158 HD
BRANCH  33  37
HETATM   37  O   UNK N   1      27.121  16.497   9.065  0.00  0.00    -0.348 OA
HETATM   38  H   UNK N   1      27.392  15.777   9.600  0.00  0.00     0.219 HD
ENDBRANCH  33  37
ENDBRANCH  29  33
ENDBRANCH  27  29
BRANCH  26  39
HETATM   39  O   UNK N   1      32.488  17.012   8.900  0.00  0.00    -0.350 OA
HETATM   40  H   UNK N   1      32.713  16.932   9.806  0.00  0.00     0.219 HD
ENDBRANCH  26  39
ENDBRANCH  25  26
ENDBRANCH  24  25
ENDBRANCH  23  24
ENDBRANCH  22  23
ENDBRANCH  21  22
ENDBRANCH  19  21
BRANCH  18  41
HETATM   41  O   UNK N   1      27.253  11.965   5.009  0.00  0.00    -0.348 OA
HETATM   42  H   UNK N   1      27.226  11.164   4.523  0.00  0.00     0.219 HD
ENDBRANCH  18  41
ENDBRANCH   1  18
BRANCH   1  43
HETATM   43  N   UNK N   1      25.615  13.619   7.086  0.00  0.00    -0.360 N 
HETATM   44  C   UNK N   1      24.880  13.469   8.123  0.00  0.00     0.136 C 
ATOM     45  HN  UNK N   1      26.561  13.929   7.306  1.00  0.00     0.162 HD
BRANCH  44  46
HETATM   46  C   UNK N   1      23.424  13.016   8.196  0.00  0.00     0.167 C 
BRANCH  46  47
HETATM   47  C   UNK N   1      22.897  11.986   9.212  0.00  0.00     0.143 C 
BRANCH  47  48
HETATM   48  C   UNK N   1      22.500  12.409  10.592  0.00  0.00     0.141 C 
HETATM   49  O   UNK N   1      21.345  12.702  10.844  0.00  0.00    -0.650 OA
BRANCH  48  50
HETATM   50  O   UNK N   1      23.454  12.585  11.526  0.00  0.00    -0.776 OA
HETATM   51  H   UNK N   1      24.096  13.265  11.455  0.00  0.00     0.167 HD
ENDBRANCH  48  50
ENDBRANCH  47  48
ENDBRANCH  46  47
BRANCH  46  52
HETATM   52  N   UNK N   1      22.561  14.157   7.998  0.00  0.00    -0.362 N 
HETATM   53  C   UNK N   1      21.306  14.134   7.651  0.00  0.00     0.116 C 
ATOM     54  HN  UNK N   1      22.977  15.077   8.147  1.00  0.00     0.162 HD
BRANCH  53  55
HETATM   55  C   UNK N   1      20.518  15.419   7.631  0.00  0.00     0.122 C 
BRANCH  55  56
HETATM   56  C   UNK N   1      20.564  16.014   6.269  0.00  0.00    -0.051 A 
HETATM   57  C   UNK N   1      21.538  16.960   5.967  0.00  0.00     0.008 A 
HETATM   58  C   UNK N   1      21.436  17.704   4.794  0.00  0.00     0.014 A 
HETATM   59  C   UNK N   1      20.359  17.509   3.914  0.00  0.00     0.025 A 
HETATM   60  C   UNK N   1      19.424  16.502   4.191  0.00  0.00     0.014 A 
HETATM   61  C   UNK N   1      19.526  15.757   5.363  0.00  0.00     0.008 A 
BRANCH  59  62
HETATM   62  C   UNK N   1      20.111  18.487   2.785  0.00  0.00     0.364 C 
HETATM   63  F   UNK N   1      20.156  17.769   1.589  0.00  0.00    -0.187 F 
HETATM   64  F   UNK N   1      18.810  18.956   2.962  0.00  0.00    -0.187 F 
BRANCH  62  65
HETATM   65  P   UNK N   1      21.400  19.914   2.743  0.00  0.00     0.315 P 
HETATM   66  O   UNK N   1      21.434  21.333   2.116  0.00  0.00    -0.649 OA
BRANCH  65  67
HETATM   67  O   UNK N   1      20.221  20.675   3.764  0.00  0.00    -0.325 OA
HETATM   68  H   UNK N   1      19.760  21.423   4.177  0.00  0.00     0.220 HD
ENDBRANCH  65  67
BRANCH  65  69
HETATM   69  O   UNK N   1      20.645  19.825   1.174  0.00  0.00    -0.325 OA
HETATM   70  H   UNK N   1      20.539  19.047   0.605  0.00  0.00     0.220 HD
ENDBRANCH  65  69
ENDBRANCH  62  65
ENDBRANCH  59  62
ENDBRANCH  55  56
ENDBRANCH  53  55
BRANCH  53  71
HETATM   71  O   UNK N   1      20.692  12.970   7.367  0.00  0.00    -0.349 OA
HETATM   72  H   UNK N   1      19.975  12.699   6.828  0.00  0.00     0.219 HD
ENDBRANCH  53  71
ENDBRANCH  46  52
ENDBRANCH  44  46
BRANCH  44  73
HETATM   73  O   UNK N   1      25.429  13.794   9.316  0.00  0.00    -0.348 OA
HETATM   74  H   UNK N   1      25.201  14.515   9.869  0.00  0.00     0.219 HD
ENDBRANCH  44  73
ENDBRANCH   1  43
TORSDOF 34
ENDMDL
MODEL 5
REMARK VINA RESULT:      -6.5      4.487      9.549
REMARK WARNING: 32 MAX_TORS EXCEEDED!!!
REMARK  34 active torsions:
REMARK  status: ('A' for Active; 'I' for Inactive)
REMARK    1  A    between atoms: C_2  and  C_1 
REMARK    2  A    between atoms: C_3  and  C_1 
REMARK    3  A    between atoms: C_4  and  C_2 
REMARK    4  A    between atoms: C_13  and  C_3 
REMARK    5  A    between atoms: C_25  and  C_4 
REMARK    6  A    between atoms: N_39  and  C_13 
REMARK    7  A    between atoms: C_18  and  C_14 
REMARK    8  A    between atoms: C_22  and  C_14 
REMARK    9  A    between atoms: C_19  and  C_15 
REMARK   10  A    between atoms: C_26  and  C_15 
REMARK   11  A    between atoms: C_23  and  C_16 
REMARK   12  A    between atoms: C_27  and  C_16 
REMARK   13  A    between atoms: C_24  and  C_17 
REMARK   14  A    between atoms: S_62  and  C_17 
REMARK   15  A    between atoms: C_31  and  C_20 
REMARK   16  A    between atoms: C_32  and  C_21 
REMARK   17  A    between atoms: C_29  and  C_22 
REMARK   18  A    between atoms: C_22  and  N_45 
REMARK   19  A    between atoms: C_30  and  C_23 
REMARK   20  A    between atoms: N_41  and  C_23 
REMARK   21  A    between atoms: C_28  and  C_24 
REMARK   22  A    between atoms: N_43  and  C_24 
REMARK   23  A    between atoms: O_47  and  C_25 
REMARK   24  A    between atoms: O_48  and  C_26 
REMARK   25  A    between atoms: O_50  and  C_27 
REMARK   26  A    between atoms: O_51  and  C_28 
REMARK   27  A    between atoms: O_52  and  C_29 
REMARK   28  A    between atoms: C_30  and  O_53 
REMARK   29  A    between atoms: P_60  and  C_31 
REMARK   30  A    between atoms: P_61  and  C_32 
REMARK   31  A    between atoms: P_60  and  O_54 
REMARK   32  A    between atoms: P_60  and  O_55 
REMARK   33  A    between atoms: P_61  and  O_57 
REMARK   34  A    between atoms: P_61  and  O_58 
ROOT
HETATM    1  C   UNK N   1      24.894  13.245   6.287  0.00  0.00     0.162 C 
ENDROOT
BRANCH   1   2
HETATM    2  C   UNK N   1      23.908  14.370   5.907  0.00  0.00     0.072 C 
BRANCH   2   3
HETATM    3  C   UNK N   1      23.101  14.057   4.690  0.00  0.00    -0.056 A 
HETATM    4  C   UNK N   1      22.057  13.145   4.787  0.00  0.00     0.008 A 
HETATM    5  C   UNK N   1      21.326  12.782   3.665  0.00  0.00     0.014 A 
HETATM    6  C   UNK N   1      21.612  13.350   2.419  0.00  0.00     0.025 A 
HETATM    7  C   UNK N   1      22.633  14.313   2.327  0.00  0.00     0.014 A 
HETATM    8  C   UNK N   1      23.379  14.664   3.461  0.00  0.00     0.008 A 
BRANCH   6   9
HETATM    9  C   UNK N   1      20.907  12.882   1.169  0.00  0.00     0.364 C 
HETATM   10  F   UNK N   1      21.593  13.311   0.047  0.00  0.00    -0.187 F 
HETATM   11  F   UNK N   1      20.891  11.500   1.183  0.00  0.00    -0.187 F 
BRANCH   9  12
HETATM   12  P   UNK N   1      19.122  13.458   1.061  0.00  0.00     0.315 P 
HETATM   13  O   UNK N   1      18.375  12.781  -0.119  0.00  0.00    -0.649 OA
BRANCH  12  14
HETATM   14  O   UNK N   1      18.935  15.158   0.761  0.00  0.00    -0.325 OA
HETATM   15  H   UNK N   1      19.139  15.681  -0.030  0.00  0.00     0.220 HD
ENDBRANCH  12  14
BRANCH  12  16
HETATM   16  O   UNK N   1      18.151  13.097   2.453  0.00  0.00    -0.325 OA
HETATM   17  H   UNK N   1      17.204  13.282   2.542  0.00  0.00     0.220 HD
ENDBRANCH  12  16
ENDBRANCH   9  12
ENDBRANCH   6   9
ENDBRANCH   2   3
ENDBRANCH   1   2
BRANCH   1  18
HETATM   18  C   UNK N   1      26.172  13.359   5.490  0.00  0.00     0.135 C 
HETATM   19  N   UNK N   1      26.271  12.805   4.323  0.00  0.00    -0.373 N 
ATOM     20  HN  UNK N   1      25.511  12.212   3.991  1.00  0.00     0.161 HD
BRANCH  19  21
HETATM   21  C   UNK N   1      27.422  13.005   3.479  0.00  0.00     0.121 C 
BRANCH  21  22
HETATM   22  C   UNK N   1      27.056  13.981   2.372  0.00  0.00     0.020 C 
BRANCH  22  23
HETATM   23  C   UNK N   1      27.683  15.338   2.650  0.00  0.00     0.002 C 
BRANCH  23  24
HETATM   24  C   UNK N   1      26.611  16.396   2.852  0.00  0.00     0.008 C 
BRANCH  24  25
HETATM   25  C   UNK N   1      26.548  16.811   4.316  0.00  0.00     0.083 C 
BRANCH  25  26
HETATM   26  C   UNK N   1      26.755  18.292   4.442  0.00  0.00     0.111 C 
HETATM   27  N   UNK N   1      27.560  18.835   5.304  0.00  0.00    -0.362 N 
ATOM     28  HN  UNK N   1      27.568  19.855   5.303  1.00  0.00     0.162 HD
BRANCH  27  29
HETATM   29  C   UNK N   1      28.457  18.208   6.277  0.00  0.00     0.166 C 
BRANCH  29  30
HETATM   30  C   UNK N   1      29.185  16.959   5.779  0.00  0.00     0.104 C 
BRANCH  30  31
HETATM   31  S   UNK N   1      30.525  17.392   4.627  0.00  0.00    -0.180 SA
HETATM   32  H   UNK N   1      31.175  18.580   4.493  0.00  0.00     0.101 HD
ENDBRANCH  30  31
ENDBRANCH  29  30
BRANCH  29  33
HETATM   33  C   UNK N   1      27.755  17.904   7.576  0.00  0.00     0.133 C 
HETATM   34  N   UNK N   1      27.206  16.764   7.778  0.00  0.00    -0.382 N 
HETATM   35  H   UNK N   1      26.416  16.695   8.362  0.00  0.00     0.158 HD
ATOM     36  HN  UNK N   1      27.587  15.929   7.334  1.00  0.00     0.158 HD
BRANCH  33  37
HETATM   37  O   UNK N   1      27.687  18.850   8.533  0.00  0.00    -0.348 OA
HETATM   38  H   UNK N   1      27.743  18.707   9.457  0.00  0.00     0.219 HD
ENDBRANCH  33  37
ENDBRANCH  29  33
ENDBRANCH  27  29
BRANCH  26  39
HETATM   39  O   UNK N   1      26.050  19.097   3.625  0.00  0.00    -0.350 OA
HETATM   40  H   UNK N   1      26.206  19.449   2.771  0.00  0.00     0.219 HD
ENDBRANCH  26  39
ENDBRANCH  25  26
ENDBRANCH  24  25
ENDBRANCH  23  24
ENDBRANCH  22  23
ENDBRANCH  21  22
ENDBRANCH  19  21
BRANCH  18  41
HETATM   41  O   UNK N   1      27.173  14.133   5.957  0.00  0.00    -0.348 OA
HETATM   42  H   UNK N   1      28.070  14.138   6.230  0.00  0.00     0.219 HD
ENDBRANCH  18  41
ENDBRANCH   1  18
BRANCH   1  43
HETATM   43  N   UNK N   1      25.300  13.463   7.662  0.00  0.00    -0.360 N 
HETATM   44  C   UNK N   1      24.735  13.262   8.792  0.00  0.00     0.136 C 
ATOM     45  HN  UNK N   1      26.235  13.862   7.746  1.00  0.00     0.162 HD
BRANCH  44  46
HETATM   46  C   UNK N   1      23.352  12.679   9.070  0.00  0.00     0.167 C 
BRANCH  46  47
HETATM   47  C   UNK N   1      23.074  11.600  10.134  0.00  0.00     0.143 C 
BRANCH  47  48
HETATM   48  C   UNK N   1      23.168  11.925  11.591  0.00  0.00     0.141 C 
HETATM   49  O   UNK N   1      22.167  11.972  12.284  0.00  0.00    -0.650 OA
BRANCH  48  50
HETATM   50  O   UNK N   1      24.356  12.289  12.108  0.00  0.00    -0.776 OA
HETATM   51  H   UNK N   1      24.605  12.063  12.983  0.00  0.00     0.167 HD
ENDBRANCH  48  50
ENDBRANCH  47  48
ENDBRANCH  46  47
BRANCH  46  52
HETATM   52  N   UNK N   1      22.371  13.739   9.021  0.00  0.00    -0.362 N 
HETATM   53  C   UNK N   1      21.234  13.719   8.389  0.00  0.00     0.116 C 
ATOM     54  HN  UNK N   1      22.592  14.590   9.537  1.00  0.00     0.162 HD
BRANCH  53  55
HETATM   55  C   UNK N   1      20.266  14.861   8.566  0.00  0.00     0.122 C 
BRANCH  55  56
HETATM   56  C   UNK N   1      20.332  15.763   7.385  0.00  0.00    -0.051 A 
HETATM   57  C   UNK N   1      19.617  15.440   6.236  0.00  0.00     0.008 A 
HETATM   58  C   UNK N   1      19.867  16.130   5.052  0.00  0.00     0.014 A 
HETATM   59  C   UNK N   1      20.835  17.146   5.006  0.00  0.00     0.025 A 
HETATM   60  C   UNK N   1      21.496  17.514   6.187  0.00  0.00     0.014 A 
HETATM   61  C   UNK N   1      21.246  16.826   7.371  0.00  0.00     0.008 A 
BRANCH  59  62
HETATM   62  C   UNK N   1      21.288  17.709   3.675  0.00  0.00     0.364 C 
HETATM   63  F   UNK N   1      22.680  17.630   3.638  0.00  0.00    -0.187 F 
HETATM   64  F   UNK N   1      20.775  16.853   2.702  0.00  0.00    -0.187 F 
BRANCH  62  65
HETATM   65  P   UNK N   1      20.727  19.530   3.412  0.00  0.00     0.315 P 
HETATM   66  O   UNK N   1      21.177  20.683   2.476  0.00  0.00    -0.649 OA
BRANCH  65  67
HETATM   67  O   UNK N   1      20.161  18.876   1.907  0.00  0.00    -0.325 OA
HETATM   68  H   UNK N   1      19.504  18.511   1.294  0.00  0.00     0.220 HD
ENDBRANCH  65  67
BRANCH  65  69
HETATM   69  O   UNK N   1      22.466  19.480   3.297  0.00  0.00    -0.325 OA
HETATM   70  H   UNK N   1      23.044  18.701   3.314  0.00  0.00     0.220 HD
ENDBRANCH  65  69
ENDBRANCH  62  65
ENDBRANCH  59  62
ENDBRANCH  55  56
ENDBRANCH  53  55
BRANCH  53  71
HETATM   71  O   UNK N   1      20.888  12.665   7.625  0.00  0.00    -0.349 OA
HETATM   72  H   UNK N   1      20.291  11.946   7.697  0.00  0.00     0.219 HD
ENDBRANCH  53  71
ENDBRANCH  46  52
ENDBRANCH  44  46
BRANCH  44  73
HETATM   73  O   UNK N   1      25.413  13.653   9.895  0.00  0.00    -0.348 OA
HETATM   74  H   UNK N   1      26.008  14.373   9.971  0.00  0.00     0.219 HD
ENDBRANCH  44  73
ENDBRANCH   1  43
TORSDOF 34
ENDMDL
MODEL 6
REMARK VINA RESULT:      -6.5      3.605      6.850
REMARK WARNING: 32 MAX_TORS EXCEEDED!!!
REMARK  34 active torsions:
REMARK  status: ('A' for Active; 'I' for Inactive)
REMARK    1  A    between atoms: C_2  and  C_1 
REMARK    2  A    between atoms: C_3  and  C_1 
REMARK    3  A    between atoms: C_4  and  C_2 
REMARK    4  A    between atoms: C_13  and  C_3 
REMARK    5  A    between atoms: C_25  and  C_4 
REMARK    6  A    between atoms: N_39  and  C_13 
REMARK    7  A    between atoms: C_18  and  C_14 
REMARK    8  A    between atoms: C_22  and  C_14 
REMARK    9  A    between atoms: C_19  and  C_15 
REMARK   10  A    between atoms: C_26  and  C_15 
REMARK   11  A    between atoms: C_23  and  C_16 
REMARK   12  A    between atoms: C_27  and  C_16 
REMARK   13  A    between atoms: C_24  and  C_17 
REMARK   14  A    between atoms: S_62  and  C_17 
REMARK   15  A    between atoms: C_31  and  C_20 
REMARK   16  A    between atoms: C_32  and  C_21 
REMARK   17  A    between atoms: C_29  and  C_22 
REMARK   18  A    between atoms: C_22  and  N_45 
REMARK   19  A    between atoms: C_30  and  C_23 
REMARK   20  A    between atoms: N_41  and  C_23 
REMARK   21  A    between atoms: C_28  and  C_24 
REMARK   22  A    between atoms: N_43  and  C_24 
REMARK   23  A    between atoms: O_47  and  C_25 
REMARK   24  A    between atoms: O_48  and  C_26 
REMARK   25  A    between atoms: O_50  and  C_27 
REMARK   26  A    between atoms: O_51  and  C_28 
REMARK   27  A    between atoms: O_52  and  C_29 
REMARK   28  A    between atoms: C_30  and  O_53 
REMARK   29  A    between atoms: P_60  and  C_31 
REMARK   30  A    between atoms: P_61  and  C_32 
REMARK   31  A    between atoms: P_60  and  O_54 
REMARK   32  A    between atoms: P_60  and  O_55 
REMARK   33  A    between atoms: P_61  and  O_57 
REMARK   34  A    between atoms: P_61  and  O_58 
ROOT
HETATM    1  C   UNK N   1      22.997  17.045   4.927  0.00  0.00     0.162 C 
ENDROOT
BRANCH   1   2
HETATM    2  C   UNK N   1      23.381  15.880   3.990  0.00  0.00     0.072 C 
BRANCH   2   3
HETATM    3  C   UNK N   1      24.853  15.762   3.772  0.00  0.00    -0.056 A 
HETATM    4  C   UNK N   1      25.711  15.888   4.859  0.00  0.00     0.008 A 
HETATM    5  C   UNK N   1      27.086  15.848   4.685  0.00  0.00     0.014 A 
HETATM    6  C   UNK N   1      27.635  15.652   3.413  0.00  0.00     0.025 A 
HETATM    7  C   UNK N   1      26.770  15.471   2.319  0.00  0.00     0.014 A 
HETATM    8  C   UNK N   1      25.380  15.529   2.497  0.00  0.00     0.008 A 
BRANCH   6   9
HETATM    9  C   UNK N   1      29.125  15.722   3.187  0.00  0.00     0.364 C 
HETATM   10  F   UNK N   1      29.400  15.773   1.833  0.00  0.00    -0.187 F 
HETATM   11  F   UNK N   1      29.591  16.880   3.782  0.00  0.00    -0.187 F 
BRANCH   9  12
HETATM   12  P   UNK N   1      30.064  14.287   3.956  0.00  0.00     0.315 P 
HETATM   13  O   UNK N   1      29.562  13.982   5.393  0.00  0.00    -0.649 OA
BRANCH  12  14
HETATM   14  O   UNK N   1      31.766  14.568   4.152  0.00  0.00    -0.325 OA
HETATM   15  H   UNK N   1      32.269  14.845   4.934  0.00  0.00     0.220 HD
ENDBRANCH  12  14
BRANCH  12  16
HETATM   16  O   UNK N   1      29.911  12.778   3.113  0.00  0.00    -0.325 OA
HETATM   17  H   UNK N   1      29.080  12.304   2.954  0.00  0.00     0.220 HD
ENDBRANCH  12  16
ENDBRANCH   9  12
ENDBRANCH   6   9
ENDBRANCH   2   3
ENDBRANCH   1   2
BRANCH   1  18
HETATM   18  C   UNK N   1      23.010  18.359   4.182  0.00  0.00     0.135 C 
HETATM   19  N   UNK N   1      24.055  19.124   4.217  0.00  0.00    -0.373 N 
ATOM     20  HN  UNK N   1      24.831  18.875   4.830  1.00  0.00     0.161 HD
BRANCH  19  21
HETATM   21  C   UNK N   1      24.154  20.317   3.414  0.00  0.00     0.121 C 
BRANCH  21  22
HETATM   22  C   UNK N   1      25.390  20.215   2.534  0.00  0.00     0.020 C 
BRANCH  22  23
HETATM   23  C   UNK N   1      26.623  20.623   3.324  0.00  0.00     0.002 C 
BRANCH  23  24
HETATM   24  C   UNK N   1      27.298  19.407   3.936  0.00  0.00     0.008 C 
BRANCH  24  25
HETATM   25  C   UNK N   1      28.036  19.797   5.211  0.00  0.00     0.083 C 
BRANCH  25  26
HETATM   26  C   UNK N   1      27.148  19.593   6.403  0.00  0.00     0.111 C 
HETATM   27  N   UNK N   1      27.524  18.977   7.482  0.00  0.00    -0.362 N 
ATOM     28  HN  UNK N   1      26.802  18.876   8.195  1.00  0.00     0.162 HD
BRANCH  27  29
HETATM   29  C   UNK N   1      28.826  18.404   7.832  0.00  0.00     0.166 C 
BRANCH  29  30
HETATM   30  C   UNK N   1      29.226  17.162   7.035  0.00  0.00     0.104 C 
BRANCH  30  31
HETATM   31  S   UNK N   1      31.035  17.012   6.911  0.00  0.00    -0.180 SA
HETATM   32  H   UNK N   1      31.974  17.991   7.006  0.00  0.00     0.101 HD
ENDBRANCH  30  31
ENDBRANCH  29  30
BRANCH  29  33
HETATM   33  C   UNK N   1      28.937  18.118   9.308  0.00  0.00     0.133 C 
HETATM   34  N   UNK N   1      29.823  18.698  10.029  0.00  0.00    -0.382 N 
HETATM   35  H   UNK N   1      30.197  18.239  10.815  0.00  0.00     0.158 HD
ATOM     36  HN  UNK N   1      30.141  19.636   9.787  1.00  0.00     0.158 HD
BRANCH  33  37
HETATM   37  O   UNK N   1      28.105  17.223   9.877  0.00  0.00    -0.348 OA
HETATM   38  H   UNK N   1      27.879  17.178  10.785  0.00  0.00     0.219 HD
ENDBRANCH  33  37
ENDBRANCH  29  33
ENDBRANCH  27  29
BRANCH  26  39
HETATM   39  O   UNK N   1      25.888  20.060   6.336  0.00  0.00    -0.350 OA
HETATM   40  H   UNK N   1      25.337  20.524   6.936  0.00  0.00     0.219 HD
ENDBRANCH  26  39
ENDBRANCH  25  26
ENDBRANCH  24  25
ENDBRANCH  23  24
ENDBRANCH  22  23
ENDBRANCH  21  22
ENDBRANCH  19  21
BRANCH  18  41
HETATM   41  O   UNK N   1      21.964  18.679   3.393  0.00  0.00    -0.348 OA
HETATM   42  H   UNK N   1      21.389  18.364   2.724  0.00  0.00     0.219 HD
ENDBRANCH  18  41
ENDBRANCH   1  18
BRANCH   1  43
HETATM   43  N   UNK N   1      21.613  16.858   5.315  0.00  0.00    -0.360 N 
HETATM   44  C   UNK N   1      21.042  16.244   6.281  0.00  0.00     0.136 C 
ATOM     45  HN  UNK N   1      20.954  17.314   4.684  1.00  0.00     0.162 HD
BRANCH  44  46
HETATM   46  C   UNK N   1      21.688  15.458   7.419  0.00  0.00     0.167 C 
BRANCH  46  47
HETATM   47  C   UNK N   1      21.121  15.398   8.850  0.00  0.00     0.143 C 
BRANCH  47  48
HETATM   48  C   UNK N   1      20.257  14.255   9.281  0.00  0.00     0.141 C 
HETATM   49  O   UNK N   1      19.142  14.452   9.731  0.00  0.00    -0.650 OA
BRANCH  48  50
HETATM   50  O   UNK N   1      20.769  13.010   9.285  0.00  0.00    -0.776 OA
HETATM   51  H   UNK N   1      21.617  12.822   8.933  0.00  0.00     0.167 HD
ENDBRANCH  48  50
ENDBRANCH  47  48
ENDBRANCH  46  47
BRANCH  46  52
HETATM   52  N   UNK N   1      22.167  14.193   6.912  0.00  0.00    -0.362 N 
HETATM   53  C   UNK N   1      23.372  13.714   7.026  0.00  0.00     0.116 C 
ATOM     54  HN  UNK N   1      21.491  13.615   6.414  1.00  0.00     0.162 HD
BRANCH  53  55
HETATM   55  C   UNK N   1      23.659  12.310   6.560  0.00  0.00     0.122 C 
BRANCH  55  56
HETATM   56  C   UNK N   1      24.414  12.350   5.279  0.00  0.00    -0.051 A 
HETATM   57  C   UNK N   1      23.727  12.228   4.075  0.00  0.00     0.008 A 
HETATM   58  C   UNK N   1      24.437  12.010   2.896  0.00  0.00     0.014 A 
HETATM   59  C   UNK N   1      25.838  11.911   2.911  0.00  0.00     0.025 A 
HETATM   60  C   UNK N   1      26.524  12.109   4.118  0.00  0.00     0.014 A 
HETATM   61  C   UNK N   1      25.815  12.329   5.297  0.00  0.00     0.008 A 
BRANCH  59  62
HETATM   62  C   UNK N   1      26.581  11.418   1.687  0.00  0.00     0.364 C 
HETATM   63  F   UNK N   1      25.651  11.294   0.654  0.00  0.00    -0.187 F 
HETATM   64  F   UNK N   1      27.476  12.431   1.349  0.00  0.00    -0.187 F 
BRANCH  62  65
HETATM   65  P   UNK N   1      27.462   9.735   1.983  0.00  0.00     0.315 P 
HETATM   66  O   UNK N   1      28.110   8.669   1.061  0.00  0.00    -0.649 OA
BRANCH  65  67
HETATM   67  O   UNK N   1      28.843  10.649   1.462  0.00  0.00    -0.325 OA
HETATM   68  H   UNK N   1      29.378  11.161   0.837  0.00  0.00     0.220 HD
ENDBRANCH  65  67
BRANCH  65  69
HETATM   69  O   UNK N   1      26.465   9.578   0.561  0.00  0.00    -0.325 OA
HETATM   70  H   UNK N   1      25.753  10.165   0.264  0.00  0.00     0.220 HD
ENDBRANCH  65  69
ENDBRANCH  62  65
ENDBRANCH  59  62
ENDBRANCH  55  56
ENDBRANCH  53  55
BRANCH  53  71
HETATM   71  O   UNK N   1      24.349  14.437   7.607  0.00  0.00    -0.349 OA
HETATM   72  H   UNK N   1      24.982  14.295   8.282  0.00  0.00     0.219 HD
ENDBRANCH  53  71
ENDBRANCH  46  52
ENDBRANCH  44  46
BRANCH  44  73
HETATM   73  O   UNK N   1      19.689  16.236   6.289  0.00  0.00    -0.348 OA
HETATM   74  H   UNK N   1      19.122  15.659   5.816  0.00  0.00     0.219 HD
ENDBRANCH  44  73
ENDBRANCH   1  43
TORSDOF 34
ENDMDL
MODEL 7
REMARK VINA RESULT:      -6.4      4.004      7.882
REMARK WARNING: 32 MAX_TORS EXCEEDED!!!
REMARK  34 active torsions:
REMARK  status: ('A' for Active; 'I' for Inactive)
REMARK    1  A    between atoms: C_2  and  C_1 
REMARK    2  A    between atoms: C_3  and  C_1 
REMARK    3  A    between atoms: C_4  and  C_2 
REMARK    4  A    between atoms: C_13  and  C_3 
REMARK    5  A    between atoms: C_25  and  C_4 
REMARK    6  A    between atoms: N_39  and  C_13 
REMARK    7  A    between atoms: C_18  and  C_14 
REMARK    8  A    between atoms: C_22  and  C_14 
REMARK    9  A    between atoms: C_19  and  C_15 
REMARK   10  A    between atoms: C_26  and  C_15 
REMARK   11  A    between atoms: C_23  and  C_16 
REMARK   12  A    between atoms: C_27  and  C_16 
REMARK   13  A    between atoms: C_24  and  C_17 
REMARK   14  A    between atoms: S_62  and  C_17 
REMARK   15  A    between atoms: C_31  and  C_20 
REMARK   16  A    between atoms: C_32  and  C_21 
REMARK   17  A    between atoms: C_29  and  C_22 
REMARK   18  A    between atoms: C_22  and  N_45 
REMARK   19  A    between atoms: C_30  and  C_23 
REMARK   20  A    between atoms: N_41  and  C_23 
REMARK   21  A    between atoms: C_28  and  C_24 
REMARK   22  A    between atoms: N_43  and  C_24 
REMARK   23  A    between atoms: O_47  and  C_25 
REMARK   24  A    between atoms: O_48  and  C_26 
REMARK   25  A    between atoms: O_50  and  C_27 
REMARK   26  A    between atoms: O_51  and  C_28 
REMARK   27  A    between atoms: O_52  and  C_29 
REMARK   28  A    between atoms: C_30  and  O_53 
REMARK   29  A    between atoms: P_60  and  C_31 
REMARK   30  A    between atoms: P_61  and  C_32 
REMARK   31  A    between atoms: P_60  and  O_54 
REMARK   32  A    between atoms: P_60  and  O_55 
REMARK   33  A    between atoms: P_61  and  O_57 
REMARK   34  A    between atoms: P_61  and  O_58 
ROOT
HETATM    1  C   UNK N   1      23.147  14.710   3.054  0.00  0.00     0.162 C 
ENDROOT
BRANCH   1   2
HETATM    2  C   UNK N   1      22.858  13.320   3.661  0.00  0.00     0.072 C 
BRANCH   2   3
HETATM    3  C   UNK N   1      22.499  13.374   5.109  0.00  0.00    -0.056 A 
HETATM    4  C   UNK N   1      22.965  14.431   5.883  0.00  0.00     0.008 A 
HETATM    5  C   UNK N   1      22.705  14.481   7.244  0.00  0.00     0.014 A 
HETATM    6  C   UNK N   1      21.944  13.480   7.859  0.00  0.00     0.025 A 
HETATM    7  C   UNK N   1      21.426  12.438   7.069  0.00  0.00     0.014 A 
HETATM    8  C   UNK N   1      21.706  12.382   5.696  0.00  0.00     0.008 A 
BRANCH   6   9
HETATM    9  C   UNK N   1      21.749  13.456   9.355  0.00  0.00     0.364 C 
HETATM   10  F   UNK N   1      21.606  14.744   9.837  0.00  0.00    -0.187 F 
HETATM   11  F   UNK N   1      20.593  12.747   9.620  0.00  0.00    -0.187 F 
BRANCH   9  12
HETATM   12  P   UNK N   1      23.148  12.602  10.274  0.00  0.00     0.315 P 
HETATM   13  O   UNK N   1      23.324  11.133   9.808  0.00  0.00    -0.649 OA
BRANCH  12  14
HETATM   14  O   UNK N   1      22.905  12.476  11.989  0.00  0.00    -0.325 OA
HETATM   15  H   UNK N   1      23.496  12.144  12.683  0.00  0.00     0.220 HD
ENDBRANCH  12  14
BRANCH  12  16
HETATM   16  O   UNK N   1      24.713  13.318  10.053  0.00  0.00    -0.325 OA
HETATM   17  H   UNK N   1      24.989  14.182  10.394  0.00  0.00     0.220 HD
ENDBRANCH  12  16
ENDBRANCH   9  12
ENDBRANCH   6   9
ENDBRANCH   2   3
ENDBRANCH   1   2
BRANCH   1  18
HETATM   18  C   UNK N   1      24.550  14.771   2.498  0.00  0.00     0.135 C 
HETATM   19  N   UNK N   1      25.573  14.777   3.293  0.00  0.00    -0.373 N 
ATOM     20  HN  UNK N   1      25.418  14.836   4.299  1.00  0.00     0.161 HD
BRANCH  19  21
HETATM   21  C   UNK N   1      26.924  14.700   2.797  0.00  0.00     0.121 C 
BRANCH  21  22
HETATM   22  C   UNK N   1      27.586  16.060   2.964  0.00  0.00     0.020 C 
BRANCH  22  23
HETATM   23  C   UNK N   1      29.093  15.892   3.074  0.00  0.00     0.002 C 
BRANCH  23  24
HETATM   24  C   UNK N   1      29.464  15.184   4.366  0.00  0.00     0.008 C 
BRANCH  24  25
HETATM   25  C   UNK N   1      30.253  16.118   5.274  0.00  0.00     0.083 C 
BRANCH  25  26
HETATM   26  C   UNK N   1      31.124  15.322   6.200  0.00  0.00     0.111 C 
HETATM   27  N   UNK N   1      31.805  15.845   7.174  0.00  0.00    -0.362 N 
ATOM     28  HN  UNK N   1      32.386  15.189   7.695  1.00  0.00     0.162 HD
BRANCH  27  29
HETATM   29  C   UNK N   1      31.866  17.233   7.639  0.00  0.00     0.166 C 
BRANCH  29  30
HETATM   30  C   UNK N   1      33.275  17.783   7.861  0.00  0.00     0.104 C 
BRANCH  30  31
HETATM   31  S   UNK N   1      34.382  16.508   8.537  0.00  0.00    -0.180 SA
HETATM   32  H   UNK N   1      35.424  16.660   9.398  0.00  0.00     0.101 HD
ENDBRANCH  30  31
ENDBRANCH  29  30
BRANCH  29  33
HETATM   33  C   UNK N   1      31.034  17.449   8.878  0.00  0.00     0.133 C 
HETATM   34  N   UNK N   1      30.553  18.602   9.158  0.00  0.00    -0.382 N 
HETATM   35  H   UNK N   1      30.416  18.865  10.096  0.00  0.00     0.158 HD
ATOM     36  HN  UNK N   1      30.312  19.249   8.407  1.00  0.00     0.158 HD
BRANCH  33  37
HETATM   37  O   UNK N   1      30.809  16.418   9.717  0.00  0.00    -0.348 OA
HETATM   38  H   UNK N   1      30.596  15.540   9.468  0.00  0.00     0.219 HD
ENDBRANCH  33  37
ENDBRANCH  29  33
ENDBRANCH  27  29
BRANCH  26  39
HETATM   39  O   UNK N   1      31.217  13.995   5.992  0.00  0.00    -0.350 OA
HETATM   40  H   UNK N   1      30.711  13.381   5.499  0.00  0.00     0.219 HD
ENDBRANCH  26  39
ENDBRANCH  25  26
ENDBRANCH  24  25
ENDBRANCH  23  24
ENDBRANCH  22  23
ENDBRANCH  21  22
ENDBRANCH  19  21
BRANCH  18  41
HETATM   41  O   UNK N   1      24.732  14.713   1.163  0.00  0.00    -0.348 OA
HETATM   42  H   UNK N   1      24.319  14.520   0.344  0.00  0.00     0.219 HD
ENDBRANCH  18  41
ENDBRANCH   1  18
BRANCH   1  43
HETATM   43  N   UNK N   1      22.288  14.872   1.899  0.00  0.00    -0.360 N 
HETATM   44  C   UNK N   1      21.111  15.346   1.733  0.00  0.00     0.136 C 
ATOM     45  HN  UNK N   1      22.711  14.537   1.033  1.00  0.00     0.162 HD
BRANCH  44  46
HETATM   46  C   UNK N   1      20.172  15.939   2.779  0.00  0.00     0.167 C 
BRANCH  46  47
HETATM   47  C   UNK N   1      19.440  15.104   3.847  0.00  0.00     0.143 C 
BRANCH  47  48
HETATM   48  C   UNK N   1      19.062  15.710   5.162  0.00  0.00     0.141 C 
HETATM   49  O   UNK N   1      17.902  15.714   5.535  0.00  0.00    -0.650 OA
BRANCH  48  50
HETATM   50  O   UNK N   1      19.996  16.365   5.877  0.00  0.00    -0.776 OA
HETATM   51  H   UNK N   1      19.954  17.291   6.016  0.00  0.00     0.167 HD
ENDBRANCH  48  50
ENDBRANCH  47  48
ENDBRANCH  46  47
BRANCH  46  52
HETATM   52  N   UNK N   1      20.726  17.181   3.267  0.00  0.00    -0.362 N 
HETATM   53  C   UNK N   1      20.464  18.377   2.826  0.00  0.00     0.116 C 
ATOM     54  HN  UNK N   1      21.392  17.113   4.037  1.00  0.00     0.162 HD
BRANCH  53  55
HETATM   55  C   UNK N   1      21.026  19.574   3.550  0.00  0.00     0.122 C 
BRANCH  55  56
HETATM   56  C   UNK N   1      22.511  19.490   3.581  0.00  0.00    -0.051 A 
HETATM   57  C   UNK N   1      23.128  18.586   4.439  0.00  0.00     0.008 A 
HETATM   58  C   UNK N   1      24.500  18.674   4.662  0.00  0.00     0.014 A 
HETATM   59  C   UNK N   1      25.266  19.668   4.030  0.00  0.00     0.025 A 
HETATM   60  C   UNK N   1      24.646  20.526   3.111  0.00  0.00     0.014 A 
HETATM   61  C   UNK N   1      23.275  20.438   2.886  0.00  0.00     0.008 A 
BRANCH  59  62
HETATM   62  C   UNK N   1      26.692  19.926   4.470  0.00  0.00     0.364 C 
HETATM   63  F   UNK N   1      27.508  19.789   3.347  0.00  0.00    -0.187 F 
HETATM   64  F   UNK N   1      26.732  21.258   4.878  0.00  0.00    -0.187 F 
BRANCH  62  65
HETATM   65  P   UNK N   1      27.271  18.722   5.853  0.00  0.00     0.315 P 
HETATM   66  O   UNK N   1      28.502  18.656   6.794  0.00  0.00    -0.649 OA
BRANCH  65  67
HETATM   67  O   UNK N   1      26.903  20.091   6.854  0.00  0.00    -0.325 OA
HETATM   68  H   UNK N   1      27.080  20.938   7.293  0.00  0.00     0.220 HD
ENDBRANCH  65  67
BRANCH  65  69
HETATM   69  O   UNK N   1      28.673  19.201   4.935  0.00  0.00    -0.325 OA
HETATM   70  H   UNK N   1      29.170  18.679   4.286  0.00  0.00     0.220 HD
ENDBRANCH  65  69
ENDBRANCH  62  65
ENDBRANCH  59  62
ENDBRANCH  55  56
ENDBRANCH  53  55
BRANCH  53  71
HETATM   71  O   UNK N   1      19.651  18.559   1.768  0.00  0.00    -0.349 OA
HETATM   72  H   UNK N   1      18.872  18.157   1.439  0.00  0.00     0.219 HD
ENDBRANCH  53  71
ENDBRANCH  46  52
ENDBRANCH  44  46
BRANCH  44  73
HETATM   73  O   UNK N   1      20.593  15.278   0.485  0.00  0.00    -0.348 OA
HETATM   74  H   UNK N   1      19.751  14.950   0.236  0.00  0.00     0.219 HD
ENDBRANCH  44  73
ENDBRANCH   1  43
TORSDOF 34
ENDMDL
MODEL 8
REMARK VINA RESULT:      -6.4      4.939      9.539
REMARK WARNING: 32 MAX_TORS EXCEEDED!!!
REMARK  34 active torsions:
REMARK  status: ('A' for Active; 'I' for Inactive)
REMARK    1  A    between atoms: C_2  and  C_1 
REMARK    2  A    between atoms: C_3  and  C_1 
REMARK    3  A    between atoms: C_4  and  C_2 
REMARK    4  A    between atoms: C_13  and  C_3 
REMARK    5  A    between atoms: C_25  and  C_4 
REMARK    6  A    between atoms: N_39  and  C_13 
REMARK    7  A    between atoms: C_18  and  C_14 
REMARK    8  A    between atoms: C_22  and  C_14 
REMARK    9  A    between atoms: C_19  and  C_15 
REMARK   10  A    between atoms: C_26  and  C_15 
REMARK   11  A    between atoms: C_23  and  C_16 
REMARK   12  A    between atoms: C_27  and  C_16 
REMARK   13  A    between atoms: C_24  and  C_17 
REMARK   14  A    between atoms: S_62  and  C_17 
REMARK   15  A    between atoms: C_31  and  C_20 
REMARK   16  A    between atoms: C_32  and  C_21 
REMARK   17  A    between atoms: C_29  and  C_22 
REMARK   18  A    between atoms: C_22  and  N_45 
REMARK   19  A    between atoms: C_30  and  C_23 
REMARK   20  A    between atoms: N_41  and  C_23 
REMARK   21  A    between atoms: C_28  and  C_24 
REMARK   22  A    between atoms: N_43  and  C_24 
REMARK   23  A    between atoms: O_47  and  C_25 
REMARK   24  A    between atoms: O_48  and  C_26 
REMARK   25  A    between atoms: O_50  and  C_27 
REMARK   26  A    between atoms: O_51  and  C_28 
REMARK   27  A    between atoms: O_52  and  C_29 
REMARK   28  A    between atoms: C_30  and  O_53 
REMARK   29  A    between atoms: P_60  and  C_31 
REMARK   30  A    between atoms: P_61  and  C_32 
REMARK   31  A    between atoms: P_60  and  O_54 
REMARK   32  A    between atoms: P_60  and  O_55 
REMARK   33  A    between atoms: P_61  and  O_57 
REMARK   34  A    between atoms: P_61  and  O_58 
ROOT
HETATM    1  C   UNK N   1      29.424  15.314   5.520  0.00  0.00     0.162 C 
ENDROOT
BRANCH   1   2
HETATM    2  C   UNK N   1      28.404  14.580   4.623  0.00  0.00     0.072 C 
BRANCH   2   3
HETATM    3  C   UNK N   1      27.082  14.373   5.285  0.00  0.00    -0.056 A 
HETATM    4  C   UNK N   1      26.662  15.276   6.255  0.00  0.00     0.008 A 
HETATM    5  C   UNK N   1      25.470  15.081   6.936  0.00  0.00     0.014 A 
HETATM    6  C   UNK N   1      24.654  13.984   6.639  0.00  0.00     0.025 A 
HETATM    7  C   UNK N   1      25.051  13.097   5.622  0.00  0.00     0.014 A 
HETATM    8  C   UNK N   1      26.265  13.288   4.948  0.00  0.00     0.008 A 
BRANCH   6   9
HETATM    9  C   UNK N   1      23.414  13.692   7.448  0.00  0.00     0.364 C 
HETATM   10  F   UNK N   1      22.691  14.854   7.648  0.00  0.00    -0.187 F 
HETATM   11  F   UNK N   1      22.640  12.800   6.730  0.00  0.00    -0.187 F 
BRANCH   9  12
HETATM   12  P   UNK N   1      23.780  12.897   9.111  0.00  0.00     0.315 P 
HETATM   13  O   UNK N   1      25.199  13.266   9.620  0.00  0.00    -0.649 OA
BRANCH  12  14
HETATM   14  O   UNK N   1      23.775  11.160   9.090  0.00  0.00    -0.325 OA
HETATM   15  H   UNK N   1      23.347  10.542   8.477  0.00  0.00     0.220 HD
ENDBRANCH  12  14
BRANCH  12  16
HETATM   16  O   UNK N   1      22.719  13.373  10.398  0.00  0.00    -0.325 OA
HETATM   17  H   UNK N   1      22.606  12.902  11.238  0.00  0.00     0.220 HD
ENDBRANCH  12  16
ENDBRANCH   9  12
ENDBRANCH   6   9
ENDBRANCH   2   3
ENDBRANCH   1   2
BRANCH   1  18
HETATM   18  C   UNK N   1      30.788  14.672   5.417  0.00  0.00     0.135 C 
HETATM   19  N   UNK N   1      31.855  15.404   5.349  0.00  0.00    -0.373 N 
ATOM     20  HN  UNK N   1      31.757  16.416   5.269  1.00  0.00     0.161 HD
BRANCH  19  21
HETATM   21  C   UNK N   1      33.176  14.830   5.384  0.00  0.00     0.121 C 
BRANCH  21  22
HETATM   22  C   UNK N   1      34.186  15.938   5.643  0.00  0.00     0.020 C 
BRANCH  22  23
HETATM   23  C   UNK N   1      33.462  17.254   5.881  0.00  0.00     0.002 C 
BRANCH  23  24
HETATM   24  C   UNK N   1      33.937  17.906   7.168  0.00  0.00     0.008 C 
BRANCH  24  25
HETATM   25  C   UNK N   1      34.456  16.852   8.136  0.00  0.00     0.083 C 
BRANCH  25  26
HETATM   26  C   UNK N   1      33.382  16.474   9.113  0.00  0.00     0.111 C 
HETATM   27  N   UNK N   1      33.486  15.489   9.952  0.00  0.00    -0.362 N 
ATOM     28  HN  UNK N   1      32.661  15.323  10.527  1.00  0.00     0.162 HD
BRANCH  27  29
HETATM   29  C   UNK N   1      34.608  14.580  10.199  0.00  0.00     0.166 C 
BRANCH  29  30
HETATM   30  C   UNK N   1      34.370  13.126   9.789  0.00  0.00     0.104 C 
BRANCH  30  31
HETATM   31  S   UNK N   1      34.880  12.835   8.067  0.00  0.00    -0.180 SA
HETATM   32  H   UNK N   1      36.064  13.141   7.471  0.00  0.00     0.101 HD
ENDBRANCH  30  31
ENDBRANCH  29  30
BRANCH  29  33
HETATM   33  C   UNK N   1      35.072  14.635  11.632  0.00  0.00     0.133 C 
HETATM   34  N   UNK N   1      36.023  15.415  11.989  0.00  0.00    -0.382 N 
HETATM   35  H   UNK N   1      36.610  15.166  12.739  0.00  0.00     0.158 HD
ATOM     36  HN  UNK N   1      36.171  16.295  11.496  1.00  0.00     0.158 HD
BRANCH  33  37
HETATM   37  O   UNK N   1      34.492  13.836  12.551  0.00  0.00    -0.348 OA
HETATM   38  H   UNK N   1      33.684  14.000  12.994  0.00  0.00     0.219 HD
ENDBRANCH  33  37
ENDBRANCH  29  33
ENDBRANCH  27  29
BRANCH  26  39
HETATM   39  O   UNK N   1      32.241  17.189   9.100  0.00  0.00    -0.350 OA
HETATM   40  H   UNK N   1      31.523  17.272   9.695  0.00  0.00     0.219 HD
ENDBRANCH  26  39
ENDBRANCH  25  26
ENDBRANCH  24  25
ENDBRANCH  23  24
ENDBRANCH  22  23
ENDBRANCH  21  22
ENDBRANCH  19  21
BRANCH  18  41
HETATM   41  O   UNK N   1      30.893  13.330   5.503  0.00  0.00    -0.348 OA
HETATM   42  H   UNK N   1      30.410  12.531   5.574  0.00  0.00     0.219 HD
ENDBRANCH  18  41
ENDBRANCH   1  18
BRANCH   1  43
HETATM   43  N   UNK N   1      29.605  16.646   4.979  0.00  0.00    -0.360 N 
HETATM   44  C   UNK N   1      29.177  17.803   5.320  0.00  0.00     0.136 C 
ATOM     45  HN  UNK N   1      30.200  16.666   4.151  1.00  0.00     0.162 HD
BRANCH  44  46
HETATM   46  C   UNK N   1      28.277  18.172   6.495  0.00  0.00     0.167 C 
BRANCH  46  47
HETATM   47  C   UNK N   1      28.716  19.081   7.659  0.00  0.00     0.143 C 
BRANCH  47  48
HETATM   48  C   UNK N   1      28.637  18.599   9.074  0.00  0.00     0.141 C 
HETATM   49  O   UNK N   1      29.602  18.676   9.813  0.00  0.00    -0.650 OA
BRANCH  48  50
HETATM   50  O   UNK N   1      27.525  17.964   9.491  0.00  0.00    -0.776 OA
HETATM   51  H   UNK N   1      27.068  18.224  10.267  0.00  0.00     0.167 HD
ENDBRANCH  48  50
ENDBRANCH  47  48
ENDBRANCH  46  47
BRANCH  46  52
HETATM   52  N   UNK N   1      26.940  18.426   6.010  0.00  0.00    -0.362 N 
HETATM   53  C   UNK N   1      26.530  19.489   5.380  0.00  0.00     0.116 C 
ATOM     54  HN  UNK N   1      26.247  17.697   6.176  1.00  0.00     0.162 HD
BRANCH  53  55
HETATM   55  C   UNK N   1      25.131  19.523   4.817  0.00  0.00     0.122 C 
BRANCH  55  56
HETATM   56  C   UNK N   1      24.677  18.140   4.517  0.00  0.00    -0.051 A 
HETATM   57  C   UNK N   1      25.351  17.390   3.559  0.00  0.00     0.008 A 
HETATM   58  C   UNK N   1      24.788  16.204   3.091  0.00  0.00     0.014 A 
HETATM   59  C   UNK N   1      23.548  15.759   3.576  0.00  0.00     0.025 A 
HETATM   60  C   UNK N   1      22.913  16.484   4.595  0.00  0.00     0.014 A 
HETATM   61  C   UNK N   1      23.475  17.668   5.064  0.00  0.00     0.008 A 
BRANCH  59  62
HETATM   62  C   UNK N   1      22.822  14.623   2.886  0.00  0.00     0.364 C 
HETATM   63  F   UNK N   1      23.765  13.912   2.144  0.00  0.00    -0.187 F 
HETATM   64  F   UNK N   1      22.352  13.795   3.903  0.00  0.00    -0.187 F 
BRANCH  62  65
HETATM   65  P   UNK N   1      21.409  15.238   1.735  0.00  0.00     0.315 P 
HETATM   66  O   UNK N   1      20.753  14.702   0.435  0.00  0.00    -0.649 OA
BRANCH  65  67
HETATM   67  O   UNK N   1      20.599  13.857   2.406  0.00  0.00    -0.325 OA
HETATM   68  H   UNK N   1      20.168  13.338   3.102  0.00  0.00     0.220 HD
ENDBRANCH  65  67
BRANCH  65  69
HETATM   69  O   UNK N   1      22.671  14.574   0.731  0.00  0.00    -0.325 OA
HETATM   70  H   UNK N   1      22.594  14.217  -0.167  0.00  0.00     0.220 HD
ENDBRANCH  65  69
ENDBRANCH  62  65
ENDBRANCH  59  62
ENDBRANCH  55  56
ENDBRANCH  53  55
BRANCH  53  71
HETATM   71  O   UNK N   1      27.356  20.532   5.177  0.00  0.00    -0.349 OA
HETATM   72  H   UNK N   1      28.090  20.908   5.621  0.00  0.00     0.219 HD
ENDBRANCH  53  71
ENDBRANCH  46  52
ENDBRANCH  44  46
BRANCH  44  73
HETATM   73  O   UNK N   1      29.514  18.841   4.521  0.00  0.00    -0.348 OA
HETATM   74  H   UNK N   1      30.369  19.064   4.208  0.00  0.00     0.219 HD
ENDBRANCH  44  73
ENDBRANCH   1  43
TORSDOF 34
ENDMDL
MODEL 9
REMARK VINA RESULT:      -6.4      3.133      4.346
REMARK WARNING: 32 MAX_TORS EXCEEDED!!!
REMARK  34 active torsions:
REMARK  status: ('A' for Active; 'I' for Inactive)
REMARK    1  A    between atoms: C_2  and  C_1 
REMARK    2  A    between atoms: C_3  and  C_1 
REMARK    3  A    between atoms: C_4  and  C_2 
REMARK    4  A    between atoms: C_13  and  C_3 
REMARK    5  A    between atoms: C_25  and  C_4 
REMARK    6  A    between atoms: N_39  and  C_13 
REMARK    7  A    between atoms: C_18  and  C_14 
REMARK    8  A    between atoms: C_22  and  C_14 
REMARK    9  A    between atoms: C_19  and  C_15 
REMARK   10  A    between atoms: C_26  and  C_15 
REMARK   11  A    between atoms: C_23  and  C_16 
REMARK   12  A    between atoms: C_27  and  C_16 
REMARK   13  A    between atoms: C_24  and  C_17 
REMARK   14  A    between atoms: S_62  and  C_17 
REMARK   15  A    between atoms: C_31  and  C_20 
REMARK   16  A    between atoms: C_32  and  C_21 
REMARK   17  A    between atoms: C_29  and  C_22 
REMARK   18  A    between atoms: C_22  and  N_45 
REMARK   19  A    between atoms: C_30  and  C_23 
REMARK   20  A    between atoms: N_41  and  C_23 
REMARK   21  A    between atoms: C_28  and  C_24 
REMARK   22  A    between atoms: N_43  and  C_24 
REMARK   23  A    between atoms: O_47  and  C_25 
REMARK   24  A    between atoms: O_48  and  C_26 
REMARK   25  A    between atoms: O_50  and  C_27 
REMARK   26  A    between atoms: O_51  and  C_28 
REMARK   27  A    between atoms: O_52  and  C_29 
REMARK   28  A    between atoms: C_30  and  O_53 
REMARK   29  A    between atoms: P_60  and  C_31 
REMARK   30  A    between atoms: P_61  and  C_32 
REMARK   31  A    between atoms: P_60  and  O_54 
REMARK   32  A    between atoms: P_60  and  O_55 
REMARK   33  A    between atoms: P_61  and  O_57 
REMARK   34  A    between atoms: P_61  and  O_58 
ROOT
HETATM    1  C   UNK N   1      21.000  17.610   2.848  0.00  0.00     0.162 C 
ENDROOT
BRANCH   1   2
HETATM    2  C   UNK N   1      21.271  19.117   3.038  0.00  0.00     0.072 C 
BRANCH   2   3
HETATM    3  C   UNK N   1      22.686  19.417   3.409  0.00  0.00    -0.056 A 
HETATM    4  C   UNK N   1      23.363  20.428   2.735  0.00  0.00     0.008 A 
HETATM    5  C   UNK N   1      24.697  20.691   3.008  0.00  0.00     0.014 A 
HETATM    6  C   UNK N   1      25.379  19.961   3.988  0.00  0.00     0.025 A 
HETATM    7  C   UNK N   1      24.682  18.974   4.709  0.00  0.00     0.014 A 
HETATM    8  C   UNK N   1      23.338  18.699   4.417  0.00  0.00     0.008 A 
BRANCH   6   9
HETATM    9  C   UNK N   1      26.857  20.154   4.217  0.00  0.00     0.364 C 
HETATM   10  F   UNK N   1      27.488  20.461   3.024  0.00  0.00    -0.187 F 
HETATM   11  F   UNK N   1      27.017  21.211   5.093  0.00  0.00    -0.187 F 
BRANCH   9  12
HETATM   12  P   UNK N   1      27.693  18.659   4.991  0.00  0.00     0.315 P 
HETATM   13  O   UNK N   1      27.720  18.761   6.540  0.00  0.00    -0.649 OA
BRANCH  12  14
HETATM   14  O   UNK N   1      29.361  18.463   4.549  0.00  0.00    -0.325 OA
HETATM   15  H   UNK N   1      30.122  19.045   4.702  0.00  0.00     0.220 HD
ENDBRANCH  12  14
BRANCH  12  16
HETATM   16  O   UNK N   1      26.919  17.140   4.670  0.00  0.00    -0.325 OA
HETATM   17  H   UNK N   1      25.977  16.950   4.798  0.00  0.00     0.220 HD
ENDBRANCH  12  16
ENDBRANCH   9  12
ENDBRANCH   6   9
ENDBRANCH   2   3
ENDBRANCH   1   2
BRANCH   1  18
HETATM   18  C   UNK N   1      20.236  17.049   4.026  0.00  0.00     0.135 C 
HETATM   19  N   UNK N   1      20.867  16.614   5.070  0.00  0.00    -0.373 N 
ATOM     20  HN  UNK N   1      21.885  16.565   5.049  1.00  0.00     0.161 HD
BRANCH  19  21
HETATM   21  C   UNK N   1      20.171  16.197   6.261  0.00  0.00     0.121 C 
BRANCH  21  22
HETATM   22  C   UNK N   1      20.598  17.090   7.417  0.00  0.00     0.020 C 
BRANCH  22  23
HETATM   23  C   UNK N   1      19.921  16.636   8.700  0.00  0.00     0.002 C 
BRANCH  23  24
HETATM   24  C   UNK N   1      19.866  15.119   8.773  0.00  0.00     0.008 C 
BRANCH  24  25
HETATM   25  C   UNK N   1      21.104  14.578   9.477  0.00  0.00     0.083 C 
BRANCH  25  26
HETATM   26  C   UNK N   1      20.764  13.324  10.226  0.00  0.00     0.111 C 
HETATM   27  N   UNK N   1      21.648  12.457  10.616  0.00  0.00    -0.362 N 
ATOM     28  HN  UNK N   1      21.268  11.631  11.079  1.00  0.00     0.162 HD
BRANCH  27  29
HETATM   29  C   UNK N   1      23.108  12.484  10.494  0.00  0.00     0.166 C 
BRANCH  29  30
HETATM   30  C   UNK N   1      23.675  11.707   9.305  0.00  0.00     0.104 C 
BRANCH  30  31
HETATM   31  S   UNK N   1      24.487  12.821   8.118  0.00  0.00    -0.180 SA
HETATM   32  H   UNK N   1      24.452  12.781   6.758  0.00  0.00     0.101 HD
ENDBRANCH  30  31
ENDBRANCH  29  30
BRANCH  29  33
HETATM   33  C   UNK N   1      23.788  12.037  11.763  0.00  0.00     0.133 C 
HETATM   34  N   UNK N   1      23.108  11.621  12.766  0.00  0.00    -0.382 N 
HETATM   35  H   UNK N   1      23.447  11.751  13.680  0.00  0.00     0.158 HD
ATOM     36  HN  UNK N   1      22.214  11.153  12.615  1.00  0.00     0.158 HD
BRANCH  33  37
HETATM   37  O   UNK N   1      25.131  12.096  11.855  0.00  0.00    -0.348 OA
HETATM   38  H   UNK N   1      25.623  12.669  12.409  0.00  0.00     0.219 HD
ENDBRANCH  33  37
ENDBRANCH  29  33
ENDBRANCH  27  29
BRANCH  26  39
HETATM   39  O   UNK N   1      19.467  13.080  10.489  0.00  0.00    -0.350 OA
HETATM   40  H   UNK N   1      18.761  12.721   9.987  0.00  0.00     0.219 HD
ENDBRANCH  26  39
ENDBRANCH  25  26
ENDBRANCH  24  25
ENDBRANCH  23  24
ENDBRANCH  22  23
ENDBRANCH  21  22
ENDBRANCH  19  21
BRANCH  18  41
HETATM   41  O   UNK N   1      18.889  17.104   4.023  0.00  0.00    -0.348 OA
HETATM   42  H   UNK N   1      18.105  16.599   4.115  0.00  0.00     0.219 HD
ENDBRANCH  18  41
ENDBRANCH   1  18
BRANCH   1  43
HETATM   43  N   UNK N   1      20.096  17.465   1.724  0.00  0.00    -0.360 N 
HETATM   44  C   UNK N   1      19.652  16.457   1.073  0.00  0.00     0.136 C 
ATOM     45  HN  UNK N   1      19.738  18.355   1.379  1.00  0.00     0.162 HD
BRANCH  44  46
HETATM   46  C   UNK N   1      19.952  14.977   1.294  0.00  0.00     0.167 C 
BRANCH  46  47
HETATM   47  C   UNK N   1      18.894  13.863   1.193  0.00  0.00     0.143 C 
BRANCH  47  48
HETATM   48  C   UNK N   1      18.888  12.726   2.166  0.00  0.00     0.141 C 
HETATM   49  O   UNK N   1      19.920  12.145   2.450  0.00  0.00    -0.650 OA
BRANCH  48  50
HETATM   50  O   UNK N   1      17.712  12.266   2.632  0.00  0.00    -0.776 OA
HETATM   51  H   UNK N   1      17.377  11.426   2.386  0.00  0.00     0.167 HD
ENDBRANCH  48  50
ENDBRANCH  47  48
ENDBRANCH  46  47
BRANCH  46  52
HETATM   52  N   UNK N   1      21.222  14.654   0.686  0.00  0.00    -0.362 N 
HETATM   53  C   UNK N   1      22.279  14.191   1.289  0.00  0.00     0.116 C 
ATOM     54  HN  UNK N   1      21.298  14.802  -0.321  1.00  0.00     0.162 HD
BRANCH  53  55
HETATM   55  C   UNK N   1      23.475  13.772   0.472  0.00  0.00     0.122 C 
BRANCH  55  56
HETATM   56  C   UNK N   1      24.712  13.915   1.283  0.00  0.00    -0.051 A 
HETATM   57  C   UNK N   1      25.275  15.175   1.459  0.00  0.00     0.008 A 
HETATM   58  C   UNK N   1      26.556  15.289   1.994  0.00  0.00     0.014 A 
HETATM   59  C   UNK N   1      27.285  14.145   2.357  0.00  0.00     0.025 A 
HETATM   60  C   UNK N   1      26.680  12.885   2.246  0.00  0.00     0.014 A 
HETATM   61  C   UNK N   1      25.399  12.771   1.712  0.00  0.00     0.008 A 
BRANCH  59  62
HETATM   62  C   UNK N   1      28.759  14.253   2.689  0.00  0.00     0.364 C 
HETATM   63  F   UNK N   1      29.447  13.396   1.830  0.00  0.00    -0.187 F 
HETATM   64  F   UNK N   1      29.126  15.563   2.385  0.00  0.00    -0.187 F 
BRANCH  62  65
HETATM   65  P   UNK N   1      29.141  13.795   4.517  0.00  0.00     0.315 P 
HETATM   66  O   UNK N   1      30.434  13.714   5.372  0.00  0.00    -0.649 OA
BRANCH  65  67
HETATM   67  O   UNK N   1      29.499  15.491   4.607  0.00  0.00    -0.325 OA
HETATM   68  H   UNK N   1      30.061  16.280   4.554  0.00  0.00     0.220 HD
ENDBRANCH  65  67
BRANCH  65  69
HETATM   69  O   UNK N   1      30.403  13.123   3.519  0.00  0.00    -0.325 OA
HETATM   70  H   UNK N   1      30.333  12.797   2.608  0.00  0.00     0.220 HD
ENDBRANCH  65  69
ENDBRANCH  62  65
ENDBRANCH  59  62
ENDBRANCH  55  56
ENDBRANCH  53  55
BRANCH  53  71
HETATM   71  O   UNK N   1      22.294  14.029   2.625  0.00  0.00    -0.349 OA
HETATM   72  H   UNK N   1      22.723  14.440   3.350  0.00  0.00     0.219 HD
ENDBRANCH  53  71
ENDBRANCH  46  52
ENDBRANCH  44  46
BRANCH  44  73
HETATM   73  O   UNK N   1      18.848  16.717   0.016  0.00  0.00    -0.348 OA
HETATM   74  H   UNK N   1      17.958  16.446  -0.101  0.00  0.00     0.219 HD
ENDBRANCH  44  73
ENDBRANCH   1  43
TORSDOF 34
ENDMDL
