MODEL 1
REMARK VINA RESULT:      -7.0      0.000      0.000
REMARK  15 active torsions:
REMARK  status: ('A' for Active; 'I' for Inactive)
REMARK    1  A    between atoms: C_4  and  C_1 
REMARK    2  A    between atoms: O_30  and  C_1 
REMARK    3  A    between atoms: P_33  and  C_3 
REMARK    4  A    between atoms: P_34  and  C_3 
REMARK    5  A    between atoms: C_6  and  O_20 
REMARK    6  A    between atoms: C_7  and  O_21 
REMARK    7  A    between atoms: O_22  and  C_9 
REMARK    8  A    between atoms: C_10  and  N_19 
REMARK       I    between atoms: N_12  and  C_11 
REMARK    9  A    between atoms: P_33  and  O_23 
REMARK   10  A    between atoms: P_33  and  O_24 
REMARK   11  A    between atoms: P_34  and  O_26 
REMARK   12  A    between atoms: P_35  and  O_28 
REMARK   13  A    between atoms: P_35  and  O_30 
REMARK   14  A    between atoms: P_34  and  O_32 
REMARK   15  A    between atoms: P_35  and  O_32 
ROOT
HETATM    1  C   UNK N   1      36.651  13.057  13.825  0.00  0.00     0.180 C 
HETATM    2  C   UNK N   1      35.184  13.424  14.061  0.00  0.00     0.182 C 
HETATM    3  C   UNK N   1      34.849  12.630  15.321  0.00  0.00     0.198 C 
HETATM    4  C   UNK N   1      36.208  12.042  15.679  0.00  0.00     0.262 C 
HETATM    5  O   UNK N   1      36.831  11.788  14.439  0.00  0.00    -0.353 OA
ENDROOT
BRANCH   1   6
HETATM    6  C   UNK N   1      36.998  13.157  12.353  0.00  0.00     0.215 C 
BRANCH   6   7
HETATM    7  O   UNK N   1      36.518  14.331  11.795  0.00  0.00    -0.294 OA
BRANCH   7   8
HETATM    8  P   UNK N   1      36.992  14.150  10.139  0.00  0.00     0.400 P 
HETATM    9  O   UNK N   1      35.766  13.207  10.252  0.00  0.00    -0.631 OA
BRANCH   8  10
HETATM   10  O   UNK N   1      37.058  15.833  10.553  0.00  0.00    -0.307 OA
HETATM   11  H   UNK N   1      36.941  16.135  11.467  0.00  0.00     0.222 HD
ENDBRANCH   8  10
BRANCH   8  12
HETATM   12  O   UNK N   1      35.875  15.006   9.072  0.00  0.00    -0.218 OA
BRANCH  12  13
HETATM   13  P   UNK N   1      34.541  15.969   9.771  0.00  0.00     0.258 P 
HETATM   14  O   UNK N   1      33.293  15.349   9.106  0.00  0.00    -0.653 OA
BRANCH  13  15
HETATM   15  C   UNK N   1      34.394  17.302   8.509  0.00  0.00     0.250 C 
BRANCH  15  16
HETATM   16  P   UNK N   1      34.093  16.729   6.808  0.00  0.00     0.247 P 
HETATM   17  O   UNK N   1      34.104  17.996   5.914  0.00  0.00    -0.653 OA
BRANCH  16  18
HETATM   18  O   UNK N   1      35.362  15.746   6.159  0.00  0.00    -0.329 OA
HETATM   19  H   UNK N   1      35.841  14.939   5.911  0.00  0.00     0.220 HD
ENDBRANCH  16  18
BRANCH  16  20
HETATM   20  O   UNK N   1      32.557  15.992   6.493  0.00  0.00    -0.329 OA
HETATM   21  H   UNK N   1      32.417  15.066   6.241  0.00  0.00     0.220 HD
ENDBRANCH  16  20
ENDBRANCH  15  16
ENDBRANCH  13  15
BRANCH  13  22
HETATM   22  O   UNK N   1      34.044  15.325  11.316  0.00  0.00    -0.328 OA
HETATM   23  H   UNK N   1      34.487  15.265  12.176  0.00  0.00     0.220 HD
ENDBRANCH  13  22
ENDBRANCH  12  13
ENDBRANCH   8  12
ENDBRANCH   7   8
ENDBRANCH   6   7
ENDBRANCH   1   6
BRANCH   2  24
HETATM   24  O   UNK N   1      34.379  12.990  12.997  0.00  0.00    -0.390 OA
HETATM   25  H   UNK N   1      34.211  12.921  12.043  0.00  0.00     0.210 HD
ENDBRANCH   2  24
BRANCH   3  26
HETATM   26  O   UNK N   1      33.958  11.589  15.027  0.00  0.00    -0.388 OA
HETATM   27  H   UNK N   1      33.487  10.791  14.740  0.00  0.00     0.210 HD
ENDBRANCH   3  26
BRANCH   4  28
HETATM   28  N   UNK N   1      36.184  10.919  16.619  0.00  0.00    -0.297 N 
HETATM   29  C   UNK N   1      36.825   9.722  16.500  0.00  0.00     0.188 A 
HETATM   30  N   UNK N   1      36.942   9.098  17.709  0.00  0.00    -0.346 N 
HETATM   31  C   UNK N   1      36.397   9.968  18.586  0.00  0.00     0.130 A 
ATOM     32  HN  UNK N   1      37.346   8.182  17.905  1.00  0.00     0.167 HD
HETATM   33  C   UNK N   1      35.937  11.038  17.925  0.00  0.00     0.157 A 
HETATM   34  C   UNK N   1      36.349   9.935  19.971  0.00  0.00     0.186 A 
HETATM   35  N   UNK N   1      35.394  12.108  18.560  0.00  0.00    -0.174 N 
HETATM   36  C   UNK N   1      35.295  12.074  19.917  0.00  0.00     0.679 A 
HETATM   37  H   UNK N   1      35.080  12.890  18.052  0.00  0.00     0.186 HD
HETATM   38  N   UNK N   1      34.766  13.061  20.536  0.00  0.00    -0.234 N 
HETATM   39  N   UNK N   1      35.782  11.002  20.620  0.00  0.00    -0.168 N 
HETATM   40  H   UNK N   1      34.471  13.857  20.037  0.00  0.00     0.174 HD
ATOM     41  HN  UNK N   1      34.648  13.023  21.549  1.00  0.00     0.174 HD
ATOM     42  HN  UNK N   1      35.721  10.998  21.639  1.00  0.00     0.186 HD
BRANCH  34  43
HETATM   43  O   UNK N   1      36.880   8.919  20.669  0.00  0.00    -0.344 OA
HETATM   44  H   UNK N   1      37.782   8.691  20.554  0.00  0.00     0.219 HD
ENDBRANCH  34  43
ENDBRANCH   4  28
TORSDOF 15
ENDMDL
MODEL 2
REMARK VINA RESULT:      -6.9      1.640      2.176
REMARK  15 active torsions:
REMARK  status: ('A' for Active; 'I' for Inactive)
REMARK    1  A    between atoms: C_4  and  C_1 
REMARK    2  A    between atoms: O_30  and  C_1 
REMARK    3  A    between atoms: P_33  and  C_3 
REMARK    4  A    between atoms: P_34  and  C_3 
REMARK    5  A    between atoms: C_6  and  O_20 
REMARK    6  A    between atoms: C_7  and  O_21 
REMARK    7  A    between atoms: O_22  and  C_9 
REMARK    8  A    between atoms: C_10  and  N_19 
REMARK       I    between atoms: N_12  and  C_11 
REMARK    9  A    between atoms: P_33  and  O_23 
REMARK   10  A    between atoms: P_33  and  O_24 
REMARK   11  A    between atoms: P_34  and  O_26 
REMARK   12  A    between atoms: P_35  and  O_28 
REMARK   13  A    between atoms: P_35  and  O_30 
REMARK   14  A    between atoms: P_34  and  O_32 
REMARK   15  A    between atoms: P_35  and  O_32 
ROOT
HETATM    1  C   UNK N   1      35.116  13.098  13.173  0.00  0.00     0.180 C 
HETATM    2  C   UNK N   1      36.326  12.193  12.927  0.00  0.00     0.182 C 
HETATM    3  C   UNK N   1      36.272  11.245  14.122  0.00  0.00     0.198 C 
HETATM    4  C   UNK N   1      34.969  11.672  14.789  0.00  0.00     0.262 C 
HETATM    5  O   UNK N   1      34.892  13.064  14.576  0.00  0.00    -0.353 OA
ENDROOT
BRANCH   1   6
HETATM    6  C   UNK N   1      35.331  14.462  12.549  0.00  0.00     0.215 C 
BRANCH   6   7
HETATM    7  O   UNK N   1      34.409  14.715  11.546  0.00  0.00    -0.294 OA
BRANCH   7   8
HETATM    8  P   UNK N   1      35.442  15.043  10.196  0.00  0.00     0.400 P 
HETATM    9  O   UNK N   1      34.984  13.585   9.933  0.00  0.00    -0.631 OA
BRANCH   8  10
HETATM   10  O   UNK N   1      34.429  16.425  10.466  0.00  0.00    -0.307 OA
HETATM   11  H   UNK N   1      33.926  16.530  11.288  0.00  0.00     0.222 HD
ENDBRANCH   8  10
BRANCH   8  12
HETATM   12  O   UNK N   1      34.492  15.303   8.730  0.00  0.00    -0.218 OA
BRANCH  12  13
HETATM   13  P   UNK N   1      32.724  15.531   8.847  0.00  0.00     0.258 P 
HETATM   14  O   UNK N   1      32.175  14.306   8.082  0.00  0.00    -0.653 OA
BRANCH  13  15
HETATM   15  C   UNK N   1      32.405  16.479   7.300  0.00  0.00     0.250 C 
BRANCH  15  16
HETATM   16  P   UNK N   1      33.885  17.166   6.495  0.00  0.00     0.247 P 
HETATM   17  O   UNK N   1      33.379  17.965   5.265  0.00  0.00    -0.653 OA
BRANCH  16  18
HETATM   18  O   UNK N   1      34.723  18.346   7.446  0.00  0.00    -0.329 OA
HETATM   19  H   UNK N   1      34.856  19.036   8.115  0.00  0.00     0.220 HD
ENDBRANCH  16  18
BRANCH  16  20
HETATM   20  O   UNK N   1      35.015  16.030   5.836  0.00  0.00    -0.329 OA
HETATM   21  H   UNK N   1      35.966  16.007   6.025  0.00  0.00     0.220 HD
ENDBRANCH  16  20
ENDBRANCH  15  16
ENDBRANCH  13  15
BRANCH  13  22
HETATM   22  O   UNK N   1      32.104  14.878  10.344  0.00  0.00    -0.328 OA
HETATM   23  H   UNK N   1      31.704  15.291  11.124  0.00  0.00     0.220 HD
ENDBRANCH  13  22
ENDBRANCH  12  13
ENDBRANCH   8  12
ENDBRANCH   7   8
ENDBRANCH   6   7
ENDBRANCH   1   6
BRANCH   2  24
HETATM   24  O   UNK N   1      37.519  12.930  12.958  0.00  0.00    -0.390 OA
HETATM   25  H   UNK N   1      38.112  13.553  13.409  0.00  0.00     0.210 HD
ENDBRANCH   2  24
BRANCH   3  26
HETATM   26  O   UNK N   1      37.339  11.491  14.997  0.00  0.00    -0.388 OA
HETATM   27  H   UNK N   1      38.121  11.796  15.483  0.00  0.00     0.210 HD
ENDBRANCH   3  26
BRANCH   4  28
HETATM   28  N   UNK N   1      34.793  11.230  16.174  0.00  0.00    -0.297 N 
HETATM   29  C   UNK N   1      34.908   9.963  16.663  0.00  0.00     0.188 A 
HETATM   30  N   UNK N   1      35.108   9.968  18.014  0.00  0.00    -0.346 N 
HETATM   31  C   UNK N   1      35.163  11.277  18.337  0.00  0.00     0.130 A 
ATOM     32  HN  UNK N   1      35.194   9.165  18.637  1.00  0.00     0.167 HD
HETATM   33  C   UNK N   1      34.960  12.017  17.239  0.00  0.00     0.157 A 
HETATM   34  C   UNK N   1      35.474  11.893  19.540  0.00  0.00     0.186 A 
HETATM   35  N   UNK N   1      35.024  13.373  17.252  0.00  0.00    -0.174 N 
HETATM   36  C   UNK N   1      35.281  13.997  18.434  0.00  0.00     0.679 A 
HETATM   37  H   UNK N   1      34.888  13.893  16.427  0.00  0.00     0.186 HD
HETATM   38  N   UNK N   1      35.323  15.276  18.476  0.00  0.00    -0.234 N 
HETATM   39  N   UNK N   1      35.519  13.263  19.567  0.00  0.00    -0.168 N 
HETATM   40  H   UNK N   1      35.212  15.801  17.650  0.00  0.00     0.174 HD
ATOM     41  HN  UNK N   1      35.471  15.751  19.366  1.00  0.00     0.174 HD
ATOM     42  HN  UNK N   1      35.732  13.744  20.443  1.00  0.00     0.186 HD
BRANCH  34  43
HETATM   43  O   UNK N   1      35.770  11.181  20.638  0.00  0.00    -0.344 OA
HETATM   44  H   UNK N   1      36.253  11.576  21.338  0.00  0.00     0.219 HD
ENDBRANCH  34  43
ENDBRANCH   4  28
TORSDOF 15
ENDMDL
MODEL 3
REMARK VINA RESULT:      -6.8      8.298     12.238
REMARK  15 active torsions:
REMARK  status: ('A' for Active; 'I' for Inactive)
REMARK    1  A    between atoms: C_4  and  C_1 
REMARK    2  A    between atoms: O_30  and  C_1 
REMARK    3  A    between atoms: P_33  and  C_3 
REMARK    4  A    between atoms: P_34  and  C_3 
REMARK    5  A    between atoms: C_6  and  O_20 
REMARK    6  A    between atoms: C_7  and  O_21 
REMARK    7  A    between atoms: O_22  and  C_9 
REMARK    8  A    between atoms: C_10  and  N_19 
REMARK       I    between atoms: N_12  and  C_11 
REMARK    9  A    between atoms: P_33  and  O_23 
REMARK   10  A    between atoms: P_33  and  O_24 
REMARK   11  A    between atoms: P_34  and  O_26 
REMARK   12  A    between atoms: P_35  and  O_28 
REMARK   13  A    between atoms: P_35  and  O_30 
REMARK   14  A    between atoms: P_34  and  O_32 
REMARK   15  A    between atoms: P_35  and  O_32 
ROOT
HETATM    1  C   UNK N   1      29.040  17.821   6.857  0.00  0.00     0.180 C 
HETATM    2  C   UNK N   1      29.499  17.250   5.513  0.00  0.00     0.182 C 
HETATM    3  C   UNK N   1      30.879  16.693   5.851  0.00  0.00     0.198 C 
HETATM    4  C   UNK N   1      30.936  16.914   7.357  0.00  0.00     0.262 C 
HETATM    5  O   UNK N   1      30.231  18.118   7.573  0.00  0.00    -0.353 OA
ENDROOT
BRANCH   1   6
HETATM    6  C   UNK N   1      28.067  18.964   6.650  0.00  0.00     0.215 C 
BRANCH   6   7
HETATM    7  O   UNK N   1      27.020  18.598   5.820  0.00  0.00    -0.294 OA
BRANCH   7   8
HETATM    8  P   UNK N   1      26.692  20.084   4.994  0.00  0.00     0.400 P 
HETATM    9  O   UNK N   1      26.471  19.019   3.888  0.00  0.00    -0.631 OA
BRANCH   8  10
HETATM   10  O   UNK N   1      25.940  20.141   6.555  0.00  0.00    -0.307 OA
HETATM   11  H   UNK N   1      25.946  19.374   7.149  0.00  0.00     0.222 HD
ENDBRANCH   8  10
BRANCH   8  12
HETATM   12  O   UNK N   1      24.956  20.290   4.743  0.00  0.00    -0.218 OA
BRANCH  12  13
HETATM   13  P   UNK N   1      24.282  20.213   3.090  0.00  0.00     0.258 P 
HETATM   14  O   UNK N   1      23.428  21.498   3.013  0.00  0.00    -0.653 OA
BRANCH  13  15
HETATM   15  C   UNK N   1      22.698  19.332   3.414  0.00  0.00     0.250 C 
BRANCH  15  16
HETATM   16  P   UNK N   1      21.245  20.008   2.553  0.00  0.00     0.247 P 
HETATM   17  O   UNK N   1      20.215  18.852   2.464  0.00  0.00    -0.653 OA
BRANCH  16  18
HETATM   18  O   UNK N   1      20.413  21.244   3.435  0.00  0.00    -0.329 OA
HETATM   19  H   UNK N   1      20.082  22.130   3.652  0.00  0.00     0.220 HD
ENDBRANCH  16  18
BRANCH  16  20
HETATM   20  O   UNK N   1      21.474  20.509   0.910  0.00  0.00    -0.329 OA
HETATM   21  H   UNK N   1      20.893  20.285   0.166  0.00  0.00     0.220 HD
ENDBRANCH  16  20
ENDBRANCH  15  16
ENDBRANCH  13  15
BRANCH  13  22
HETATM   22  O   UNK N   1      25.399  20.881   1.925  0.00  0.00    -0.328 OA
HETATM   23  H   UNK N   1      26.068  20.478   1.350  0.00  0.00     0.220 HD
ENDBRANCH  13  22
ENDBRANCH  12  13
ENDBRANCH   8  12
ENDBRANCH   7   8
ENDBRANCH   6   7
ENDBRANCH   1   6
BRANCH   2  24
HETATM   24  O   UNK N   1      29.618  18.264   4.550  0.00  0.00    -0.390 OA
HETATM   25  H   UNK N   1      29.209  18.861   3.903  0.00  0.00     0.210 HD
ENDBRANCH   2  24
BRANCH   3  26
HETATM   26  O   UNK N   1      31.883  17.453   5.234  0.00  0.00    -0.388 OA
HETATM   27  H   UNK N   1      32.465  18.121   4.840  0.00  0.00     0.210 HD
ENDBRANCH   3  26
BRANCH   4  28
HETATM   28  N   UNK N   1      32.270  16.843   7.958  0.00  0.00    -0.297 N 
HETATM   29  C   UNK N   1      33.013  17.872   8.455  0.00  0.00     0.188 A 
HETATM   30  N   UNK N   1      33.980  17.420   9.306  0.00  0.00    -0.346 N 
HETATM   31  C   UNK N   1      33.781  16.086   9.358  0.00  0.00     0.130 A 
ATOM     32  HN  UNK N   1      34.693  17.966   9.791  1.00  0.00     0.167 HD
HETATM   33  C   UNK N   1      32.772  15.753   8.542  0.00  0.00     0.157 A 
HETATM   34  C   UNK N   1      34.375  15.119  10.156  0.00  0.00     0.186 A 
HETATM   35  N   UNK N   1      32.307  14.482   8.440  0.00  0.00    -0.174 N 
HETATM   36  C   UNK N   1      32.909  13.512   9.180  0.00  0.00     0.679 A 
HETATM   37  H   UNK N   1      31.552  14.268   7.845  0.00  0.00     0.186 HD
HETATM   38  N   UNK N   1      32.502  12.301   9.082  0.00  0.00    -0.234 N 
HETATM   39  N   UNK N   1      33.926  13.828  10.043  0.00  0.00    -0.168 N 
HETATM   40  H   UNK N   1      31.732  12.083   8.508  0.00  0.00     0.174 HD
ATOM     41  HN  UNK N   1      32.977  11.562   9.600  1.00  0.00     0.174 HD
ATOM     42  HN  UNK N   1      34.354  13.094  10.607  1.00  0.00     0.186 HD
BRANCH  34  43
HETATM   43  O   UNK N   1      35.327  15.432  11.048  0.00  0.00    -0.344 OA
HETATM   44  H   UNK N   1      35.357  14.994  11.876  0.00  0.00     0.219 HD
ENDBRANCH  34  43
ENDBRANCH   4  28
TORSDOF 15
ENDMDL
MODEL 4
REMARK VINA RESULT:      -6.7      3.482      5.764
REMARK  15 active torsions:
REMARK  status: ('A' for Active; 'I' for Inactive)
REMARK    1  A    between atoms: C_4  and  C_1 
REMARK    2  A    between atoms: O_30  and  C_1 
REMARK    3  A    between atoms: P_33  and  C_3 
REMARK    4  A    between atoms: P_34  and  C_3 
REMARK    5  A    between atoms: C_6  and  O_20 
REMARK    6  A    between atoms: C_7  and  O_21 
REMARK    7  A    between atoms: O_22  and  C_9 
REMARK    8  A    between atoms: C_10  and  N_19 
REMARK       I    between atoms: N_12  and  C_11 
REMARK    9  A    between atoms: P_33  and  O_23 
REMARK   10  A    between atoms: P_33  and  O_24 
REMARK   11  A    between atoms: P_34  and  O_26 
REMARK   12  A    between atoms: P_35  and  O_28 
REMARK   13  A    between atoms: P_35  and  O_30 
REMARK   14  A    between atoms: P_34  and  O_32 
REMARK   15  A    between atoms: P_35  and  O_32 
ROOT
HETATM    1  C   UNK N   1      35.141  15.108   8.568  0.00  0.00     0.180 C 
HETATM    2  C   UNK N   1      34.492  16.136   9.498  0.00  0.00     0.182 C 
HETATM    3  C   UNK N   1      34.633  15.473  10.865  0.00  0.00     0.198 C 
HETATM    4  C   UNK N   1      35.455  14.237  10.520  0.00  0.00     0.262 C 
HETATM    5  O   UNK N   1      35.016  13.859   9.233  0.00  0.00    -0.353 OA
ENDROOT
BRANCH   1   6
HETATM    6  C   UNK N   1      34.554  15.199   7.174  0.00  0.00     0.215 C 
BRANCH   6   7
HETATM    7  O   UNK N   1      34.980  16.342   6.516  0.00  0.00    -0.294 OA
BRANCH   7   8
HETATM    8  P   UNK N   1      33.545  16.813   5.669  0.00  0.00     0.400 P 
HETATM    9  O   UNK N   1      33.201  15.383   6.161  0.00  0.00    -0.631 OA
BRANCH   8  10
HETATM   10  O   UNK N   1      34.082  18.150   6.634  0.00  0.00    -0.307 OA
HETATM   11  H   UNK N   1      34.998  18.467   6.595  0.00  0.00     0.222 HD
ENDBRANCH   8  10
BRANCH   8  12
HETATM   12  O   UNK N   1      32.250  17.206   6.804  0.00  0.00    -0.218 OA
BRANCH  12  13
HETATM   13  P   UNK N   1      30.580  16.668   6.466  0.00  0.00     0.258 P 
HETATM   14  O   UNK N   1      30.237  17.426   5.165  0.00  0.00    -0.653 OA
BRANCH  13  15
HETATM   15  C   UNK N   1      29.623  17.981   7.334  0.00  0.00     0.250 C 
BRANCH  15  16
HETATM   16  P   UNK N   1      29.329  17.683   9.104  0.00  0.00     0.247 P 
HETATM   17  O   UNK N   1      29.698  19.001   9.834  0.00  0.00    -0.653 OA
BRANCH  16  18
HETATM   18  O   UNK N   1      27.664  17.432   9.511  0.00  0.00    -0.329 OA
HETATM   19  H   UNK N   1      26.887  17.007   9.906  0.00  0.00     0.220 HD
ENDBRANCH  16  18
BRANCH  16  20
HETATM   20  O   UNK N   1      30.310  16.477   9.868  0.00  0.00    -0.329 OA
HETATM   21  H   UNK N   1      30.884  15.844   9.408  0.00  0.00     0.220 HD
ENDBRANCH  16  20
ENDBRANCH  15  16
ENDBRANCH  13  15
BRANCH  13  22
HETATM   22  O   UNK N   1      30.572  15.156   5.592  0.00  0.00    -0.328 OA
HETATM   23  H   UNK N   1      30.369  14.245   5.856  0.00  0.00     0.220 HD
ENDBRANCH  13  22
ENDBRANCH  12  13
ENDBRANCH   8  12
ENDBRANCH   7   8
ENDBRANCH   6   7
ENDBRANCH   1   6
BRANCH   2  24
HETATM   24  O   UNK N   1      33.134  16.306   9.189  0.00  0.00    -0.390 OA
HETATM   25  H   UNK N   1      32.318  16.829   9.246  0.00  0.00     0.210 HD
ENDBRANCH   2  24
BRANCH   3  26
HETATM   26  O   UNK N   1      33.381  15.074  11.352  0.00  0.00    -0.388 OA
HETATM   27  H   UNK N   1      32.520  14.675  11.552  0.00  0.00     0.210 HD
ENDBRANCH   3  26
BRANCH   4  28
HETATM   28  N   UNK N   1      35.455  13.176  11.529  0.00  0.00    -0.297 N 
HETATM   29  C   UNK N   1      35.376  11.831  11.320  0.00  0.00     0.188 A 
HETATM   30  N   UNK N   1      35.829  11.132  12.402  0.00  0.00    -0.346 N 
HETATM   31  C   UNK N   1      36.237  12.085  13.266  0.00  0.00     0.130 A 
ATOM     32  HN  UNK N   1      35.852  10.120  12.529  1.00  0.00     0.167 HD
HETATM   33  C   UNK N   1      35.996  13.295  12.743  0.00  0.00     0.157 A 
HETATM   34  C   UNK N   1      36.904  11.974  14.477  0.00  0.00     0.186 A 
HETATM   35  N   UNK N   1      36.364  14.444  13.365  0.00  0.00    -0.174 N 
HETATM   36  C   UNK N   1      36.977  14.356  14.577  0.00  0.00     0.679 A 
HETATM   37  H   UNK N   1      36.191  15.320  12.951  0.00  0.00     0.186 HD
HETATM   38  N   UNK N   1      37.311  15.427  15.194  0.00  0.00    -0.234 N 
HETATM   39  N   UNK N   1      37.259  13.130  15.123  0.00  0.00    -0.168 N 
HETATM   40  H   UNK N   1      37.164  16.305  14.775  0.00  0.00     0.174 HD
ATOM     41  HN  UNK N   1      37.731  15.369  16.122  1.00  0.00     0.174 HD
ATOM     42  HN  UNK N   1      37.738  13.078  16.023  1.00  0.00     0.186 HD
BRANCH  34  43
HETATM   43  O   UNK N   1      37.240  10.780  14.987  0.00  0.00    -0.344 OA
HETATM   44  H   UNK N   1      36.585  10.120  15.110  0.00  0.00     0.219 HD
ENDBRANCH  34  43
ENDBRANCH   4  28
TORSDOF 15
ENDMDL
MODEL 5
REMARK VINA RESULT:      -6.6      7.702     12.206
REMARK  15 active torsions:
REMARK  status: ('A' for Active; 'I' for Inactive)
REMARK    1  A    between atoms: C_4  and  C_1 
REMARK    2  A    between atoms: O_30  and  C_1 
REMARK    3  A    between atoms: P_33  and  C_3 
REMARK    4  A    between atoms: P_34  and  C_3 
REMARK    5  A    between atoms: C_6  and  O_20 
REMARK    6  A    between atoms: C_7  and  O_21 
REMARK    7  A    between atoms: O_22  and  C_9 
REMARK    8  A    between atoms: C_10  and  N_19 
REMARK       I    between atoms: N_12  and  C_11 
REMARK    9  A    between atoms: P_33  and  O_23 
REMARK   10  A    between atoms: P_33  and  O_24 
REMARK   11  A    between atoms: P_34  and  O_26 
REMARK   12  A    between atoms: P_35  and  O_28 
REMARK   13  A    between atoms: P_35  and  O_30 
REMARK   14  A    between atoms: P_34  and  O_32 
REMARK   15  A    between atoms: P_35  and  O_32 
ROOT
HETATM    1  C   UNK N   1      31.976  16.696   5.451  0.00  0.00     0.180 C 
HETATM    2  C   UNK N   1      31.079  15.757   4.640  0.00  0.00     0.182 C 
HETATM    3  C   UNK N   1      29.682  16.269   4.978  0.00  0.00     0.198 C 
HETATM    4  C   UNK N   1      30.004  17.498   5.820  0.00  0.00     0.262 C 
HETATM    5  O   UNK N   1      31.173  17.153   6.531  0.00  0.00    -0.353 OA
ENDROOT
BRANCH   1   6
HETATM    6  C   UNK N   1      33.280  16.014   5.812  0.00  0.00     0.215 C 
BRANCH   6   7
HETATM    7  O   UNK N   1      33.202  15.386   7.045  0.00  0.00    -0.294 OA
BRANCH   7   8
HETATM    8  P   UNK N   1      34.793  14.722   7.201  0.00  0.00     0.400 P 
HETATM    9  O   UNK N   1      35.072  16.199   6.817  0.00  0.00    -0.631 OA
BRANCH   8  10
HETATM   10  O   UNK N   1      33.824  14.149   8.519  0.00  0.00    -0.307 OA
HETATM   11  H   UNK N   1      32.857  14.104   8.455  0.00  0.00     0.222 HD
ENDBRANCH   8  10
BRANCH   8  12
HETATM   12  O   UNK N   1      35.555  15.266   8.698  0.00  0.00    -0.218 OA
BRANCH  12  13
HETATM   13  P   UNK N   1      34.609  16.214   9.882  0.00  0.00     0.258 P 
HETATM   14  O   UNK N   1      35.337  17.576   9.881  0.00  0.00    -0.653 OA
BRANCH  13  15
HETATM   15  C   UNK N   1      35.549  15.857  11.425  0.00  0.00     0.250 C 
BRANCH  15  16
HETATM   16  P   UNK N   1      35.743  14.092  11.821  0.00  0.00     0.247 P 
HETATM   17  O   UNK N   1      34.898  13.836  13.096  0.00  0.00    -0.653 OA
BRANCH  16  18
HETATM   18  O   UNK N   1      35.058  13.023  10.643  0.00  0.00    -0.329 OA
HETATM   19  H   UNK N   1      34.402  12.664  10.025  0.00  0.00     0.220 HD
ENDBRANCH  16  18
BRANCH  16  20
HETATM   20  O   UNK N   1      37.336  13.557  12.245  0.00  0.00    -0.329 OA
HETATM   21  H   UNK N   1      37.616  12.632  12.329  0.00  0.00     0.220 HD
ENDBRANCH  16  20
ENDBRANCH  15  16
ENDBRANCH  13  15
BRANCH  13  22
HETATM   22  O   UNK N   1      33.218  16.953   9.126  0.00  0.00    -0.328 OA
HETATM   23  H   UNK N   1      32.376  16.593   8.807  0.00  0.00     0.220 HD
ENDBRANCH  13  22
ENDBRANCH  12  13
ENDBRANCH   8  12
ENDBRANCH   7   8
ENDBRANCH   6   7
ENDBRANCH   1   6
BRANCH   2  24
HETATM   24  O   UNK N   1      31.218  14.430   5.075  0.00  0.00    -0.390 OA
HETATM   25  H   UNK N   1      31.716  13.597   5.087  0.00  0.00     0.210 HD
ENDBRANCH   2  24
BRANCH   3  26
HETATM   26  O   UNK N   1      28.991  15.338   5.766  0.00  0.00    -0.388 OA
HETATM   27  H   UNK N   1      28.471  14.839   6.415  0.00  0.00     0.210 HD
ENDBRANCH   3  26
BRANCH   4  28
HETATM   28  N   UNK N   1      28.899  18.018   6.628  0.00  0.00    -0.297 N 
HETATM   29  C   UNK N   1      28.831  18.100   7.987  0.00  0.00     0.188 A 
HETATM   30  N   UNK N   1      27.888  19.003   8.385  0.00  0.00    -0.346 N 
HETATM   31  C   UNK N   1      27.410  19.514   7.230  0.00  0.00     0.130 A 
ATOM     32  HN  UNK N   1      27.606  19.237   9.337  1.00  0.00     0.167 HD
HETATM   33  C   UNK N   1      28.008  18.911   6.194  0.00  0.00     0.157 A 
HETATM   34  C   UNK N   1      26.528  20.561   7.008  0.00  0.00     0.186 A 
HETATM   35  N   UNK N   1      27.770  19.270   4.907  0.00  0.00    -0.174 N 
HETATM   36  C   UNK N   1      26.871  20.263   4.667  0.00  0.00     0.679 A 
HETATM   37  H   UNK N   1      28.236  18.823   4.164  0.00  0.00     0.186 HD
HETATM   38  N   UNK N   1      26.613  20.603   3.460  0.00  0.00    -0.234 N 
HETATM   39  N   UNK N   1      26.265  20.915   5.710  0.00  0.00    -0.168 N 
HETATM   40  H   UNK N   1      27.093  20.177   2.713  0.00  0.00     0.174 HD
ATOM     41  HN  UNK N   1      25.909  21.316   3.272  1.00  0.00     0.174 HD
ATOM     42  HN  UNK N   1      25.609  21.673   5.517  1.00  0.00     0.186 HD
BRANCH  34  43
HETATM   43  O   UNK N   1      25.979  21.245   8.024  0.00  0.00    -0.344 OA
HETATM   44  H   UNK N   1      26.201  21.031   8.909  0.00  0.00     0.219 HD
ENDBRANCH  34  43
ENDBRANCH   4  28
TORSDOF 15
ENDMDL
MODEL 6
REMARK VINA RESULT:      -6.5      2.899      5.013
REMARK  15 active torsions:
REMARK  status: ('A' for Active; 'I' for Inactive)
REMARK    1  A    between atoms: C_4  and  C_1 
REMARK    2  A    between atoms: O_30  and  C_1 
REMARK    3  A    between atoms: P_33  and  C_3 
REMARK    4  A    between atoms: P_34  and  C_3 
REMARK    5  A    between atoms: C_6  and  O_20 
REMARK    6  A    between atoms: C_7  and  O_21 
REMARK    7  A    between atoms: O_22  and  C_9 
REMARK    8  A    between atoms: C_10  and  N_19 
REMARK       I    between atoms: N_12  and  C_11 
REMARK    9  A    between atoms: P_33  and  O_23 
REMARK   10  A    between atoms: P_33  and  O_24 
REMARK   11  A    between atoms: P_34  and  O_26 
REMARK   12  A    between atoms: P_35  and  O_28 
REMARK   13  A    between atoms: P_35  and  O_30 
REMARK   14  A    between atoms: P_34  and  O_32 
REMARK   15  A    between atoms: P_35  and  O_32 
ROOT
HETATM    1  C   UNK N   1      35.056  15.590  10.662  0.00  0.00     0.180 C 
HETATM    2  C   UNK N   1      35.880  14.470  10.024  0.00  0.00     0.182 C 
HETATM    3  C   UNK N   1      36.349  13.677  11.240  0.00  0.00     0.198 C 
HETATM    4  C   UNK N   1      35.612  14.389  12.369  0.00  0.00     0.262 C 
HETATM    5  O   UNK N   1      35.573  15.744  11.977  0.00  0.00    -0.353 OA
ENDROOT
BRANCH   1   6
HETATM    6  C   UNK N   1      35.055  16.824   9.782  0.00  0.00     0.215 C 
BRANCH   6   7
HETATM    7  O   UNK N   1      34.573  16.544   8.513  0.00  0.00    -0.294 OA
BRANCH   7   8
HETATM    8  P   UNK N   1      33.862  18.059   8.067  0.00  0.00     0.400 P 
HETATM    9  O   UNK N   1      34.560  17.607   6.758  0.00  0.00    -0.631 OA
BRANCH   8  10
HETATM   10  O   UNK N   1      32.710  17.161   9.002  0.00  0.00    -0.307 OA
HETATM   11  H   UNK N   1      32.931  16.297   9.384  0.00  0.00     0.222 HD
ENDBRANCH   8  10
BRANCH   8  12
HETATM   12  O   UNK N   1      32.436  17.807   7.057  0.00  0.00    -0.218 OA
BRANCH  12  13
HETATM   13  P   UNK N   1      31.371  16.404   7.358  0.00  0.00     0.258 P 
HETATM   14  O   UNK N   1      30.894  16.032   5.937  0.00  0.00    -0.653 OA
BRANCH  13  15
HETATM   15  C   UNK N   1      29.746  17.251   7.543  0.00  0.00     0.250 C 
BRANCH  15  16
HETATM   16  P   UNK N   1      29.314  17.734   9.243  0.00  0.00     0.247 P 
HETATM   17  O   UNK N   1      30.078  19.053   9.528  0.00  0.00    -0.653 OA
BRANCH  16  18
HETATM   18  O   UNK N   1      27.649  18.161   9.454  0.00  0.00    -0.329 OA
HETATM   19  H   UNK N   1      26.684  18.082   9.398  0.00  0.00     0.220 HD
ENDBRANCH  16  18
BRANCH  16  20
HETATM   20  O   UNK N   1      29.812  16.663  10.510  0.00  0.00    -0.329 OA
HETATM   21  H   UNK N   1      29.758  15.695  10.483  0.00  0.00     0.220 HD
ENDBRANCH  16  20
ENDBRANCH  15  16
ENDBRANCH  13  15
BRANCH  13  22
HETATM   22  O   UNK N   1      32.293  14.923   7.441  0.00  0.00    -0.328 OA
HETATM   23  H   UNK N   1      33.204  14.702   7.194  0.00  0.00     0.220 HD
ENDBRANCH  13  22
ENDBRANCH  12  13
ENDBRANCH   8  12
ENDBRANCH   7   8
ENDBRANCH   6   7
ENDBRANCH   1   6
BRANCH   2  24
HETATM   24  O   UNK N   1      36.989  14.989   9.338  0.00  0.00    -0.390 OA
HETATM   25  H   UNK N   1      37.802  14.850   8.825  0.00  0.00     0.210 HD
ENDBRANCH   2  24
BRANCH   3  26
HETATM   26  O   UNK N   1      37.731  13.825  11.425  0.00  0.00    -0.388 OA
HETATM   27  H   UNK N   1      38.678  14.030  11.400  0.00  0.00     0.210 HD
ENDBRANCH   3  26
BRANCH   4  28
HETATM   28  N   UNK N   1      36.122  14.132  13.718  0.00  0.00    -0.297 N 
HETATM   29  C   UNK N   1      36.775  15.003  14.538  0.00  0.00     0.188 A 
HETATM   30  N   UNK N   1      36.723  14.594  15.840  0.00  0.00    -0.346 N 
HETATM   31  C   UNK N   1      35.974  13.472  15.805  0.00  0.00     0.130 A 
ATOM     32  HN  UNK N   1      37.152  15.036  16.652  1.00  0.00     0.167 HD
HETATM   33  C   UNK N   1      35.636  13.199  14.538  0.00  0.00     0.157 A 
HETATM   34  C   UNK N   1      35.476  12.692  16.839  0.00  0.00     0.186 A 
HETATM   35  N   UNK N   1      34.827  12.160  14.208  0.00  0.00    -0.174 N 
HETATM   36  C   UNK N   1      34.368  11.355  15.204  0.00  0.00     0.679 A 
HETATM   37  H   UNK N   1      34.580  11.992  13.270  0.00  0.00     0.186 HD
HETATM   38  N   UNK N   1      33.623  10.355  14.914  0.00  0.00    -0.234 N 
HETATM   39  N   UNK N   1      34.677  11.627  16.512  0.00  0.00    -0.168 N 
HETATM   40  H   UNK N   1      33.351  10.195  13.981  0.00  0.00     0.174 HD
ATOM     41  HN  UNK N   1      33.311   9.723  15.651  1.00  0.00     0.174 HD
ATOM     42  HN  UNK N   1      34.308  11.027  17.252  1.00  0.00     0.186 HD
BRANCH  34  43
HETATM   43  O   UNK N   1      35.722  12.988  18.124  0.00  0.00    -0.344 OA
HETATM   44  H   UNK N   1      36.506  12.679  18.536  0.00  0.00     0.219 HD
ENDBRANCH  34  43
ENDBRANCH   4  28
TORSDOF 15
ENDMDL
MODEL 7
REMARK VINA RESULT:      -6.2      6.588     10.970
REMARK  15 active torsions:
REMARK  status: ('A' for Active; 'I' for Inactive)
REMARK    1  A    between atoms: C_4  and  C_1 
REMARK    2  A    between atoms: O_30  and  C_1 
REMARK    3  A    between atoms: P_33  and  C_3 
REMARK    4  A    between atoms: P_34  and  C_3 
REMARK    5  A    between atoms: C_6  and  O_20 
REMARK    6  A    between atoms: C_7  and  O_21 
REMARK    7  A    between atoms: O_22  and  C_9 
REMARK    8  A    between atoms: C_10  and  N_19 
REMARK       I    between atoms: N_12  and  C_11 
REMARK    9  A    between atoms: P_33  and  O_23 
REMARK   10  A    between atoms: P_33  and  O_24 
REMARK   11  A    between atoms: P_34  and  O_26 
REMARK   12  A    between atoms: P_35  and  O_28 
REMARK   13  A    between atoms: P_35  and  O_30 
REMARK   14  A    between atoms: P_34  and  O_32 
REMARK   15  A    between atoms: P_35  and  O_32 
ROOT
HETATM    1  C   UNK N   1      34.720  16.270   8.038  0.00  0.00     0.180 C 
HETATM    2  C   UNK N   1      34.478  14.823   7.600  0.00  0.00     0.182 C 
HETATM    3  C   UNK N   1      33.683  15.003   6.309  0.00  0.00     0.198 C 
HETATM    4  C   UNK N   1      33.711  16.517   6.144  0.00  0.00     0.262 C 
HETATM    5  O   UNK N   1      33.665  17.026   7.459  0.00  0.00    -0.353 OA
ENDROOT
BRANCH   1   6
HETATM    6  C   UNK N   1      34.874  16.356   9.543  0.00  0.00     0.215 C 
BRANCH   6   7
HETATM    7  O   UNK N   1      35.393  15.183  10.069  0.00  0.00    -0.294 OA
BRANCH   7   8
HETATM    8  P   UNK N   1      35.357  15.517  11.768  0.00  0.00     0.400 P 
HETATM    9  O   UNK N   1      34.627  14.152  11.670  0.00  0.00    -0.631 OA
BRANCH   8  10
HETATM   10  O   UNK N   1      36.934  15.906  11.161  0.00  0.00    -0.307 OA
HETATM   11  H   UNK N   1      37.078  16.664  10.574  0.00  0.00     0.222 HD
ENDBRANCH   8  10
BRANCH   8  12
HETATM   12  O   UNK N   1      36.523  14.509  12.629  0.00  0.00    -0.218 OA
BRANCH  12  13
HETATM   13  P   UNK N   1      35.981  12.998  13.414  0.00  0.00     0.258 P 
HETATM   14  O   UNK N   1      36.970  12.856  14.592  0.00  0.00    -0.653 OA
BRANCH  13  15
HETATM   15  C   UNK N   1      37.041  11.769  12.543  0.00  0.00     0.250 C 
BRANCH  15  16
HETATM   16  P   UNK N   1      37.580  12.256  10.875  0.00  0.00     0.247 P 
HETATM   17  O   UNK N   1      38.339  11.037  10.289  0.00  0.00    -0.653 OA
BRANCH  16  18
HETATM   18  O   UNK N   1      36.281  12.516   9.760  0.00  0.00    -0.329 OA
HETATM   19  H   UNK N   1      35.391  12.748   9.450  0.00  0.00     0.220 HD
ENDBRANCH  16  18
BRANCH  16  20
HETATM   20  O   UNK N   1      38.715  13.562  10.771  0.00  0.00    -0.329 OA
HETATM   21  H   UNK N   1      39.135  13.880   9.956  0.00  0.00     0.220 HD
ENDBRANCH  16  20
ENDBRANCH  15  16
ENDBRANCH  13  15
BRANCH  13  22
HETATM   22  O   UNK N   1      34.681  13.306  14.538  0.00  0.00    -0.328 OA
HETATM   23  H   UNK N   1      33.732  13.108  14.515  0.00  0.00     0.220 HD
ENDBRANCH  13  22
ENDBRANCH  12  13
ENDBRANCH   8  12
ENDBRANCH   7   8
ENDBRANCH   6   7
ENDBRANCH   1   6
BRANCH   2  24
HETATM   24  O   UNK N   1      33.701  14.135   8.544  0.00  0.00    -0.390 OA
HETATM   25  H   UNK N   1      33.120  14.143   9.322  0.00  0.00     0.210 HD
ENDBRANCH   2  24
BRANCH   3  26
HETATM   26  O   UNK N   1      32.358  14.581   6.482  0.00  0.00    -0.388 OA
HETATM   27  H   UNK N   1      31.490  14.266   6.777  0.00  0.00     0.210 HD
ENDBRANCH   3  26
BRANCH   4  28
HETATM   28  N   UNK N   1      32.723  17.071   5.214  0.00  0.00    -0.297 N 
HETATM   29  C   UNK N   1      32.774  17.072   3.852  0.00  0.00     0.188 A 
HETATM   30  N   UNK N   1      31.537  17.264   3.308  0.00  0.00    -0.346 N 
HETATM   31  C   UNK N   1      30.712  17.332   4.374  0.00  0.00     0.130 A 
ATOM     32  HN  UNK N   1      31.292  17.341   2.321  1.00  0.00     0.167 HD
HETATM   33  C   UNK N   1      31.430  17.230   5.501  0.00  0.00     0.157 A 
HETATM   34  C   UNK N   1      29.328  17.389   4.437  0.00  0.00     0.186 A 
HETATM   35  N   UNK N   1      30.855  17.202   6.730  0.00  0.00    -0.174 N 
HETATM   36  C   UNK N   1      29.501  17.305   6.814  0.00  0.00     0.679 A 
HETATM   37  H   UNK N   1      31.404  17.109   7.542  0.00  0.00     0.186 HD
HETATM   38  N   UNK N   1      28.938  17.304   7.964  0.00  0.00    -0.234 N 
HETATM   39  N   UNK N   1      28.740  17.383   5.676  0.00  0.00    -0.168 N 
HETATM   40  H   UNK N   1      29.478  17.187   8.779  0.00  0.00     0.174 HD
ATOM     41  HN  UNK N   1      27.928  17.425   8.036  1.00  0.00     0.174 HD
ATOM     42  HN  UNK N   1      27.724  17.439   5.753  1.00  0.00     0.186 HD
BRANCH  34  43
HETATM   43  O   UNK N   1      28.574  17.402   3.327  0.00  0.00    -0.344 OA
HETATM   44  H   UNK N   1      27.753  16.949   3.311  0.00  0.00     0.219 HD
ENDBRANCH  34  43
ENDBRANCH   4  28
TORSDOF 15
ENDMDL
MODEL 8
REMARK VINA RESULT:      -6.2     12.107     16.398
REMARK  15 active torsions:
REMARK  status: ('A' for Active; 'I' for Inactive)
REMARK    1  A    between atoms: C_4  and  C_1 
REMARK    2  A    between atoms: O_30  and  C_1 
REMARK    3  A    between atoms: P_33  and  C_3 
REMARK    4  A    between atoms: P_34  and  C_3 
REMARK    5  A    between atoms: C_6  and  O_20 
REMARK    6  A    between atoms: C_7  and  O_21 
REMARK    7  A    between atoms: O_22  and  C_9 
REMARK    8  A    between atoms: C_10  and  N_19 
REMARK       I    between atoms: N_12  and  C_11 
REMARK    9  A    between atoms: P_33  and  O_23 
REMARK   10  A    between atoms: P_33  and  O_24 
REMARK   11  A    between atoms: P_34  and  O_26 
REMARK   12  A    between atoms: P_35  and  O_28 
REMARK   13  A    between atoms: P_35  and  O_30 
REMARK   14  A    between atoms: P_34  and  O_32 
REMARK   15  A    between atoms: P_35  and  O_32 
ROOT
HETATM    1  C   UNK N   1      25.785  16.361   4.287  0.00  0.00     0.180 C 
HETATM    2  C   UNK N   1      24.672  15.847   5.204  0.00  0.00     0.182 C 
HETATM    3  C   UNK N   1      23.553  16.855   4.954  0.00  0.00     0.198 C 
HETATM    4  C   UNK N   1      24.154  17.704   3.840  0.00  0.00     0.262 C 
HETATM    5  O   UNK N   1      25.535  17.750   4.124  0.00  0.00    -0.353 OA
ENDROOT
BRANCH   1   6
HETATM    6  C   UNK N   1      27.146  15.972   4.827  0.00  0.00     0.215 C 
BRANCH   6   7
HETATM    7  O   UNK N   1      28.137  16.832   4.378  0.00  0.00    -0.294 OA
BRANCH   7   8
HETATM    8  P   UNK N   1      28.731  17.487   5.866  0.00  0.00     0.400 P 
HETATM    9  O   UNK N   1      28.695  15.963   6.151  0.00  0.00    -0.631 OA
BRANCH   8  10
HETATM   10  O   UNK N   1      29.530  18.287   4.551  0.00  0.00    -0.307 OA
HETATM   11  H   UNK N   1      30.336  18.809   4.691  0.00  0.00     0.222 HD
ENDBRANCH   8  10
BRANCH   8  12
HETATM   12  O   UNK N   1      30.464  17.188   6.034  0.00  0.00    -0.218 OA
BRANCH  12  13
HETATM   13  P   UNK N   1      31.424  16.706   4.605  0.00  0.00     0.258 P 
HETATM   14  O   UNK N   1      32.144  15.431   5.098  0.00  0.00    -0.653 OA
BRANCH  13  15
HETATM   15  C   UNK N   1      33.006  17.581   4.954  0.00  0.00     0.250 C 
BRANCH  15  16
HETATM   16  P   UNK N   1      33.909  16.995   6.420  0.00  0.00     0.247 P 
HETATM   17  O   UNK N   1      34.607  18.239   7.028  0.00  0.00    -0.653 OA
BRANCH  16  18
HETATM   18  O   UNK N   1      32.888  16.422   7.696  0.00  0.00    -0.329 OA
HETATM   19  H   UNK N   1      32.344  15.801   8.206  0.00  0.00     0.220 HD
ENDBRANCH  16  18
BRANCH  16  20
HETATM   20  O   UNK N   1      35.197  15.868   6.145  0.00  0.00    -0.329 OA
HETATM   21  H   UNK N   1      35.103  14.904   6.105  0.00  0.00     0.220 HD
ENDBRANCH  16  20
ENDBRANCH  15  16
ENDBRANCH  13  15
BRANCH  13  22
HETATM   22  O   UNK N   1      30.469  15.744   3.503  0.00  0.00    -0.328 OA
HETATM   23  H   UNK N   1      30.235  14.803   3.486  0.00  0.00     0.220 HD
ENDBRANCH  13  22
ENDBRANCH  12  13
ENDBRANCH   8  12
ENDBRANCH   7   8
ENDBRANCH   6   7
ENDBRANCH   1   6
BRANCH   2  24
HETATM   24  O   UNK N   1      25.066  15.897   6.550  0.00  0.00    -0.390 OA
HETATM   25  H   UNK N   1      25.602  15.554   7.283  0.00  0.00     0.210 HD
ENDBRANCH   2  24
BRANCH   3  26
HETATM   26  O   UNK N   1      23.348  17.656   6.086  0.00  0.00    -0.388 OA
HETATM   27  H   UNK N   1      23.378  18.160   6.914  0.00  0.00     0.210 HD
ENDBRANCH   3  26
BRANCH   4  28
HETATM   28  N   UNK N   1      23.508  19.000   3.615  0.00  0.00    -0.297 N 
HETATM   29  C   UNK N   1      24.110  20.190   3.334  0.00  0.00     0.188 A 
HETATM   30  N   UNK N   1      23.233  21.070   2.769  0.00  0.00    -0.346 N 
HETATM   31  C   UNK N   1      22.083  20.371   2.664  0.00  0.00     0.130 A 
ATOM     32  HN  UNK N   1      23.406  22.036   2.492  1.00  0.00     0.167 HD
HETATM   33  C   UNK N   1      22.255  19.148   3.183  0.00  0.00     0.157 A 
HETATM   34  C   UNK N   1      20.883  20.702   2.051  0.00  0.00     0.186 A 
HETATM   35  N   UNK N   1      21.282  18.202   3.156  0.00  0.00    -0.174 N 
HETATM   36  C   UNK N   1      20.082  18.524   2.600  0.00  0.00     0.679 A 
HETATM   37  H   UNK N   1      21.440  17.305   3.528  0.00  0.00     0.186 HD
HETATM   38  N   UNK N   1      19.141  17.656   2.584  0.00  0.00    -0.234 N 
HETATM   39  N   UNK N   1      19.887  19.759   2.038  0.00  0.00    -0.168 N 
HETATM   40  H   UNK N   1      19.299  16.749   2.933  0.00  0.00     0.174 HD
ATOM     41  HN  UNK N   1      18.225  17.905   2.210  1.00  0.00     0.174 HD
ATOM     42  HN  UNK N   1      18.989  19.981   1.606  1.00  0.00     0.186 HD
BRANCH  34  43
HETATM   43  O   UNK N   1      20.708  21.885   1.443  0.00  0.00    -0.344 OA
HETATM   44  H   UNK N   1      21.403  22.513   1.427  0.00  0.00     0.219 HD
ENDBRANCH  34  43
ENDBRANCH   4  28
TORSDOF 15
ENDMDL
MODEL 9
REMARK VINA RESULT:      -6.2     11.929     14.845
REMARK  15 active torsions:
REMARK  status: ('A' for Active; 'I' for Inactive)
REMARK    1  A    between atoms: C_4  and  C_1 
REMARK    2  A    between atoms: O_30  and  C_1 
REMARK    3  A    between atoms: P_33  and  C_3 
REMARK    4  A    between atoms: P_34  and  C_3 
REMARK    5  A    between atoms: C_6  and  O_20 
REMARK    6  A    between atoms: C_7  and  O_21 
REMARK    7  A    between atoms: O_22  and  C_9 
REMARK    8  A    between atoms: C_10  and  N_19 
REMARK       I    between atoms: N_12  and  C_11 
REMARK    9  A    between atoms: P_33  and  O_23 
REMARK   10  A    between atoms: P_33  and  O_24 
REMARK   11  A    between atoms: P_34  and  O_26 
REMARK   12  A    between atoms: P_35  and  O_28 
REMARK   13  A    between atoms: P_35  and  O_30 
REMARK   14  A    between atoms: P_34  and  O_32 
REMARK   15  A    between atoms: P_35  and  O_32 
ROOT
HETATM    1  C   UNK N   1      20.946  15.933   6.085  0.00  0.00     0.180 C 
HETATM    2  C   UNK N   1      20.130  14.702   5.681  0.00  0.00     0.182 C 
HETATM    3  C   UNK N   1      20.753  13.604   6.538  0.00  0.00     0.198 C 
HETATM    4  C   UNK N   1      21.733  14.402   7.389  0.00  0.00     0.262 C 
HETATM    5  O   UNK N   1      22.195  15.431   6.541  0.00  0.00    -0.353 OA
ENDROOT
BRANCH   1   6
HETATM    6  C   UNK N   1      20.989  16.941   4.954  0.00  0.00     0.215 C 
BRANCH   6   7
HETATM    7  O   UNK N   1      21.563  18.136   5.359  0.00  0.00    -0.294 OA
BRANCH   7   8
HETATM    8  P   UNK N   1      22.844  18.316   4.208  0.00  0.00     0.400 P 
HETATM    9  O   UNK N   1      22.001  19.600   3.990  0.00  0.00    -0.631 OA
BRANCH   8  10
HETATM   10  O   UNK N   1      23.519  17.749   5.701  0.00  0.00    -0.307 OA
HETATM   11  H   UNK N   1      23.994  16.906   5.754  0.00  0.00     0.222 HD
ENDBRANCH   8  10
BRANCH   8  12
HETATM   12  O   UNK N   1      24.013  19.521   4.756  0.00  0.00    -0.218 OA
BRANCH  12  13
HETATM   13  P   UNK N   1      25.093  20.314   3.573  0.00  0.00     0.258 P 
HETATM   14  O   UNK N   1      25.768  19.113   2.875  0.00  0.00    -0.653 OA
BRANCH  13  15
HETATM   15  C   UNK N   1      26.639  20.442   4.565  0.00  0.00     0.250 C 
BRANCH  15  16
HETATM   16  P   UNK N   1      27.390  18.854   5.038  0.00  0.00     0.247 P 
HETATM   17  O   UNK N   1      28.242  19.135   6.304  0.00  0.00    -0.653 OA
BRANCH  16  18
HETATM   18  O   UNK N   1      26.248  17.660   5.558  0.00  0.00    -0.329 OA
HETATM   19  H   UNK N   1      25.901  16.784   5.787  0.00  0.00     0.220 HD
ENDBRANCH  16  18
BRANCH  16  20
HETATM   20  O   UNK N   1      28.506  18.151   3.914  0.00  0.00    -0.329 OA
HETATM   21  H   UNK N   1      29.229  18.621   3.470  0.00  0.00     0.220 HD
ENDBRANCH  16  20
ENDBRANCH  15  16
ENDBRANCH  13  15
BRANCH  13  22
HETATM   22  O   UNK N   1      24.237  20.695   2.100  0.00  0.00    -0.328 OA
HETATM   23  H   UNK N   1      24.061  20.188   1.292  0.00  0.00     0.220 HD
ENDBRANCH  13  22
ENDBRANCH  12  13
ENDBRANCH   8  12
ENDBRANCH   7   8
ENDBRANCH   6   7
ENDBRANCH   1   6
BRANCH   2  24
HETATM   24  O   UNK N   1      20.309  14.404   4.322  0.00  0.00    -0.390 OA
HETATM   25  H   UNK N   1      20.115  14.586   3.388  0.00  0.00     0.210 HD
ENDBRANCH   2  24
BRANCH   3  26
HETATM   26  O   UNK N   1      21.466  12.698   5.740  0.00  0.00    -0.388 OA
HETATM   27  H   UNK N   1      21.811  12.080   5.078  0.00  0.00     0.210 HD
ENDBRANCH   3  26
BRANCH   4  28
HETATM   28  N   UNK N   1      22.773  13.618   8.060  0.00  0.00    -0.297 N 
HETATM   29  C   UNK N   1      24.123  13.729   7.911  0.00  0.00     0.188 A 
HETATM   30  N   UNK N   1      24.788  13.174   8.967  0.00  0.00    -0.346 N 
HETATM   31  C   UNK N   1      23.806  12.762   9.797  0.00  0.00     0.130 A 
ATOM     32  HN  UNK N   1      25.795  13.089   9.098  1.00  0.00     0.167 HD
HETATM   33  C   UNK N   1      22.615  13.017   9.241  0.00  0.00     0.157 A 
HETATM   34  C   UNK N   1      23.875  12.242  11.081  0.00  0.00     0.186 A 
HETATM   35  N   UNK N   1      21.444  12.766   9.881  0.00  0.00    -0.174 N 
HETATM   36  C   UNK N   1      21.491  12.212  11.123  0.00  0.00     0.679 A 
HETATM   37  H   UNK N   1      20.581  12.980   9.457  0.00  0.00     0.186 HD
HETATM   38  N   UNK N   1      20.399  11.945  11.736  0.00  0.00    -0.234 N 
HETATM   39  N   UNK N   1      22.697  11.965  11.726  0.00  0.00    -0.168 N 
HETATM   40  H   UNK N   1      19.533  12.179  11.329  0.00  0.00     0.174 HD
ATOM     41  HN  UNK N   1      20.426  11.490  12.648  1.00  0.00     0.174 HD
ATOM     42  HN  UNK N   1      22.718  11.569  12.667  1.00  0.00     0.186 HD
BRANCH  34  43
HETATM   43  O   UNK N   1      25.050  12.057  11.702  0.00  0.00    -0.344 OA
HETATM   44  H   UNK N   1      25.194  12.420  12.554  0.00  0.00     0.219 HD
ENDBRANCH  34  43
ENDBRANCH   4  28
TORSDOF 15
ENDMDL
