MODEL 1
REMARK VINA RESULT:      -6.3      0.000      0.000
REMARK  11 active torsions:
REMARK  status: ('A' for Active; 'I' for Inactive)
REMARK    1  A    between atoms: C_4  and  C_3 
REMARK    2  A    between atoms: C_5  and  C_3 
REMARK    3  A    between atoms: C_6  and  C_4 
REMARK    4  A    between atoms: C_7  and  C_5 
REMARK    5  A    between atoms: C_12  and  C_6 
REMARK    6  A    between atoms: C_6  and  N_15 
REMARK    7  A    between atoms: C_7  and  O_19 
REMARK    8  A    between atoms: C_8  and  N_16 
REMARK    9  A    between atoms: C_9  and  C_13 
REMARK   10  A    between atoms: O_22  and  C_12 
REMARK   11  A    between atoms: O_24  and  C_13 
ROOT
HETATM    1  C   UNK N   1      27.827  19.561   7.070  0.00  0.00     0.111 C 
HETATM    2  N   UNK N   1      28.440  18.623   6.439  0.00  0.00    -0.359 N 
ATOM      3  HN  UNK N   1      28.648  18.766   5.450  1.00  0.00     0.162 HD
ENDROOT
BRANCH   2   4
HETATM    4  C   UNK N   1      28.855  17.373   7.049  0.00  0.00     0.209 A 
HETATM    5  C   UNK N   1      30.001  17.469   7.980  0.00  0.00     0.247 A 
HETATM    6  N   UNK N   1      30.760  16.600   7.400  0.00  0.00    -0.318 N 
HETATM    7  O   UNK N   1      30.193  18.061   9.037  0.00  0.00    -0.271 OA
HETATM    8  C   UNK N   1      32.032  15.965   7.465  0.00  0.00     0.204 C 
HETATM    9  C   UNK N   1      29.901  16.331   6.314  0.00  0.00     0.183 A 
HETATM   10  C   UNK N   1      32.560  16.133   6.009  0.00  0.00     0.033 C 
HETATM   11  C   UNK N   1      33.219  14.841   5.543  0.00  0.00     0.029 C 
HETATM   12  C   UNK N   1      33.540  17.280   5.835  0.00  0.00     0.029 C 
HETATM   13  S   UNK N   1      31.087  16.576   4.939  0.00  0.00    -0.129 SA
BRANCH   8  14
HETATM   14  C   UNK N   1      32.914  16.387   8.623  0.00  0.00     0.165 C 
HETATM   15  O   UNK N   1      33.546  15.562   9.265  0.00  0.00    -0.648 OA
BRANCH  14  16
HETATM   16  O   UNK N   1      32.952  17.678   8.998  0.00  0.00    -0.775 OA
HETATM   17  H   UNK N   1      33.140  17.918   9.883  0.00  0.00     0.167 HD
ENDBRANCH  14  16
ENDBRANCH   8  14
ENDBRANCH   2   4
BRANCH   1  18
HETATM   18  C   UNK N   1      27.695  20.917   6.445  0.00  0.00     0.083 C 
BRANCH  18  19
HETATM   19  C   UNK N   1      26.368  21.028   5.671  0.00  0.00     0.010 C 
BRANCH  19  20
HETATM   20  C   UNK N   1      26.466  20.441   4.256  0.00  0.00     0.036 C 
BRANCH  20  21
HETATM   21  C   UNK N   1      25.331  19.469   3.942  0.00  0.00     0.173 C 
BRANCH  21  22
HETATM   22  C   UNK N   1      24.256  20.172   3.162  0.00  0.00     0.163 C 
HETATM   23  O   UNK N   1      23.084  20.073   3.490  0.00  0.00    -0.648 OA
BRANCH  22  24
HETATM   24  O   UNK N   1      24.585  20.922   2.093  0.00  0.00    -0.775 OA
HETATM   25  H   UNK N   1      25.293  20.790   1.493  0.00  0.00     0.167 HD
ENDBRANCH  22  24
ENDBRANCH  21  22
BRANCH  21  26
HETATM   26  N   UNK N   1      24.802  18.945   5.192  0.00  0.00    -0.418 N 
HETATM   27  H   UNK N   1      24.770  17.977   5.513  0.00  0.00     0.150 HD
HETATM   28  H   UNK N   1      24.412  19.636   5.832  0.00  0.00     0.150 HD
ENDBRANCH  21  26
ENDBRANCH  20  21
ENDBRANCH  19  20
ENDBRANCH  18  19
ENDBRANCH   1  18
BRANCH   1  29
HETATM   29  O   UNK N   1      27.381  19.370   8.325  0.00  0.00    -0.350 OA
HETATM   30  H   UNK N   1      27.414  19.926   9.079  0.00  0.00     0.219 HD
ENDBRANCH   1  29
TORSDOF 11
ENDMDL
MODEL 2
REMARK VINA RESULT:      -6.2      6.766     11.055
REMARK  11 active torsions:
REMARK  status: ('A' for Active; 'I' for Inactive)
REMARK    1  A    between atoms: C_4  and  C_3 
REMARK    2  A    between atoms: C_5  and  C_3 
REMARK    3  A    between atoms: C_6  and  C_4 
REMARK    4  A    between atoms: C_7  and  C_5 
REMARK    5  A    between atoms: C_12  and  C_6 
REMARK    6  A    between atoms: C_6  and  N_15 
REMARK    7  A    between atoms: C_7  and  O_19 
REMARK    8  A    between atoms: C_8  and  N_16 
REMARK    9  A    between atoms: C_9  and  C_13 
REMARK   10  A    between atoms: O_22  and  C_12 
REMARK   11  A    between atoms: O_24  and  C_13 
ROOT
HETATM    1  C   UNK N   1      37.524  12.266  11.063  0.00  0.00     0.111 C 
HETATM    2  N   UNK N   1      36.755  12.376  10.038  0.00  0.00    -0.359 N 
ATOM      3  HN  UNK N   1      36.043  11.660   9.893  1.00  0.00     0.162 HD
ENDROOT
BRANCH   2   4
HETATM    4  C   UNK N   1      36.839  13.459   9.075  0.00  0.00     0.209 A 
HETATM    5  C   UNK N   1      36.428  14.789   9.576  0.00  0.00     0.247 A 
HETATM    6  N   UNK N   1      35.527  15.032   8.682  0.00  0.00    -0.318 N 
HETATM    7  O   UNK N   1      36.838  15.531  10.462  0.00  0.00    -0.271 OA
HETATM    8  C   UNK N   1      34.561  15.987   8.259  0.00  0.00     0.204 C 
HETATM    9  C   UNK N   1      35.626  13.795   8.010  0.00  0.00     0.183 A 
HETATM   10  C   UNK N   1      33.287  15.109   8.074  0.00  0.00     0.033 C 
HETATM   11  C   UNK N   1      32.559  15.513   6.799  0.00  0.00     0.029 C 
HETATM   12  C   UNK N   1      32.316  15.176   9.241  0.00  0.00     0.029 C 
HETATM   13  S   UNK N   1      33.855  13.326   8.005  0.00  0.00    -0.129 SA
BRANCH   8  14
HETATM   14  C   UNK N   1      34.475  17.245   9.101  0.00  0.00     0.165 C 
HETATM   15  O   UNK N   1      34.359  18.344   8.578  0.00  0.00    -0.648 OA
BRANCH  14  16
HETATM   16  O   UNK N   1      34.597  17.164  10.437  0.00  0.00    -0.775 OA
HETATM   17  H   UNK N   1      33.927  17.491  11.004  0.00  0.00     0.167 HD
ENDBRANCH  14  16
ENDBRANCH   8  14
ENDBRANCH   2   4
BRANCH   1  18
HETATM   18  C   UNK N   1      37.185  11.289  12.148  0.00  0.00     0.083 C 
BRANCH  18  19
HETATM   19  C   UNK N   1      37.581  11.853  13.525  0.00  0.00     0.010 C 
BRANCH  19  20
HETATM   20  C   UNK N   1      36.375  12.000  14.465  0.00  0.00     0.036 C 
BRANCH  20  21
HETATM   21  C   UNK N   1      36.046  13.458  14.775  0.00  0.00     0.173 C 
BRANCH  21  22
HETATM   22  C   UNK N   1      35.711  14.188  13.505  0.00  0.00     0.163 C 
HETATM   23  O   UNK N   1      34.785  13.817  12.801  0.00  0.00    -0.648 OA
BRANCH  22  24
HETATM   24  O   UNK N   1      36.434  15.263  13.139  0.00  0.00    -0.775 OA
HETATM   25  H   UNK N   1      36.281  16.162  13.356  0.00  0.00     0.167 HD
ENDBRANCH  22  24
ENDBRANCH  21  22
BRANCH  21  26
HETATM   26  N   UNK N   1      37.190  14.069  15.434  0.00  0.00    -0.418 N 
HETATM   27  H   UNK N   1      37.401  15.059  15.553  0.00  0.00     0.150 HD
HETATM   28  H   UNK N   1      37.870  13.420  15.831  0.00  0.00     0.150 HD
ENDBRANCH  21  26
ENDBRANCH  20  21
ENDBRANCH  19  20
ENDBRANCH  18  19
ENDBRANCH   1  18
BRANCH   1  29
HETATM   29  O   UNK N   1      38.583  13.081  11.221  0.00  0.00    -0.350 OA
HETATM   30  H   UNK N   1      39.085  13.562  10.592  0.00  0.00     0.219 HD
ENDBRANCH   1  29
TORSDOF 11
ENDMDL
MODEL 3
REMARK VINA RESULT:      -6.2      1.872      2.249
REMARK  11 active torsions:
REMARK  status: ('A' for Active; 'I' for Inactive)
REMARK    1  A    between atoms: C_4  and  C_3 
REMARK    2  A    between atoms: C_5  and  C_3 
REMARK    3  A    between atoms: C_6  and  C_4 
REMARK    4  A    between atoms: C_7  and  C_5 
REMARK    5  A    between atoms: C_12  and  C_6 
REMARK    6  A    between atoms: C_6  and  N_15 
REMARK    7  A    between atoms: C_7  and  O_19 
REMARK    8  A    between atoms: C_8  and  N_16 
REMARK    9  A    between atoms: C_9  and  C_13 
REMARK   10  A    between atoms: O_22  and  C_12 
REMARK   11  A    between atoms: O_24  and  C_13 
ROOT
HETATM    1  C   UNK N   1      28.052  18.845   7.943  0.00  0.00     0.111 C 
HETATM    2  N   UNK N   1      28.875  18.302   7.116  0.00  0.00    -0.359 N 
ATOM      3  HN  UNK N   1      28.931  18.687   6.173  1.00  0.00     0.162 HD
ENDROOT
BRANCH   2   4
HETATM    4  C   UNK N   1      29.731  17.177   7.446  0.00  0.00     0.209 A 
HETATM    5  C   UNK N   1      31.178  17.476   7.514  0.00  0.00     0.247 A 
HETATM    6  N   UNK N   1      31.571  16.593   6.658  0.00  0.00    -0.318 N 
HETATM    7  O   UNK N   1      31.864  18.215   8.212  0.00  0.00    -0.271 OA
HETATM    8  C   UNK N   1      32.717  16.063   6.002  0.00  0.00     0.204 C 
HETATM    9  C   UNK N   1      30.288  16.123   6.307  0.00  0.00     0.183 A 
HETATM   10  C   UNK N   1      32.277  16.072   4.507  0.00  0.00     0.033 C 
HETATM   11  C   UNK N   1      32.713  14.779   3.829  0.00  0.00     0.029 C 
HETATM   12  C   UNK N   1      32.811  17.252   3.713  0.00  0.00     0.029 C 
HETATM   13  S   UNK N   1      30.414  16.264   4.485  0.00  0.00    -0.129 SA
BRANCH   8  14
HETATM   14  C   UNK N   1      34.040  16.696   6.386  0.00  0.00     0.165 C 
HETATM   15  O   UNK N   1      35.018  16.007   6.636  0.00  0.00    -0.648 OA
BRANCH  14  16
HETATM   16  O   UNK N   1      34.126  18.031   6.522  0.00  0.00    -0.775 OA
HETATM   17  H   UNK N   1      34.378  18.417   7.337  0.00  0.00     0.167 HD
ENDBRANCH  14  16
ENDBRANCH   8  14
ENDBRANCH   2   4
BRANCH   1  18
HETATM   18  C   UNK N   1      27.427  20.167   7.613  0.00  0.00     0.083 C 
BRANCH  18  19
HETATM   19  C   UNK N   1      27.743  20.565   6.159  0.00  0.00     0.010 C 
BRANCH  19  20
HETATM   20  C   UNK N   1      26.501  20.517   5.257  0.00  0.00     0.036 C 
BRANCH  20  21
HETATM   21  C   UNK N   1      26.543  19.361   4.260  0.00  0.00     0.173 C 
BRANCH  21  22
HETATM   22  C   UNK N   1      26.034  18.106   4.911  0.00  0.00     0.163 C 
HETATM   23  O   UNK N   1      26.773  17.147   5.074  0.00  0.00    -0.648 OA
BRANCH  22  24
HETATM   24  O   UNK N   1      24.754  18.035   5.323  0.00  0.00    -0.775 OA
HETATM   25  H   UNK N   1      24.433  17.763   6.160  0.00  0.00     0.167 HD
ENDBRANCH  22  24
ENDBRANCH  21  22
BRANCH  21  26
HETATM   26  N   UNK N   1      27.911  19.186   3.800  0.00  0.00    -0.418 N 
HETATM   27  H   UNK N   1      28.515  19.859   3.330  0.00  0.00     0.150 HD
HETATM   28  H   UNK N   1      28.321  18.268   3.972  0.00  0.00     0.150 HD
ENDBRANCH  21  26
ENDBRANCH  20  21
ENDBRANCH  19  20
ENDBRANCH  18  19
ENDBRANCH   1  18
BRANCH   1  29
HETATM   29  O   UNK N   1      27.814  18.286   9.144  0.00  0.00    -0.350 OA
HETATM   30  H   UNK N   1      27.018  17.965   9.523  0.00  0.00     0.219 HD
ENDBRANCH   1  29
TORSDOF 11
ENDMDL
MODEL 4
REMARK VINA RESULT:      -6.2     11.420     13.311
REMARK  11 active torsions:
REMARK  status: ('A' for Active; 'I' for Inactive)
REMARK    1  A    between atoms: C_4  and  C_3 
REMARK    2  A    between atoms: C_5  and  C_3 
REMARK    3  A    between atoms: C_6  and  C_4 
REMARK    4  A    between atoms: C_7  and  C_5 
REMARK    5  A    between atoms: C_12  and  C_6 
REMARK    6  A    between atoms: C_6  and  N_15 
REMARK    7  A    between atoms: C_7  and  O_19 
REMARK    8  A    between atoms: C_8  and  N_16 
REMARK    9  A    between atoms: C_9  and  C_13 
REMARK   10  A    between atoms: O_22  and  C_12 
REMARK   11  A    between atoms: O_24  and  C_13 
ROOT
HETATM    1  C   UNK N   1      26.176  25.043  -6.520  0.00  0.00     0.111 C 
HETATM    2  N   UNK N   1      27.316  24.467  -6.676  0.00  0.00    -0.359 N 
ATOM      3  HN  UNK N   1      27.970  24.871  -7.347  1.00  0.00     0.162 HD
ENDROOT
BRANCH   2   4
HETATM    4  C   UNK N   1      27.729  23.278  -5.953  0.00  0.00     0.209 A 
HETATM    5  C   UNK N   1      28.383  23.521  -4.649  0.00  0.00     0.247 A 
HETATM    6  N   UNK N   1      29.474  22.873  -4.887  0.00  0.00    -0.318 N 
HETATM    7  O   UNK N   1      28.025  24.047  -3.600  0.00  0.00    -0.271 OA
HETATM    8  C   UNK N   1      30.731  22.502  -4.332  0.00  0.00     0.204 C 
HETATM    9  C   UNK N   1      29.174  22.532  -6.223  0.00  0.00     0.183 A 
HETATM   10  C   UNK N   1      31.723  22.896  -5.467  0.00  0.00     0.033 C 
HETATM   11  C   UNK N   1      32.774  21.806  -5.640  0.00  0.00     0.029 C 
HETATM   12  C   UNK N   1      32.421  24.227  -5.243  0.00  0.00     0.029 C 
HETATM   13  S   UNK N   1      30.710  23.125  -7.026  0.00  0.00    -0.129 SA
BRANCH   8  14
HETATM   14  C   UNK N   1      30.992  22.992  -2.921  0.00  0.00     0.165 C 
HETATM   15  O   UNK N   1      31.505  22.261  -2.087  0.00  0.00    -0.648 OA
BRANCH  14  16
HETATM   16  O   UNK N   1      30.592  24.222  -2.557  0.00  0.00    -0.775 OA
HETATM   17  H   UNK N   1      29.688  24.466  -2.595  0.00  0.00     0.167 HD
ENDBRANCH  14  16
ENDBRANCH   8  14
ENDBRANCH   2   4
BRANCH   1  18
HETATM   18  C   UNK N   1      25.949  26.412  -7.086  0.00  0.00     0.083 C 
BRANCH  18  19
HETATM   19  C   UNK N   1      26.299  27.491  -6.044  0.00  0.00     0.010 C 
BRANCH  19  20
HETATM   20  C   UNK N   1      25.164  27.718  -5.035  0.00  0.00     0.036 C 
BRANCH  20  21
HETATM   21  C   UNK N   1      25.650  27.689  -3.588  0.00  0.00     0.173 C 
BRANCH  21  22
HETATM   22  C   UNK N   1      26.491  28.903  -3.306  0.00  0.00     0.163 C 
HETATM   23  O   UNK N   1      27.584  28.791  -2.775  0.00  0.00    -0.648 OA
BRANCH  22  24
HETATM   24  O   UNK N   1      26.039  30.125  -3.645  0.00  0.00    -0.775 OA
HETATM   25  H   UNK N   1      25.531  30.716  -3.125  0.00  0.00     0.167 HD
ENDBRANCH  22  24
ENDBRANCH  21  22
BRANCH  21  26
HETATM   26  N   UNK N   1      26.414  26.471  -3.372  0.00  0.00    -0.418 N 
HETATM   27  H   UNK N   1      26.286  25.759  -2.652  0.00  0.00     0.150 HD
HETATM   28  H   UNK N   1      27.178  26.305  -4.027  0.00  0.00     0.150 HD
ENDBRANCH  21  26
ENDBRANCH  20  21
ENDBRANCH  19  20
ENDBRANCH  18  19
ENDBRANCH   1  18
BRANCH   1  29
HETATM   29  O   UNK N   1      25.212  24.471  -5.777  0.00  0.00    -0.350 OA
HETATM   30  H   UNK N   1      25.112  24.407  -4.847  0.00  0.00     0.219 HD
ENDBRANCH   1  29
TORSDOF 11
ENDMDL
MODEL 5
REMARK VINA RESULT:      -6.1      6.219      8.302
REMARK  11 active torsions:
REMARK  status: ('A' for Active; 'I' for Inactive)
REMARK    1  A    between atoms: C_4  and  C_3 
REMARK    2  A    between atoms: C_5  and  C_3 
REMARK    3  A    between atoms: C_6  and  C_4 
REMARK    4  A    between atoms: C_7  and  C_5 
REMARK    5  A    between atoms: C_12  and  C_6 
REMARK    6  A    between atoms: C_6  and  N_15 
REMARK    7  A    between atoms: C_7  and  O_19 
REMARK    8  A    between atoms: C_8  and  N_16 
REMARK    9  A    between atoms: C_9  and  C_13 
REMARK   10  A    between atoms: O_22  and  C_12 
REMARK   11  A    between atoms: O_24  and  C_13 
ROOT
HETATM    1  C   UNK N   1      33.186  14.380   7.105  0.00  0.00     0.111 C 
HETATM    2  N   UNK N   1      34.079  13.855   7.869  0.00  0.00    -0.359 N 
ATOM      3  HN  UNK N   1      35.042  13.833   7.536  1.00  0.00     0.162 HD
ENDROOT
BRANCH   2   4
HETATM    4  C   UNK N   1      33.796  13.294   9.177  0.00  0.00     0.209 A 
HETATM    5  C   UNK N   1      34.336  14.054  10.326  0.00  0.00     0.247 A 
HETATM    6  N   UNK N   1      35.012  13.091  10.860  0.00  0.00    -0.318 N 
HETATM    7  O   UNK N   1      34.153  15.186  10.761  0.00  0.00    -0.271 OA
HETATM    8  C   UNK N   1      35.873  12.758  11.943  0.00  0.00     0.204 C 
HETATM    9  C   UNK N   1      34.739  12.129   9.865  0.00  0.00     0.183 A 
HETATM   10  C   UNK N   1      37.054  12.045  11.219  0.00  0.00     0.033 C 
HETATM   11  C   UNK N   1      37.478  10.813  12.008  0.00  0.00     0.029 C 
HETATM   12  C   UNK N   1      38.267  12.932  10.996  0.00  0.00     0.029 C 
HETATM   13  S   UNK N   1      36.452  11.590   9.505  0.00  0.00    -0.129 SA
BRANCH   8  14
HETATM   14  C   UNK N   1      36.173  13.888  12.909  0.00  0.00     0.165 C 
HETATM   15  O   UNK N   1      36.114  13.713  14.117  0.00  0.00    -0.648 OA
BRANCH  14  16
HETATM   16  O   UNK N   1      36.440  15.117  12.436  0.00  0.00    -0.775 OA
HETATM   17  H   UNK N   1      36.139  15.385  11.590  0.00  0.00     0.167 HD
ENDBRANCH  14  16
ENDBRANCH   8  14
ENDBRANCH   2   4
BRANCH   1  18
HETATM   18  C   UNK N   1      33.606  15.185   5.913  0.00  0.00     0.083 C 
BRANCH  18  19
HETATM   19  C   UNK N   1      34.248  16.513   6.357  0.00  0.00     0.010 C 
BRANCH  19  20
HETATM   20  C   UNK N   1      33.201  17.592   6.669  0.00  0.00     0.036 C 
BRANCH  20  21
HETATM   21  C   UNK N   1      33.232  18.037   8.130  0.00  0.00     0.173 C 
BRANCH  21  22
HETATM   22  C   UNK N   1      34.654  18.239   8.572  0.00  0.00     0.163 C 
HETATM   23  O   UNK N   1      35.348  19.103   8.058  0.00  0.00    -0.648 OA
BRANCH  22  24
HETATM   24  O   UNK N   1      35.170  17.466   9.546  0.00  0.00    -0.775 OA
HETATM   25  H   UNK N   1      35.956  17.605  10.038  0.00  0.00     0.167 HD
ENDBRANCH  22  24
ENDBRANCH  21  22
BRANCH  21  26
HETATM   26  N   UNK N   1      32.578  17.024   8.944  0.00  0.00    -0.418 N 
HETATM   27  H   UNK N   1      32.303  17.077   9.924  0.00  0.00     0.150 HD
HETATM   28  H   UNK N   1      32.366  16.146   8.471  0.00  0.00     0.150 HD
ENDBRANCH  21  26
ENDBRANCH  20  21
ENDBRANCH  19  20
ENDBRANCH  18  19
ENDBRANCH   1  18
BRANCH   1  29
HETATM   29  O   UNK N   1      31.879  14.294   7.413  0.00  0.00    -0.350 OA
HETATM   30  H   UNK N   1      31.275  14.948   7.707  0.00  0.00     0.219 HD
ENDBRANCH   1  29
TORSDOF 11
ENDMDL
MODEL 6
REMARK VINA RESULT:      -6.1      6.228     11.598
REMARK  11 active torsions:
REMARK  status: ('A' for Active; 'I' for Inactive)
REMARK    1  A    between atoms: C_4  and  C_3 
REMARK    2  A    between atoms: C_5  and  C_3 
REMARK    3  A    between atoms: C_6  and  C_4 
REMARK    4  A    between atoms: C_7  and  C_5 
REMARK    5  A    between atoms: C_12  and  C_6 
REMARK    6  A    between atoms: C_6  and  N_15 
REMARK    7  A    between atoms: C_7  and  O_19 
REMARK    8  A    between atoms: C_8  and  N_16 
REMARK    9  A    between atoms: C_9  and  C_13 
REMARK   10  A    between atoms: O_22  and  C_12 
REMARK   11  A    between atoms: O_24  and  C_13 
ROOT
HETATM    1  C   UNK N   1      35.963  13.529  12.509  0.00  0.00     0.111 C 
HETATM    2  N   UNK N   1      35.313  14.094  11.554  0.00  0.00    -0.359 N 
ATOM      3  HN  UNK N   1      34.297  14.010  11.549  1.00  0.00     0.162 HD
ENDROOT
BRANCH   2   4
HETATM    4  C   UNK N   1      35.940  14.846  10.482  0.00  0.00     0.209 A 
HETATM    5  C   UNK N   1      35.406  16.209  10.264  0.00  0.00     0.247 A 
HETATM    6  N   UNK N   1      35.107  16.071   9.015  0.00  0.00    -0.318 N 
HETATM    7  O   UNK N   1      35.345  17.221  10.953  0.00  0.00    -0.271 OA
HETATM    8  C   UNK N   1      34.550  16.742   7.889  0.00  0.00     0.204 C 
HETATM    9  C   UNK N   1      35.466  14.712   8.909  0.00  0.00     0.183 A 
HETATM   10  C   UNK N   1      33.504  15.709   7.373  0.00  0.00     0.033 C 
HETATM   11  C   UNK N   1      33.558  15.631   5.853  0.00  0.00     0.029 C 
HETATM   12  C   UNK N   1      32.078  16.006   7.804  0.00  0.00     0.029 C 
HETATM   13  S   UNK N   1      33.926  14.062   8.160  0.00  0.00    -0.129 SA
BRANCH   8  14
HETATM   14  C   UNK N   1      34.116  18.174   8.132  0.00  0.00     0.165 C 
HETATM   15  O   UNK N   1      32.942  18.500   8.032  0.00  0.00    -0.648 OA
BRANCH  14  16
HETATM   16  O   UNK N   1      35.038  19.116   8.392  0.00  0.00    -0.775 OA
HETATM   17  H   UNK N   1      34.934  19.707   9.112  0.00  0.00     0.167 HD
ENDBRANCH  14  16
ENDBRANCH   8  14
ENDBRANCH   2   4
BRANCH   1  18
HETATM   18  C   UNK N   1      35.228  13.026  13.715  0.00  0.00     0.083 C 
BRANCH  18  19
HETATM   19  C   UNK N   1      36.216  12.684  14.845  0.00  0.00     0.010 C 
BRANCH  19  20
HETATM   20  C   UNK N   1      36.088  13.638  16.042  0.00  0.00     0.036 C 
BRANCH  20  21
HETATM   21  C   UNK N   1      35.111  13.127  17.098  0.00  0.00     0.173 C 
BRANCH  21  22
HETATM   22  C   UNK N   1      35.289  13.899  18.376  0.00  0.00     0.163 C 
HETATM   23  O   UNK N   1      35.658  15.063  18.352  0.00  0.00    -0.648 OA
BRANCH  22  24
HETATM   24  O   UNK N   1      35.037  13.307  19.558  0.00  0.00    -0.775 OA
HETATM   25  H   UNK N   1      34.980  12.390  19.742  0.00  0.00     0.167 HD
ENDBRANCH  22  24
ENDBRANCH  21  22
BRANCH  21  26
HETATM   26  N   UNK N   1      35.351  11.709  17.315  0.00  0.00    -0.418 N 
HETATM   27  H   UNK N   1      34.846  10.912  16.929  0.00  0.00     0.150 HD
HETATM   28  H   UNK N   1      36.129  11.482  17.935  0.00  0.00     0.150 HD
ENDBRANCH  21  26
ENDBRANCH  20  21
ENDBRANCH  19  20
ENDBRANCH  18  19
ENDBRANCH   1  18
BRANCH   1  29
HETATM   29  O   UNK N   1      37.307  13.464  12.485  0.00  0.00    -0.350 OA
HETATM   30  H   UNK N   1      37.883  12.743  12.322  0.00  0.00     0.219 HD
ENDBRANCH   1  29
TORSDOF 11
ENDMDL
MODEL 7
REMARK VINA RESULT:      -6.0      5.299      9.212
REMARK  11 active torsions:
REMARK  status: ('A' for Active; 'I' for Inactive)
REMARK    1  A    between atoms: C_4  and  C_3 
REMARK    2  A    between atoms: C_5  and  C_3 
REMARK    3  A    between atoms: C_6  and  C_4 
REMARK    4  A    between atoms: C_7  and  C_5 
REMARK    5  A    between atoms: C_12  and  C_6 
REMARK    6  A    between atoms: C_6  and  N_15 
REMARK    7  A    between atoms: C_7  and  O_19 
REMARK    8  A    between atoms: C_8  and  N_16 
REMARK    9  A    between atoms: C_9  and  C_13 
REMARK   10  A    between atoms: O_22  and  C_12 
REMARK   11  A    between atoms: O_24  and  C_13 
ROOT
HETATM    1  C   UNK N   1      34.657  12.306  10.203  0.00  0.00     0.111 C 
HETATM    2  N   UNK N   1      33.894  13.250   9.777  0.00  0.00    -0.359 N 
ATOM      3  HN  UNK N   1      33.443  13.850  10.468  1.00  0.00     0.162 HD
ENDROOT
BRANCH   2   4
HETATM    4  C   UNK N   1      33.637  13.514   8.373  0.00  0.00     0.209 A 
HETATM    5  C   UNK N   1      34.303  14.713   7.819  0.00  0.00     0.247 A 
HETATM    6  N   UNK N   1      33.242  15.302   7.377  0.00  0.00    -0.318 N 
HETATM    7  O   UNK N   1      35.474  15.050   7.679  0.00  0.00    -0.271 OA
HETATM    8  C   UNK N   1      32.773  16.471   6.713  0.00  0.00     0.204 C 
HETATM    9  C   UNK N   1      32.316  14.352   7.855  0.00  0.00     0.183 A 
HETATM   10  C   UNK N   1      31.608  16.931   7.639  0.00  0.00     0.033 C 
HETATM   11  C   UNK N   1      30.416  17.368   6.796  0.00  0.00     0.029 C 
HETATM   12  C   UNK N   1      31.982  18.057   8.589  0.00  0.00     0.029 C 
HETATM   13  S   UNK N   1      31.174  15.479   8.739  0.00  0.00    -0.129 SA
BRANCH   8  14
HETATM   14  C   UNK N   1      33.841  17.470   6.317  0.00  0.00     0.165 C 
HETATM   15  O   UNK N   1      33.942  17.859   5.163  0.00  0.00    -0.648 OA
BRANCH  14  16
HETATM   16  O   UNK N   1      34.737  17.886   7.230  0.00  0.00    -0.775 OA
HETATM   17  H   UNK N   1      34.802  18.791   7.464  0.00  0.00     0.167 HD
ENDBRANCH  14  16
ENDBRANCH   8  14
ENDBRANCH   2   4
BRANCH   1  18
HETATM   18  C   UNK N   1      35.090  12.286  11.638  0.00  0.00     0.083 C 
BRANCH  18  19
HETATM   19  C   UNK N   1      36.334  13.171  11.838  0.00  0.00     0.010 C 
BRANCH  19  20
HETATM   20  C   UNK N   1      35.972  14.595  12.283  0.00  0.00     0.036 C 
BRANCH  20  21
HETATM   21  C   UNK N   1      36.480  15.661  11.315  0.00  0.00     0.173 C 
BRANCH  21  22
HETATM   22  C   UNK N   1      35.323  16.454  10.774  0.00  0.00     0.163 C 
HETATM   23  O   UNK N   1      35.509  17.526  10.220  0.00  0.00    -0.648 OA
BRANCH  22  24
HETATM   24  O   UNK N   1      34.069  15.979  10.897  0.00  0.00    -0.775 OA
HETATM   25  H   UNK N   1      33.685  15.246  10.457  0.00  0.00     0.167 HD
ENDBRANCH  22  24
ENDBRANCH  21  22
BRANCH  21  26
HETATM   26  N   UNK N   1      37.207  15.009  10.237  0.00  0.00    -0.418 N 
HETATM   27  H   UNK N   1      37.051  14.086   9.832  0.00  0.00     0.150 HD
HETATM   28  H   UNK N   1      37.974  15.546   9.832  0.00  0.00     0.150 HD
ENDBRANCH  21  26
ENDBRANCH  20  21
ENDBRANCH  19  20
ENDBRANCH  18  19
ENDBRANCH   1  18
BRANCH   1  29
HETATM   29  O   UNK N   1      35.149  11.383   9.355  0.00  0.00    -0.350 OA
HETATM   30  H   UNK N   1      36.030  11.201   9.092  0.00  0.00     0.219 HD
ENDBRANCH   1  29
TORSDOF 11
ENDMDL
MODEL 8
REMARK VINA RESULT:      -6.0      4.072      9.482
REMARK  11 active torsions:
REMARK  status: ('A' for Active; 'I' for Inactive)
REMARK    1  A    between atoms: C_4  and  C_3 
REMARK    2  A    between atoms: C_5  and  C_3 
REMARK    3  A    between atoms: C_6  and  C_4 
REMARK    4  A    between atoms: C_7  and  C_5 
REMARK    5  A    between atoms: C_12  and  C_6 
REMARK    6  A    between atoms: C_6  and  N_15 
REMARK    7  A    between atoms: C_7  and  O_19 
REMARK    8  A    between atoms: C_8  and  N_16 
REMARK    9  A    between atoms: C_9  and  C_13 
REMARK   10  A    between atoms: O_22  and  C_12 
REMARK   11  A    between atoms: O_24  and  C_13 
ROOT
HETATM    1  C   UNK N   1      34.832  16.851  10.071  0.00  0.00     0.111 C 
HETATM    2  N   UNK N   1      33.781  16.658   9.355  0.00  0.00    -0.359 N 
ATOM      3  HN  UNK N   1      33.306  15.758   9.432  1.00  0.00     0.162 HD
ENDROOT
BRANCH   2   4
HETATM    4  C   UNK N   1      33.230  17.644   8.444  0.00  0.00     0.209 A 
HETATM    5  C   UNK N   1      31.864  17.361   7.950  0.00  0.00     0.247 A 
HETATM    6  N   UNK N   1      32.131  17.406   6.688  0.00  0.00    -0.318 N 
HETATM    7  O   UNK N   1      30.771  17.234   8.492  0.00  0.00    -0.271 OA
HETATM    8  C   UNK N   1      31.562  17.270   5.390  0.00  0.00     0.204 C 
HETATM    9  C   UNK N   1      33.520  17.614   6.821  0.00  0.00     0.183 A 
HETATM   10  C   UNK N   1      32.555  16.292   4.695  0.00  0.00     0.033 C 
HETATM   11  C   UNK N   1      32.829  16.756   3.270  0.00  0.00     0.029 C 
HETATM   12  C   UNK N   1      32.081  14.849   4.663  0.00  0.00     0.029 C 
HETATM   13  S   UNK N   1      34.120  16.275   5.724  0.00  0.00    -0.129 SA
BRANCH   8  14
HETATM   14  C   UNK N   1      30.078  16.962   5.357  0.00  0.00     0.165 C 
HETATM   15  O   UNK N   1      29.327  17.569   4.609  0.00  0.00    -0.648 OA
BRANCH  14  16
HETATM   16  O   UNK N   1      29.564  16.059   6.211  0.00  0.00    -0.775 OA
HETATM   17  H   UNK N   1      30.110  15.617   6.831  0.00  0.00     0.167 HD
ENDBRANCH  14  16
ENDBRANCH   8  14
ENDBRANCH   2   4
BRANCH   1  18
HETATM   18  C   UNK N   1      35.161  15.901  11.183  0.00  0.00     0.083 C 
BRANCH  18  19
HETATM   19  C   UNK N   1      36.420  15.082  10.839  0.00  0.00     0.010 C 
BRANCH  19  20
HETATM   20  C   UNK N   1      36.449  13.725  11.557  0.00  0.00     0.036 C 
BRANCH  20  21
HETATM   21  C   UNK N   1      35.240  13.516  12.466  0.00  0.00     0.173 C 
BRANCH  21  22
HETATM   22  C   UNK N   1      35.678  13.495  13.903  0.00  0.00     0.163 C 
HETATM   23  O   UNK N   1      34.860  13.363  14.800  0.00  0.00    -0.648 OA
BRANCH  22  24
HETATM   24  O   UNK N   1      36.984  13.618  14.208  0.00  0.00    -0.775 OA
HETATM   25  H   UNK N   1      37.716  13.600  13.624  0.00  0.00     0.167 HD
ENDBRANCH  22  24
ENDBRANCH  21  22
BRANCH  21  26
HETATM   26  N   UNK N   1      34.592  12.264  12.106  0.00  0.00    -0.418 N 
HETATM   27  H   UNK N   1      34.678  11.352  12.553  0.00  0.00     0.150 HD
HETATM   28  H   UNK N   1      33.969  12.304  11.300  0.00  0.00     0.150 HD
ENDBRANCH  21  26
ENDBRANCH  20  21
ENDBRANCH  19  20
ENDBRANCH  18  19
ENDBRANCH   1  18
BRANCH   1  29
HETATM   29  O   UNK N   1      35.594  17.946   9.896  0.00  0.00    -0.350 OA
HETATM   30  H   UNK N   1      36.005  18.290   9.126  0.00  0.00     0.219 HD
ENDBRANCH   1  29
TORSDOF 11
ENDMDL
MODEL 9
REMARK VINA RESULT:      -6.0      7.182     11.580
REMARK  11 active torsions:
REMARK  status: ('A' for Active; 'I' for Inactive)
REMARK    1  A    between atoms: C_4  and  C_3 
REMARK    2  A    between atoms: C_5  and  C_3 
REMARK    3  A    between atoms: C_6  and  C_4 
REMARK    4  A    between atoms: C_7  and  C_5 
REMARK    5  A    between atoms: C_12  and  C_6 
REMARK    6  A    between atoms: C_6  and  N_15 
REMARK    7  A    between atoms: C_7  and  O_19 
REMARK    8  A    between atoms: C_8  and  N_16 
REMARK    9  A    between atoms: C_9  and  C_13 
REMARK   10  A    between atoms: O_22  and  C_12 
REMARK   11  A    between atoms: O_24  and  C_13 
ROOT
HETATM    1  C   UNK N   1      34.805  10.944  12.573  0.00  0.00     0.111 C 
HETATM    2  N   UNK N   1      34.471  11.990  11.903  0.00  0.00    -0.359 N 
ATOM      3  HN  UNK N   1      33.505  12.311  11.964  1.00  0.00     0.162 HD
ENDROOT
BRANCH   2   4
HETATM    4  C   UNK N   1      35.388  12.743  11.066  0.00  0.00     0.209 A 
HETATM    5  C   UNK N   1      35.363  14.210  11.255  0.00  0.00     0.247 A 
HETATM    6  N   UNK N   1      35.122  14.531  10.027  0.00  0.00    -0.318 N 
HETATM    7  O   UNK N   1      35.602  14.952  12.201  0.00  0.00    -0.271 OA
HETATM    8  C   UNK N   1      34.904  15.632   9.152  0.00  0.00     0.204 C 
HETATM    9  C   UNK N   1      35.006  13.215   9.533  0.00  0.00     0.183 A 
HETATM   10  C   UNK N   1      33.608  15.205   8.400  0.00  0.00     0.033 C 
HETATM   11  C   UNK N   1      33.736  15.532   6.918  0.00  0.00     0.029 C 
HETATM   12  C   UNK N   1      32.340  15.845   8.940  0.00  0.00     0.029 C 
HETATM   13  S   UNK N   1      33.392  13.366   8.680  0.00  0.00    -0.129 SA
BRANCH   8  14
HETATM   14  C   UNK N   1      34.965  17.002   9.799  0.00  0.00     0.165 C 
HETATM   15  O   UNK N   1      35.197  18.001   9.134  0.00  0.00    -0.648 OA
BRANCH  14  16
HETATM   16  O   UNK N   1      34.830  17.117  11.131  0.00  0.00    -0.775 OA
HETATM   17  H   UNK N   1      34.853  17.956  11.548  0.00  0.00     0.167 HD
ENDBRANCH  14  16
ENDBRANCH   8  14
ENDBRANCH   2   4
BRANCH   1  18
HETATM   18  C   UNK N   1      33.882  10.406  13.624  0.00  0.00     0.083 C 
BRANCH  18  19
HETATM   19  C   UNK N   1      34.675   9.984  14.874  0.00  0.00     0.010 C 
BRANCH  19  20
HETATM   20  C   UNK N   1      34.756  11.104  15.921  0.00  0.00     0.036 C 
BRANCH  20  21
HETATM   21  C   UNK N   1      36.134  11.761  15.974  0.00  0.00     0.173 C 
BRANCH  21  22
HETATM   22  C   UNK N   1      36.093  13.093  15.279  0.00  0.00     0.163 C 
HETATM   23  O   UNK N   1      37.093  13.790  15.214  0.00  0.00    -0.648 OA
BRANCH  22  24
HETATM   24  O   UNK N   1      34.946  13.522  14.720  0.00  0.00    -0.775 OA
HETATM   25  H   UNK N   1      34.787  14.338  14.287  0.00  0.00     0.167 HD
ENDBRANCH  22  24
ENDBRANCH  21  22
BRANCH  21  26
HETATM   26  N   UNK N   1      37.100  10.878  15.339  0.00  0.00    -0.418 N 
HETATM   27  H   UNK N   1      37.040  10.417  14.431  0.00  0.00     0.150 HD
HETATM   28  H   UNK N   1      37.951  10.696  15.872  0.00  0.00     0.150 HD
ENDBRANCH  21  26
ENDBRANCH  20  21
ENDBRANCH  19  20
ENDBRANCH  18  19
ENDBRANCH   1  18
BRANCH   1  29
HETATM   29  O   UNK N   1      36.015  10.378  12.409  0.00  0.00    -0.350 OA
HETATM   30  H   UNK N   1      36.389   9.609  12.793  0.00  0.00     0.219 HD
ENDBRANCH   1  29
TORSDOF 11
ENDMDL
