MODEL 1
REMARK VINA RESULT:      -7.6      0.000      0.000
REMARK  2 active torsions:
REMARK  status: ('A' for Active; 'I' for Inactive)
REMARK    1  A    between atoms: O_21  and  C_12 
REMARK    2  A    between atoms: O_22  and  C_13 
ROOT
HETATM    1  C   UNK N   1      28.171  25.803  -4.214  0.00  0.00     0.040 C 
HETATM    2  C   UNK N   1      30.930  20.980  -5.299  0.00  0.00     0.003 C 
HETATM    3  C   UNK N   1      31.955  20.926  -4.234  0.00  0.00    -0.001 C 
HETATM    4  C   UNK N   1      30.977  20.165  -6.363  0.00  0.00     0.050 C 
HETATM    5  C   UNK N   1      31.811  21.522  -3.036  0.00  0.00     0.007 C 
HETATM    6  C   UNK N   1      28.554  23.723  -2.811  0.00  0.00     0.067 C 
HETATM    7  C   UNK N   1      29.473  21.671  -7.859  0.00  0.00     0.124 C 
HETATM    8  C   UNK N   1      25.202  22.117  -8.344  0.00  0.00     0.076 A 
HETATM    9  C   UNK N   1      27.606  24.461  -3.775  0.00  0.00     0.130 C 
HETATM   10  C   UNK N   1      30.037  20.306  -7.502  0.00  0.00     0.153 C 
HETATM   11  C   UNK N   1      27.976  21.821  -8.016  0.00  0.00    -0.007 A 
HETATM   12  C   UNK N   1      25.825  22.702  -7.246  0.00  0.00     0.085 A 
HETATM   13  C   UNK N   1      25.936  21.409  -9.287  0.00  0.00     0.090 A 
HETATM   14  C   UNK N   1      30.545  22.201  -2.571  0.00  0.00     0.174 A 
HETATM   15  C   UNK N   1      29.979  23.398  -3.269  0.00  0.00     0.157 A 
HETATM   16  C   UNK N   1      27.226  22.583  -7.070  0.00  0.00     0.081 A 
HETATM   17  C   UNK N   1      27.318  21.250  -9.133  0.00  0.00     0.075 A 
HETATM   18  C   UNK N   1      27.887  23.299  -5.930  0.00  0.00     0.297 C 
HETATM   19 Cl   UNK N   1      28.204  20.376 -10.384  0.00  0.00    -0.081 Cl
HETATM   20  O   UNK N   1      29.902  19.369  -8.271  0.00  0.00    -0.293 OA
HETATM   21  O   UNK N   1      29.069  23.593  -6.010  0.00  0.00    -0.259 OA
HETATM   22  O   UNK N   1      27.159  23.711  -4.857  0.00  0.00    -0.312 OA
HETATM   23  O   UNK N   1      30.842  23.510  -2.165  0.00  0.00    -0.371 OA
ENDROOT
BRANCH  12  24
HETATM   24  O   UNK N   1      25.077  23.419  -6.391  0.00  0.00    -0.360 OA
HETATM   25  H   UNK N   1      24.258  23.801  -6.644  0.00  0.00     0.217 HD
ENDBRANCH  12  24
BRANCH  13  26
HETATM   26  O   UNK N   1      25.306  20.889 -10.355  0.00  0.00    -0.359 OA
HETATM   27  H   UNK N   1      24.589  20.298 -10.239  0.00  0.00     0.217 HD
ENDBRANCH  13  26
TORSDOF 2
ENDMDL
MODEL 2
REMARK VINA RESULT:      -7.4     10.999     12.695
REMARK  2 active torsions:
REMARK  status: ('A' for Active; 'I' for Inactive)
REMARK    1  A    between atoms: O_21  and  C_12 
REMARK    2  A    between atoms: O_22  and  C_13 
ROOT
HETATM    1  C   UNK N   1      24.697  14.623   6.665  0.00  0.00     0.040 C 
HETATM    2  C   UNK N   1      25.919  19.416   3.911  0.00  0.00     0.003 C 
HETATM    3  C   UNK N   1      27.329  19.671   4.277  0.00  0.00    -0.001 C 
HETATM    4  C   UNK N   1      25.167  20.351   3.312  0.00  0.00     0.050 C 
HETATM    5  C   UNK N   1      28.191  18.698   4.628  0.00  0.00     0.007 C 
HETATM    6  C   UNK N   1      26.467  15.171   4.932  0.00  0.00     0.067 C 
HETATM    7  C   UNK N   1      22.897  19.287   4.007  0.00  0.00     0.124 C 
HETATM    8  C   UNK N   1      20.405  16.171   2.348  0.00  0.00     0.076 A 
HETATM    9  C   UNK N   1      25.057  14.608   5.188  0.00  0.00     0.130 C 
HETATM   10  C   UNK N   1      23.717  20.155   3.068  0.00  0.00     0.153 C 
HETATM   11  C   UNK N   1      22.036  18.191   3.419  0.00  0.00    -0.007 A 
HETATM   12  C   UNK N   1      21.540  15.819   3.072  0.00  0.00     0.085 A 
HETATM   13  C   UNK N   1      20.059  17.503   2.168  0.00  0.00     0.090 A 
HETATM   14  C   UNK N   1      27.880  17.223   4.562  0.00  0.00     0.174 A 
HETATM   15  C   UNK N   1      26.795  16.598   5.382  0.00  0.00     0.157 A 
HETATM   16  C   UNK N   1      22.367  16.819   3.638  0.00  0.00     0.081 A 
HETATM   17  C   UNK N   1      20.866  18.520   2.692  0.00  0.00     0.075 A 
HETATM   18  C   UNK N   1      23.533  16.415   4.491  0.00  0.00     0.297 C 
HETATM   19 Cl   UNK N   1      20.354  20.194   2.466  0.00  0.00    -0.081 Cl
HETATM   20  O   UNK N   1      23.158  20.867   2.250  0.00  0.00    -0.293 OA
HETATM   21  O   UNK N   1      23.962  17.190   5.330  0.00  0.00    -0.259 OA
HETATM   22  O   UNK N   1      24.047  15.158   4.406  0.00  0.00    -0.312 OA
HETATM   23  O   UNK N   1      28.133  16.638   5.811  0.00  0.00    -0.371 OA
ENDROOT
BRANCH  12  24
HETATM   24  O   UNK N   1      21.801  14.514   3.260  0.00  0.00    -0.360 OA
HETATM   25  H   UNK N   1      22.021  13.942   2.550  0.00  0.00     0.217 HD
ENDBRANCH  12  24
BRANCH  13  26
HETATM   26  O   UNK N   1      18.935  17.805   1.495  0.00  0.00    -0.359 OA
HETATM   27  H   UNK N   1      18.205  18.185   1.941  0.00  0.00     0.217 HD
ENDBRANCH  13  26
TORSDOF 2
ENDMDL
MODEL 3
REMARK VINA RESULT:      -7.1     12.628     14.134
REMARK  2 active torsions:
REMARK  status: ('A' for Active; 'I' for Inactive)
REMARK    1  A    between atoms: O_21  and  C_12 
REMARK    2  A    between atoms: O_22  and  C_13 
ROOT
HETATM    1  C   UNK N   1      19.895  15.699   7.823  0.00  0.00     0.040 C 
HETATM    2  C   UNK N   1      25.126  16.004   5.677  0.00  0.00     0.003 C 
HETATM    3  C   UNK N   1      25.864  14.968   6.431  0.00  0.00    -0.001 C 
HETATM    4  C   UNK N   1      25.760  16.913   4.924  0.00  0.00     0.050 C 
HETATM    5  C   UNK N   1      25.277  13.887   6.976  0.00  0.00     0.007 C 
HETATM    6  C   UNK N   1      21.352  13.970   6.672  0.00  0.00     0.067 C 
HETATM    7  C   UNK N   1      23.789  18.611   4.922  0.00  0.00     0.124 C 
HETATM    8  C   UNK N   1      20.217  19.070   2.533  0.00  0.00     0.076 A 
HETATM    9  C   UNK N   1      20.242  15.024   6.505  0.00  0.00     0.130 C 
HETATM   10  C   UNK N   1      25.039  18.038   4.278  0.00  0.00     0.153 C 
HETATM   11  C   UNK N   1      22.540  18.758   4.082  0.00  0.00    -0.007 A 
HETATM   12  C   UNK N   1      20.245  18.102   3.533  0.00  0.00     0.085 A 
HETATM   13  C   UNK N   1      21.312  19.894   2.307  0.00  0.00     0.090 A 
HETATM   14  C   UNK N   1      23.827  13.517   6.778  0.00  0.00     0.174 A 
HETATM   15  C   UNK N   1      22.708  14.396   7.242  0.00  0.00     0.157 A 
HETATM   16  C   UNK N   1      21.398  17.940   4.340  0.00  0.00     0.081 A 
HETATM   17  C   UNK N   1      22.477  19.746   3.069  0.00  0.00     0.075 A 
HETATM   18  C   UNK N   1      21.372  16.954   5.470  0.00  0.00     0.297 C 
HETATM   19 Cl   UNK N   1      23.821  20.848   2.764  0.00  0.00    -0.081 Cl
HETATM   20  O   UNK N   1      25.581  18.632   3.360  0.00  0.00    -0.293 OA
HETATM   21  O   UNK N   1      22.122  17.109   6.420  0.00  0.00    -0.259 OA
HETATM   22  O   UNK N   1      20.452  15.952   5.491  0.00  0.00    -0.312 OA
HETATM   23  O   UNK N   1      23.215  13.347   8.028  0.00  0.00    -0.371 OA
ENDROOT
BRANCH  12  24
HETATM   24  O   UNK N   1      19.141  17.367   3.743  0.00  0.00    -0.360 OA
HETATM   25  H   UNK N   1      18.813  17.195   4.605  0.00  0.00     0.217 HD
ENDBRANCH  12  24
BRANCH  13  26
HETATM   26  O   UNK N   1      21.236  20.843   1.357  0.00  0.00    -0.359 OA
HETATM   27  H   UNK N   1      20.488  20.890   0.796  0.00  0.00     0.217 HD
ENDBRANCH  13  26
TORSDOF 2
ENDMDL
MODEL 4
REMARK VINA RESULT:      -7.0     12.082     14.234
REMARK  2 active torsions:
REMARK  status: ('A' for Active; 'I' for Inactive)
REMARK    1  A    between atoms: O_21  and  C_12 
REMARK    2  A    between atoms: O_22  and  C_13 
ROOT
HETATM    1  C   UNK N   1      34.499  18.148   8.307  0.00  0.00     0.040 C 
HETATM    2  C   UNK N   1      32.989  14.933   3.897  0.00  0.00     0.003 C 
HETATM    3  C   UNK N   1      34.249  14.257   3.521  0.00  0.00    -0.001 C 
HETATM    4  C   UNK N   1      31.914  14.915   3.098  0.00  0.00     0.050 C 
HETATM    5  C   UNK N   1      35.251  14.021   4.388  0.00  0.00     0.007 C 
HETATM    6  C   UNK N   1      34.626  15.643   7.920  0.00  0.00     0.067 C 
HETATM    7  C   UNK N   1      30.806  17.011   4.168  0.00  0.00     0.124 C 
HETATM    8  C   UNK N   1      28.276  17.646   7.613  0.00  0.00     0.076 A 
HETATM    9  C   UNK N   1      33.811  16.808   8.513  0.00  0.00     0.130 C 
HETATM   10  C   UNK N   1      30.695  15.705   3.401  0.00  0.00     0.153 C 
HETATM   11  C   UNK N   1      29.925  17.221   5.379  0.00  0.00    -0.007 A 
HETATM   12  C   UNK N   1      29.643  17.462   7.800  0.00  0.00     0.085 A 
HETATM   13  C   UNK N   1      27.723  17.643   6.339  0.00  0.00     0.090 A 
HETATM   14  C   UNK N   1      35.171  14.284   5.872  0.00  0.00     0.174 A 
HETATM   15  C   UNK N   1      34.974  15.659   6.429  0.00  0.00     0.157 A 
HETATM   16  C   UNK N   1      30.497  17.266   6.687  0.00  0.00     0.081 A 
HETATM   17  C   UNK N   1      28.533  17.427   5.218  0.00  0.00     0.075 A 
HETATM   18  C   UNK N   1      31.977  17.162   6.906  0.00  0.00     0.297 C 
HETATM   19 Cl   UNK N   1      27.781  17.475   3.622  0.00  0.00    -0.081 Cl
HETATM   20  O   UNK N   1      29.651  15.411   2.843  0.00  0.00    -0.293 OA
HETATM   21  O   UNK N   1      32.740  17.449   5.997  0.00  0.00    -0.259 OA
HETATM   22  O   UNK N   1      32.474  16.850   8.133  0.00  0.00    -0.312 OA
HETATM   23  O   UNK N   1      36.249  15.093   6.259  0.00  0.00    -0.371 OA
ENDROOT
BRANCH  12  24
HETATM   24  O   UNK N   1      30.133  17.525   9.049  0.00  0.00    -0.360 OA
HETATM   25  H   UNK N   1      30.557  16.795   9.456  0.00  0.00     0.217 HD
ENDBRANCH  12  24
BRANCH  13  26
HETATM   26  O   UNK N   1      26.404  17.861   6.195  0.00  0.00    -0.359 OA
HETATM   27  H   UNK N   1      26.034  17.970   5.341  0.00  0.00     0.217 HD
ENDBRANCH  13  26
TORSDOF 2
ENDMDL
MODEL 5
REMARK VINA RESULT:      -6.9     15.499     19.025
REMARK  2 active torsions:
REMARK  status: ('A' for Active; 'I' for Inactive)
REMARK    1  A    between atoms: O_21  and  C_12 
REMARK    2  A    between atoms: O_22  and  C_13 
ROOT
HETATM    1  C   UNK N   1      33.327  10.345   9.051  0.00  0.00     0.040 C 
HETATM    2  C   UNK N   1      35.959  14.543  11.791  0.00  0.00     0.003 C 
HETATM    3  C   UNK N   1      36.469  13.886  13.013  0.00  0.00    -0.001 C 
HETATM    4  C   UNK N   1      35.945  15.877  11.662  0.00  0.00     0.050 C 
HETATM    5  C   UNK N   1      36.751  12.572  13.086  0.00  0.00     0.007 C 
HETATM    6  C   UNK N   1      35.728  10.611   9.828  0.00  0.00     0.067 C 
HETATM    7  C   UNK N   1      34.126  15.900   9.802  0.00  0.00     0.124 C 
HETATM    8  C   UNK N   1      34.216  15.454   5.505  0.00  0.00     0.076 A 
HETATM    9  C   UNK N   1      34.733  10.773   8.663  0.00  0.00     0.130 C 
HETATM   10  C   UNK N   1      35.308  16.549  10.502  0.00  0.00     0.153 C 
HETATM   11  C   UNK N   1      34.170  15.737   8.299  0.00  0.00    -0.007 A 
HETATM   12  C   UNK N   1      34.316  14.321   6.307  0.00  0.00     0.085 A 
HETATM   13  C   UNK N   1      34.074  16.715   6.067  0.00  0.00     0.090 A 
HETATM   14  C   UNK N   1      36.719  11.629  11.908  0.00  0.00     0.174 A 
HETATM   15  C   UNK N   1      35.462  11.348  11.145  0.00  0.00     0.157 A 
HETATM   16  C   UNK N   1      34.275  14.437   7.718  0.00  0.00     0.081 A 
HETATM   17  C   UNK N   1      34.054  16.871   7.458  0.00  0.00     0.075 A 
HETATM   18  C   UNK N   1      34.291  13.195   8.559  0.00  0.00     0.297 C 
HETATM   19 Cl   UNK N   1      33.830  18.494   8.114  0.00  0.00    -0.081 Cl
HETATM   20  O   UNK N   1      35.598  17.709  10.264  0.00  0.00    -0.293 OA
HETATM   21  O   UNK N   1      33.813  13.223   9.682  0.00  0.00    -0.259 OA
HETATM   22  O   UNK N   1      34.742  12.019   8.045  0.00  0.00    -0.312 OA
HETATM   23  O   UNK N   1      35.893  10.536  12.208  0.00  0.00    -0.371 OA
ENDROOT
BRANCH  12  24
HETATM   24  O   UNK N   1      34.400  13.119   5.712  0.00  0.00    -0.360 OA
HETATM   25  H   UNK N   1      34.809  12.385   6.126  0.00  0.00     0.217 HD
ENDBRANCH  12  24
BRANCH  13  26
HETATM   26  O   UNK N   1      33.943  17.783   5.260  0.00  0.00    -0.359 OA
HETATM   27  H   UNK N   1      33.138  18.260   5.236  0.00  0.00     0.217 HD
ENDBRANCH  13  26
TORSDOF 2
ENDMDL
MODEL 6
REMARK VINA RESULT:      -6.8     10.924     12.657
REMARK  2 active torsions:
REMARK  status: ('A' for Active; 'I' for Inactive)
REMARK    1  A    between atoms: O_21  and  C_12 
REMARK    2  A    between atoms: O_22  and  C_13 
ROOT
HETATM    1  C   UNK N   1      20.545  17.835   4.814  0.00  0.00     0.040 C 
HETATM    2  C   UNK N   1      23.836  14.558   1.576  0.00  0.00     0.003 C 
HETATM    3  C   UNK N   1      22.880  13.606   0.971  0.00  0.00    -0.001 C 
HETATM    4  C   UNK N   1      25.161  14.362   1.511  0.00  0.00     0.050 C 
HETATM    5  C   UNK N   1      21.578  13.886   0.776  0.00  0.00     0.007 C 
HETATM    6  C   UNK N   1      20.516  17.348   2.324  0.00  0.00     0.067 C 
HETATM    7  C   UNK N   1      25.711  15.902   3.535  0.00  0.00     0.124 C 
HETATM    8  C   UNK N   1      26.325  20.154   3.999  0.00  0.00     0.076 A 
HETATM    9  C   UNK N   1      20.998  18.296   3.438  0.00  0.00     0.130 C 
HETATM   10  C   UNK N   1      26.120  15.234   2.234  0.00  0.00     0.153 C 
HETATM   11  C   UNK N   1      25.919  17.392   3.685  0.00  0.00    -0.007 A 
HETATM   12  C   UNK N   1      25.028  19.664   3.884  0.00  0.00     0.085 A 
HETATM   13  C   UNK N   1      27.416  19.294   3.982  0.00  0.00     0.090 A 
HETATM   14  C   UNK N   1      20.954  15.239   1.018  0.00  0.00     0.174 A 
HETATM   15  C   UNK N   1      20.919  15.871   2.375  0.00  0.00     0.157 A 
HETATM   16  C   UNK N   1      24.797  18.274   3.745  0.00  0.00     0.081 A 
HETATM   17  C   UNK N   1      27.228  17.916   3.821  0.00  0.00     0.075 A 
HETATM   18  C   UNK N   1      23.388  17.762   3.715  0.00  0.00     0.297 C 
HETATM   19 Cl   UNK N   1      28.648  16.870   3.848  0.00  0.00    -0.081 Cl
HETATM   20  O   UNK N   1      27.291  15.227   1.893  0.00  0.00    -0.293 OA
HETATM   21  O   UNK N   1      23.159  16.611   4.051  0.00  0.00    -0.259 OA
HETATM   22  O   UNK N   1      22.356  18.596   3.415  0.00  0.00    -0.312 OA
HETATM   23  O   UNK N   1      19.855  15.098   1.877  0.00  0.00    -0.371 OA
ENDROOT
BRANCH  12  24
HETATM   24  O   UNK N   1      24.006  20.534   3.958  0.00  0.00    -0.360 OA
HETATM   25  H   UNK N   1      24.131  21.430   4.202  0.00  0.00     0.217 HD
ENDBRANCH  12  24
BRANCH  13  26
HETATM   26  O   UNK N   1      28.653  19.799   4.133  0.00  0.00    -0.359 OA
HETATM   27  H   UNK N   1      28.921  20.154   4.957  0.00  0.00     0.217 HD
ENDBRANCH  13  26
TORSDOF 2
ENDMDL
MODEL 7
REMARK VINA RESULT:      -6.8     14.601     18.413
REMARK  2 active torsions:
REMARK  status: ('A' for Active; 'I' for Inactive)
REMARK    1  A    between atoms: O_21  and  C_12 
REMARK    2  A    between atoms: O_22  and  C_13 
ROOT
HETATM    1  C   UNK N   1      31.479  17.453   8.324  0.00  0.00     0.040 C 
HETATM    2  C   UNK N   1      34.702  13.444   5.958  0.00  0.00     0.003 C 
HETATM    3  C   UNK N   1      34.329  13.506   4.528  0.00  0.00    -0.001 C 
HETATM    4  C   UNK N   1      35.417  12.425   6.455  0.00  0.00     0.050 C 
HETATM    5  C   UNK N   1      33.854  14.617   3.933  0.00  0.00     0.007 C 
HETATM    6  C   UNK N   1      33.216  17.554   6.477  0.00  0.00     0.067 C 
HETATM    7  C   UNK N   1      34.670  12.813   8.917  0.00  0.00     0.124 C 
HETATM    8  C   UNK N   1      36.046  15.383  12.107  0.00  0.00     0.076 A 
HETATM    9  C   UNK N   1      32.936  17.720   7.982  0.00  0.00     0.130 C 
HETATM   10  C   UNK N   1      35.676  12.283   7.910  0.00  0.00     0.153 C 
HETATM   11  C   UNK N   1      35.158  13.721  10.024  0.00  0.00    -0.007 A 
HETATM   12  C   UNK N   1      35.260  15.921  11.093  0.00  0.00     0.085 A 
HETATM   13  C   UNK N   1      36.378  14.034  12.113  0.00  0.00     0.090 A 
HETATM   14  C   UNK N   1      33.768  15.968   4.600  0.00  0.00     0.174 A 
HETATM   15  C   UNK N   1      32.914  16.211   5.805  0.00  0.00     0.157 A 
HETATM   16  C   UNK N   1      34.784  15.099  10.043  0.00  0.00     0.081 A 
HETATM   17  C   UNK N   1      35.945  13.196  11.078  0.00  0.00     0.075 A 
HETATM   18  C   UNK N   1      33.863  15.682   9.012  0.00  0.00     0.297 C 
HETATM   19 Cl   UNK N   1      36.363  11.484  11.159  0.00  0.00    -0.081 Cl
HETATM   20  O   UNK N   1      36.579  11.551   8.276  0.00  0.00    -0.293 OA
HETATM   21  O   UNK N   1      33.102  14.948   8.402  0.00  0.00    -0.259 OA
HETATM   22  O   UNK N   1      33.799  17.028   8.825  0.00  0.00    -0.312 OA
HETATM   23  O   UNK N   1      32.457  16.455   4.498  0.00  0.00    -0.371 OA
ENDROOT
BRANCH  12  24
HETATM   24  O   UNK N   1      34.926  17.221  11.163  0.00  0.00    -0.360 OA
HETATM   25  H   UNK N   1      34.313  17.545  11.795  0.00  0.00     0.217 HD
ENDBRANCH  12  24
BRANCH  13  26
HETATM   26  O   UNK N   1      37.107  13.541  13.128  0.00  0.00    -0.359 OA
HETATM   27  H   UNK N   1      37.992  13.821  13.254  0.00  0.00     0.217 HD
ENDBRANCH  13  26
TORSDOF 2
ENDMDL
MODEL 8
REMARK VINA RESULT:      -6.8     13.876     17.266
REMARK  2 active torsions:
REMARK  status: ('A' for Active; 'I' for Inactive)
REMARK    1  A    between atoms: O_21  and  C_12 
REMARK    2  A    between atoms: O_22  and  C_13 
ROOT
HETATM    1  C   UNK N   1      33.098  10.904   9.161  0.00  0.00     0.040 C 
HETATM    2  C   UNK N   1      34.878  16.246   9.757  0.00  0.00     0.003 C 
HETATM    3  C   UNK N   1      35.262  16.320  11.183  0.00  0.00    -0.001 C 
HETATM    4  C   UNK N   1      34.753  17.347   9.004  0.00  0.00     0.050 C 
HETATM    5  C   UNK N   1      35.656  15.252  11.902  0.00  0.00     0.007 C 
HETATM    6  C   UNK N   1      35.321  11.870   9.914  0.00  0.00     0.067 C 
HETATM    7  C   UNK N   1      33.236  16.219   7.216  0.00  0.00     0.124 C 
HETATM    8  C   UNK N   1      34.002  13.847   3.686  0.00  0.00     0.076 A 
HETATM    9  C   UNK N   1      34.498  11.315   8.735  0.00  0.00     0.130 C 
HETATM   10  C   UNK N   1      34.233  17.293   7.614  0.00  0.00     0.153 C 
HETATM   11  C   UNK N   1      33.517  15.386   5.986  0.00  0.00    -0.007 A 
HETATM   12  C   UNK N   1      34.092  13.248   4.939  0.00  0.00     0.085 A 
HETATM   13  C   UNK N   1      33.657  15.186   3.559  0.00  0.00     0.090 A 
HETATM   14  C   UNK N   1      35.890  13.878  11.323  0.00  0.00     0.174 A 
HETATM   15  C   UNK N   1      34.793  13.083  10.687  0.00  0.00     0.157 A 
HETATM   16  C   UNK N   1      33.832  13.999   6.112  0.00  0.00     0.081 A 
HETATM   17  C   UNK N   1      33.417  15.965   4.697  0.00  0.00     0.075 A 
HETATM   18  C   UNK N   1      33.844  13.310   7.444  0.00  0.00     0.297 C 
HETATM   19 Cl   UNK N   1      32.942  17.650   4.472  0.00  0.00    -0.081 Cl
HETATM   20  O   UNK N   1      34.441  18.239   6.873  0.00  0.00    -0.293 OA
HETATM   21  O   UNK N   1      33.204  13.781   8.370  0.00  0.00    -0.259 OA
HETATM   22  O   UNK N   1      34.478  12.115   7.598  0.00  0.00    -0.312 OA
HETATM   23  O   UNK N   1      35.139  12.936  12.041  0.00  0.00    -0.371 OA
ENDROOT
BRANCH  12  24
HETATM   24  O   UNK N   1      34.379  11.937   5.003  0.00  0.00    -0.360 OA
HETATM   25  H   UNK N   1      34.688  11.457   4.259  0.00  0.00     0.217 HD
ENDBRANCH  12  24
BRANCH  13  26
HETATM   26  O   UNK N   1      33.544  15.722   2.331  0.00  0.00    -0.359 OA
HETATM   27  H   UNK N   1      33.903  16.567   2.149  0.00  0.00     0.217 HD
ENDBRANCH  13  26
TORSDOF 2
ENDMDL
MODEL 9
REMARK VINA RESULT:      -6.6     13.525     17.556
REMARK  2 active torsions:
REMARK  status: ('A' for Active; 'I' for Inactive)
REMARK    1  A    between atoms: O_21  and  C_12 
REMARK    2  A    between atoms: O_22  and  C_13 
ROOT
HETATM    1  C   UNK N   1      35.653  11.971   4.268  0.00  0.00     0.040 C 
HETATM    2  C   UNK N   1      33.403  16.996   5.592  0.00  0.00     0.003 C 
HETATM    3  C   UNK N   1      33.005  17.548   4.279  0.00  0.00    -0.001 C 
HETATM    4  C   UNK N   1      33.435  17.757   6.695  0.00  0.00     0.050 C 
HETATM    5  C   UNK N   1      32.703  16.782   3.214  0.00  0.00     0.007 C 
HETATM    6  C   UNK N   1      33.349  12.952   3.857  0.00  0.00     0.067 C 
HETATM    7  C   UNK N   1      35.057  16.192   7.995  0.00  0.00     0.124 C 
HETATM    8  C   UNK N   1      34.525  12.649  10.411  0.00  0.00     0.076 A 
HETATM    9  C   UNK N   1      34.224  12.081   4.777  0.00  0.00     0.130 C 
HETATM   10  C   UNK N   1      33.966  17.249   7.985  0.00  0.00     0.153 C 
HETATM   11  C   UNK N   1      34.858  14.950   8.834  0.00  0.00    -0.007 A 
HETATM   12  C   UNK N   1      34.481  12.538   9.024  0.00  0.00     0.085 A 
HETATM   13  C   UNK N   1      34.751  13.875  11.021  0.00  0.00     0.090 A 
HETATM   14  C   UNK N   1      32.595  15.278   3.252  0.00  0.00     0.174 A 
HETATM   15  C   UNK N   1      33.762  14.402   3.587  0.00  0.00     0.157 A 
HETATM   16  C   UNK N   1      34.666  13.681   8.208  0.00  0.00     0.081 A 
HETATM   17  C   UNK N   1      34.914  15.031  10.247  0.00  0.00     0.075 A 
HETATM   18  C   UNK N   1      34.707  13.521   6.717  0.00  0.00     0.297 C 
HETATM   19 Cl   UNK N   1      35.239  16.553  11.077  0.00  0.00    -0.081 Cl
HETATM   20  O   UNK N   1      33.679  17.842   9.011  0.00  0.00    -0.293 OA
HETATM   21  O   UNK N   1      35.297  14.348   6.040  0.00  0.00    -0.259 OA
HETATM   22  O   UNK N   1      34.181  12.414   6.127  0.00  0.00    -0.312 OA
HETATM   23  O   UNK N   1      33.422  14.727   2.262  0.00  0.00    -0.371 OA
ENDROOT
BRANCH  12  24
HETATM   24  O   UNK N   1      34.311  11.319   8.484  0.00  0.00    -0.360 OA
HETATM   25  H   UNK N   1      33.518  10.831   8.595  0.00  0.00     0.217 HD
ENDBRANCH  12  24
BRANCH  13  26
HETATM   26  O   UNK N   1      34.824  13.938  12.362  0.00  0.00    -0.359 OA
HETATM   27  H   UNK N   1      35.629  13.748  12.801  0.00  0.00     0.217 HD
ENDBRANCH  13  26
TORSDOF 2
ENDMDL
