MODEL 1
REMARK VINA RESULT:      -3.5      0.000      0.000
REMARK  2 active torsions:
REMARK  status: ('A' for Active; 'I' for Inactive)
REMARK    1  A    between atoms: S_2  and  C_3 
REMARK    2  A    between atoms: C_3  and  C_4 
ROOT
HETATM    1  C   UNK N   1      33.863  17.272   8.929  0.00  0.00     0.186 C 
ENDROOT
BRANCH   1   2
HETATM    2  S   UNK N   1      34.887  15.813   9.327  0.00  0.00    -0.163 SA
HETATM    3  C   UNK N   1      35.417  16.504  10.922  0.00  0.00     0.090 C 
ENDBRANCH   1   2
BRANCH   1   4
HETATM    4  C   UNK N   1      34.546  18.247   8.011  0.00  0.00     0.182 C 
HETATM    5  O   UNK N   1      35.294  19.234   8.536  0.00  0.00    -0.647 OA
HETATM    6  O   UNK N   1      34.432  18.158   6.798  0.00  0.00    -0.647 OA
ENDBRANCH   1   4
TORSDOF 2
ENDMDL
MODEL 2
REMARK VINA RESULT:      -3.4      1.559      2.303
REMARK  2 active torsions:
REMARK  status: ('A' for Active; 'I' for Inactive)
REMARK    1  A    between atoms: S_2  and  C_3 
REMARK    2  A    between atoms: C_3  and  C_4 
ROOT
HETATM    1  C   UNK N   1      33.880  17.276   8.949  0.00  0.00     0.186 C 
ENDROOT
BRANCH   1   2
HETATM    2  S   UNK N   1      32.428  16.454   8.209  0.00  0.00    -0.163 SA
HETATM    3  C   UNK N   1      31.337  17.865   8.552  0.00  0.00     0.090 C 
ENDBRANCH   1   2
BRANCH   1   4
HETATM    4  C   UNK N   1      34.554  18.246   8.019  0.00  0.00     0.182 C 
HETATM    5  O   UNK N   1      35.290  19.249   8.533  0.00  0.00    -0.647 OA
HETATM    6  O   UNK N   1      34.445  18.139   6.807  0.00  0.00    -0.647 OA
ENDBRANCH   1   4
TORSDOF 2
ENDMDL
MODEL 3
REMARK VINA RESULT:      -3.0     15.104     15.574
REMARK  2 active torsions:
REMARK  status: ('A' for Active; 'I' for Inactive)
REMARK    1  A    between atoms: S_2  and  C_3 
REMARK    2  A    between atoms: C_3  and  C_4 
ROOT
HETATM    1  C   UNK N   1      20.201  19.773   2.638  0.00  0.00     0.186 C 
ENDROOT
BRANCH   1   2
HETATM    2  S   UNK N   1      20.756  18.088   3.071  0.00  0.00    -0.163 SA
HETATM    3  C   UNK N   1      20.106  17.378   1.530  0.00  0.00     0.090 C 
ENDBRANCH   1   2
BRANCH   1   4
HETATM    4  C   UNK N   1      21.275  20.608   1.998  0.00  0.00     0.182 C 
HETATM    5  O   UNK N   1      21.364  20.651   0.656  0.00  0.00    -0.647 OA
HETATM    6  O   UNK N   1      22.066  21.247   2.675  0.00  0.00    -0.647 OA
ENDBRANCH   1   4
TORSDOF 2
ENDMDL
MODEL 4
REMARK VINA RESULT:      -2.8     13.261     14.032
REMARK  2 active torsions:
REMARK  status: ('A' for Active; 'I' for Inactive)
REMARK    1  A    between atoms: S_2  and  C_3 
REMARK    2  A    between atoms: C_3  and  C_4 
ROOT
HETATM    1  C   UNK N   1      30.200  22.598  -3.837  0.00  0.00     0.186 C 
ENDROOT
BRANCH   1   2
HETATM    2  S   UNK N   1      31.319  22.316  -5.252  0.00  0.00    -0.163 SA
HETATM    3  C   UNK N   1      30.402  20.848  -5.805  0.00  0.00     0.090 C 
ENDBRANCH   1   2
BRANCH   1   4
HETATM    4  C   UNK N   1      30.888  22.497  -2.504  0.00  0.00     0.182 C 
HETATM    5  O   UNK N   1      30.332  23.083  -1.429  0.00  0.00    -0.647 OA
HETATM    6  O   UNK N   1      31.943  21.892  -2.382  0.00  0.00    -0.647 OA
ENDBRANCH   1   4
TORSDOF 2
ENDMDL
MODEL 5
REMARK VINA RESULT:      -2.6      2.595      3.554
REMARK  2 active torsions:
REMARK  status: ('A' for Active; 'I' for Inactive)
REMARK    1  A    between atoms: S_2  and  C_3 
REMARK    2  A    between atoms: C_3  and  C_4 
ROOT
HETATM    1  C   UNK N   1      34.305  16.505   8.693  0.00  0.00     0.186 C 
ENDROOT
BRANCH   1   2
HETATM    2  S   UNK N   1      34.066  18.152   7.941  0.00  0.00    -0.163 SA
HETATM    3  C   UNK N   1      33.617  17.452   6.326  0.00  0.00     0.090 C 
ENDBRANCH   1   2
BRANCH   1   4
HETATM    4  C   UNK N   1      34.925  16.560  10.062  0.00  0.00     0.182 C 
HETATM    5  O   UNK N   1      34.670  15.574  10.941  0.00  0.00    -0.647 OA
HETATM    6  O   UNK N   1      35.656  17.483  10.388  0.00  0.00    -0.647 OA
ENDBRANCH   1   4
TORSDOF 2
ENDMDL
MODEL 6
REMARK VINA RESULT:      -2.6     11.376     11.745
REMARK  2 active torsions:
REMARK  status: ('A' for Active; 'I' for Inactive)
REMARK    1  A    between atoms: S_2  and  C_3 
REMARK    2  A    between atoms: C_3  and  C_4 
ROOT
HETATM    1  C   UNK N   1      43.077  21.944   3.110  0.00  0.00     0.186 C 
ENDROOT
BRANCH   1   2
HETATM    2  S   UNK N   1      42.904  22.553   1.397  0.00  0.00    -0.163 SA
HETATM    3  C   UNK N   1      41.181  23.068   1.654  0.00  0.00     0.090 C 
ENDBRANCH   1   2
BRANCH   1   4
HETATM    4  C   UNK N   1      43.666  22.961   4.047  0.00  0.00     0.182 C 
HETATM    5  O   UNK N   1      43.878  22.627   5.333  0.00  0.00    -0.647 OA
HETATM    6  O   UNK N   1      43.956  24.083   3.661  0.00  0.00    -0.647 OA
ENDBRANCH   1   4
TORSDOF 2
ENDMDL
MODEL 7
REMARK VINA RESULT:      -2.5     13.705     14.752
REMARK  2 active torsions:
REMARK  status: ('A' for Active; 'I' for Inactive)
REMARK    1  A    between atoms: S_2  and  C_3 
REMARK    2  A    between atoms: C_3  and  C_4 
ROOT
HETATM    1  C   UNK N   1      29.562  24.134  -3.352  0.00  0.00     0.186 C 
ENDROOT
BRANCH   1   2
HETATM    2  S   UNK N   1      29.132  23.240  -4.885  0.00  0.00    -0.163 SA
HETATM    3  C   UNK N   1      27.553  24.121  -5.067  0.00  0.00     0.090 C 
ENDBRANCH   1   2
BRANCH   1   4
HETATM    4  C   UNK N   1      29.397  23.302  -2.111  0.00  0.00     0.182 C 
HETATM    5  O   UNK N   1      30.487  22.947  -1.406  0.00  0.00    -0.647 OA
HETATM    6  O   UNK N   1      28.292  22.944  -1.733  0.00  0.00    -0.647 OA
ENDBRANCH   1   4
TORSDOF 2
ENDMDL
MODEL 8
REMARK VINA RESULT:      -2.5     11.004     11.601
REMARK  2 active torsions:
REMARK  status: ('A' for Active; 'I' for Inactive)
REMARK    1  A    between atoms: S_2  and  C_3 
REMARK    2  A    between atoms: C_3  and  C_4 
ROOT
HETATM    1  C   UNK N   1      42.737  21.965   3.078  0.00  0.00     0.186 C 
ENDROOT
BRANCH   1   2
HETATM    2  S   UNK N   1      43.301  20.230   3.018  0.00  0.00    -0.163 SA
HETATM    3  C   UNK N   1      44.623  20.602   1.830  0.00  0.00     0.090 C 
ENDBRANCH   1   2
BRANCH   1   4
HETATM    4  C   UNK N   1      43.615  22.847   3.923  0.00  0.00     0.182 C 
HETATM    5  O   UNK N   1      44.010  24.039   3.441  0.00  0.00    -0.647 OA
HETATM    6  O   UNK N   1      43.974  22.499   5.038  0.00  0.00    -0.647 OA
ENDBRANCH   1   4
TORSDOF 2
ENDMDL
MODEL 9
REMARK VINA RESULT:      -2.4     10.707     11.063
REMARK  2 active torsions:
REMARK  status: ('A' for Active; 'I' for Inactive)
REMARK    1  A    between atoms: S_2  and  C_3 
REMARK    2  A    between atoms: C_3  and  C_4 
ROOT
HETATM    1  C   UNK N   1      42.785  22.977   2.271  0.00  0.00     0.186 C 
ENDROOT
BRANCH   1   2
HETATM    2  S   UNK N   1      42.982  21.369   3.112  0.00  0.00    -0.163 SA
HETATM    3  C   UNK N   1      43.874  22.105   4.513  0.00  0.00     0.090 C 
ENDBRANCH   1   2
BRANCH   1   4
HETATM    4  C   UNK N   1      41.363  23.281   1.891  0.00  0.00     0.182 C 
HETATM    5  O   UNK N   1      41.054  24.500   1.412  0.00  0.00    -0.647 OA
HETATM    6  O   UNK N   1      40.484  22.439   2.009  0.00  0.00    -0.647 OA
ENDBRANCH   1   4
TORSDOF 2
ENDMDL
