REMARK  26 active torsions:
REMARK  status: ('A' for Active; 'I' for Inactive)
REMARK    1  A    between atoms: C_15  and  C_14 
REMARK    2  A    between atoms: C_23  and  C_14 
REMARK    3  A    between atoms: C_26  and  C_15 
REMARK    4  A    between atoms: C_18  and  C_16 
REMARK    5  A    between atoms: C_24  and  C_16 
REMARK    6  A    between atoms: C_19  and  C_17 
REMARK    7  A    between atoms: C_25  and  C_17 
REMARK    8  A    between atoms: C_28  and  C_20 
REMARK    9  A    between atoms: C_31  and  C_21 
REMARK   10  A    between atoms: C_32  and  C_22 
REMARK   11  A    between atoms: C_29  and  C_23 
REMARK   12  A    between atoms: C_23  and  N_39 
REMARK   13  A    between atoms: C_27  and  C_24 
REMARK   14  A    between atoms: C_24  and  N_41 
REMARK   15  A    between atoms: C_30  and  C_25 
REMARK   16  A    between atoms: C_25  and  N_43 
REMARK   17  A    between atoms: O_46  and  C_26 
REMARK   18  A    between atoms: O_47  and  C_27 
REMARK   19  A    between atoms: C_28  and  O_48 
REMARK   20  A    between atoms: C_29  and  O_49 
REMARK   21  A    between atoms: C_30  and  O_50 
REMARK   22  A    between atoms: P_57  and  C_31 
REMARK   23  A    between atoms: P_58  and  C_32 
REMARK   24  A    between atoms: P_57  and  O_51 
REMARK   25  A    between atoms: P_58  and  O_54 
REMARK   26  A    between atoms: P_58  and  O_55 
ROOT
HETATM    1  O   UNK N   1      10.010  -1.263   1.151  0.00  0.00    -0.325 OA
HETATM    2  O   UNK N   1      10.363   0.302  -0.881  0.00  0.00    -0.649 OA
HETATM    3  P   UNK N   1      10.018  -1.180  -0.586  0.00  0.00     0.315 P 
HETATM    4  H   UNK N   1       9.968  -1.282   2.120  0.00  0.00     0.220 HD
ENDROOT
BRANCH   3   5
HETATM    5  C   UNK N   1       8.389  -1.659  -1.385  0.00  0.00     0.364 C 
HETATM    6  F   UNK N   1       8.535  -1.759  -2.755  0.00  0.00    -0.187 F 
HETATM    7  F   UNK N   1       7.493  -0.640  -1.104  0.00  0.00    -0.187 F 
BRANCH   5   8
HETATM    8  C   UNK N   1       7.804  -2.912  -0.792  0.00  0.00     0.025 C 
HETATM    9  C   UNK N   1       8.445  -3.553   0.276  0.00  0.00     0.014 C 
HETATM   10  C   UNK N   1       7.741  -4.406   1.107  0.00  0.00     0.008 C 
HETATM   11  C   UNK N   1       6.398  -4.646   0.862  0.00  0.00    -0.056 C 
HETATM   12  C   UNK N   1       5.788  -4.144  -0.297  0.00  0.00     0.008 C 
HETATM   13  C   UNK N   1       6.490  -3.269  -1.123  0.00  0.00     0.014 C 
BRANCH  11  14
HETATM   14  C   UNK N   1       5.581  -5.119   2.008  0.00  0.00     0.072 C 
BRANCH  14  15
HETATM   15  C   UNK N   1       4.441  -4.130   2.354  0.00  0.00     0.161 C 
BRANCH  15  16
HETATM   16  C   UNK N   1       4.726  -2.627   2.322  0.00  0.00     0.132 C 
HETATM   17  N   UNK N   1       3.801  -1.800   2.651  0.00  0.00    -0.382 N 
HETATM   18  H   UNK N   1       3.996  -0.869   2.904  0.00  0.00     0.158 HD
ATOM     19  HN  UNK N   1       2.832  -2.119   2.651  1.00  0.00     0.158 HD
BRANCH  16  20
HETATM   20  O   UNK N   1       5.937  -2.146   1.983  0.00  0.00    -0.348 OA
HETATM   21  H   UNK N   1       6.649  -2.708   1.747  0.00  0.00     0.219 HD
ENDBRANCH  16  20
ENDBRANCH  15  16
BRANCH  15  22
HETATM   22  N   UNK N   1       3.317  -4.540   1.551  0.00  0.00    -0.360 N 
HETATM   23  C   UNK N   1       2.766  -3.992   0.519  0.00  0.00     0.135 C 
ATOM     24  HN  UNK N   1       2.881  -5.413   1.849  1.00  0.00     0.162 HD
BRANCH  23  25
HETATM   25  C   UNK N   1       1.591  -4.697  -0.051  0.00  0.00     0.162 C 
BRANCH  25  26
HETATM   26  C   UNK N   1       1.700  -5.224  -1.523  0.00  0.00     0.072 C 
BRANCH  26  27
HETATM   27  C   UNK N   1       0.621  -6.251  -1.609  0.00  0.00    -0.056 C 
HETATM   28  C   UNK N   1      -0.691  -5.767  -1.677  0.00  0.00     0.008 C 
HETATM   29  C   UNK N   1      -1.698  -6.392  -0.952  0.00  0.00     0.014 C 
HETATM   30  C   UNK N   1      -1.393  -7.498  -0.150  0.00  0.00     0.025 C 
HETATM   31  C   UNK N   1      -0.119  -8.072  -0.209  0.00  0.00     0.014 C 
HETATM   32  C   UNK N   1       0.887  -7.447  -0.933  0.00  0.00     0.008 C 
BRANCH  30  33
HETATM   33  C   UNK N   1      -2.377  -7.971   0.870  0.00  0.00     0.364 C 
HETATM   34  F   UNK N   1      -2.681  -6.916   1.716  0.00  0.00    -0.187 F 
HETATM   35  F   UNK N   1      -1.841  -8.997   1.630  0.00  0.00    -0.187 F 
BRANCH  33  36
HETATM   36  P   UNK N   1      -3.923  -8.564   0.056  0.00  0.00     0.315 P 
HETATM   37  O   UNK N   1      -4.921  -9.080   1.126  0.00  0.00    -0.649 OA
BRANCH  36  38
HETATM   38  O   UNK N   1      -4.802  -7.347  -0.815  0.00  0.00    -0.325 OA
HETATM   39  H   UNK N   1      -4.459  -6.582  -1.301  0.00  0.00     0.220 HD
ENDBRANCH  36  38
BRANCH  36  40
HETATM   40  O   UNK N   1      -3.684  -9.908  -1.011  0.00  0.00    -0.325 OA
HETATM   41  H   UNK N   1      -4.269 -10.401  -1.608  0.00  0.00     0.220 HD
ENDBRANCH  36  40
ENDBRANCH  33  36
ENDBRANCH  30  33
ENDBRANCH  26  27
ENDBRANCH  25  26
BRANCH  25  42
HETATM   42  N   UNK N   1       0.388  -3.944   0.219  0.00  0.00    -0.360 N 
HETATM   43  C   UNK N   1      -0.083  -3.006  -0.523  0.00  0.00     0.135 C 
ATOM     44  HN  UNK N   1      -0.130  -4.176   1.067  1.00  0.00     0.162 HD
BRANCH  43  45
HETATM   45  C   UNK N   1      -1.328  -2.277  -0.105  0.00  0.00     0.158 C 
BRANCH  45  46
HETATM   46  C   UNK N   1      -1.874  -2.758   1.253  0.00  0.00     0.044 C 
BRANCH  46  47
HETATM   47  C   UNK N   1      -3.315  -2.324   1.512  0.00  0.00     0.112 C 
BRANCH  47  48
HETATM   48  C   UNK N   1      -4.257  -2.881   0.486  0.00  0.00     0.139 C 
HETATM   49  O   UNK N   1      -4.355  -4.087   0.323  0.00  0.00    -0.650 OA
BRANCH  48  50
HETATM   50  O   UNK N   1      -4.979  -2.041  -0.279  0.00  0.00    -0.776 OA
HETATM   51  H   UNK N   1      -4.723  -1.313  -0.811  0.00  0.00     0.167 HD
ENDBRANCH  48  50
ENDBRANCH  47  48
ENDBRANCH  46  47
ENDBRANCH  45  46
BRANCH  45  52
HETATM   52  N   UNK N   1      -1.050  -0.855  -0.128  0.00  0.00    -0.358 N 
HETATM   53  C   UNK N   1      -0.069  -0.287   0.484  0.00  0.00     0.146 C 
ATOM     54  HN  UNK N   1      -1.678  -0.260  -0.668  1.00  0.00     0.162 HD
BRANCH  53  55
HETATM   55  C   UNK N   1       0.249   1.115   0.178  0.00  0.00     0.014 A 
HETATM   56  C   UNK N   1      -0.618   1.865  -0.636  0.00  0.00     0.016 A 
HETATM   57  C   UNK N   1      -0.272   3.159  -1.026  0.00  0.00     0.001 A 
HETATM   58  C   UNK N   1       0.950   3.704  -0.627  0.00  0.00     0.000 A 
HETATM   59  C   UNK N   1       1.819   2.961   0.178  0.00  0.00     0.001 A 
HETATM   60  C   UNK N   1       1.468   1.670   0.580  0.00  0.00     0.016 A 
ENDBRANCH  53  55
BRANCH  53  61
HETATM   61  O   UNK N   1       0.761  -1.001   1.286  0.00  0.00    -0.346 OA
HETATM   62  H   UNK N   1       0.622  -1.744   1.840  0.00  0.00     0.219 HD
ENDBRANCH  53  61
ENDBRANCH  45  52
ENDBRANCH  43  45
BRANCH  43  63
HETATM   63  O   UNK N   1       0.530  -2.658  -1.674  0.00  0.00    -0.348 OA
HETATM   64  H   UNK N   1       0.952  -2.906  -2.473  0.00  0.00     0.219 HD
ENDBRANCH  43  63
ENDBRANCH  25  42
ENDBRANCH  23  25
BRANCH  23  65
HETATM   65  O   UNK N   1       3.201  -2.827  -0.004  0.00  0.00    -0.348 OA
HETATM   66  H   UNK N   1       4.053  -2.683  -0.368  0.00  0.00     0.219 HD
ENDBRANCH  23  65
ENDBRANCH  15  22
ENDBRANCH  14  15
ENDBRANCH  11  14
ENDBRANCH   5   8
ENDBRANCH   3   5
BRANCH   3  67
HETATM   67  O   UNK N   1      11.405  -2.072  -1.123  0.00  0.00    -0.325 OA
HETATM   68  H   UNK N   1      11.360  -2.993  -1.423  0.00  0.00     0.220 HD
ENDBRANCH   3  67
TORSDOF 26
