REMARK  16 active torsions:
REMARK  status: ('A' for Active; 'I' for Inactive)
REMARK    1  A    between atoms: C_2  and  C_1 
REMARK    2  A    between atoms: C_5  and  C_1 
REMARK    3  A    between atoms: C_10  and  C_2 
REMARK    4  A    between atoms: C_11  and  C_5 
REMARK    5  A    between atoms: C_16  and  C_10 
REMARK    6  A    between atoms: C_21  and  C_11 
REMARK    7  A    between atoms: C_24  and  C_16 
REMARK    8  A    between atoms: C_18  and  C_17 
REMARK    9  A    between atoms: C_22  and  C_17 
REMARK   10  A    between atoms: C_23  and  C_18 
REMARK   11  A    between atoms: C_20  and  C_19 
REMARK   12  A    between atoms: C_23  and  C_19 
REMARK   13  A    between atoms: C_25  and  C_20 
REMARK   14  A    between atoms: C_23  and  N_26 
REMARK   15  A    between atoms: C_24  and  O_28 
REMARK   16  A    between atoms: O_30  and  C_25 
ROOT
HETATM    1  C   UNK N   1       2.116   4.425   0.027  0.00  0.00     0.111 C 
HETATM    2  N   UNK N   1       1.878   3.168  -0.136  0.00  0.00    -0.370 N 
ATOM      3  HN  UNK N   1       0.916   2.846  -0.025  1.00  0.00     0.161 HD
ENDROOT
BRANCH   2   4
HETATM    4  C   UNK N   1       2.893   2.181  -0.466  0.00  0.00     0.084 C 
BRANCH   4   5
HETATM    5  C   UNK N   1       2.209   0.853  -0.768  0.00  0.00     0.029 C 
BRANCH   5   6
HETATM    6  C   UNK N   1       1.395   0.327   0.409  0.00  0.00     0.040 C 
BRANCH   6   7
HETATM    7  C   UNK N   1       1.171  -1.136   0.253  0.00  0.00    -0.058 A 
HETATM    8  C   UNK N   1       2.254  -2.024   0.295  0.00  0.00     0.007 A 
HETATM    9  C   UNK N   1       2.039  -3.397   0.144  0.00  0.00     0.001 A 
HETATM   10  C   UNK N   1       0.743  -3.884  -0.049  0.00  0.00     0.000 A 
HETATM   11  C   UNK N   1      -0.339  -2.999  -0.086  0.00  0.00     0.001 A 
HETATM   12  C   UNK N   1      -0.126  -1.625   0.066  0.00  0.00     0.007 A 
ENDBRANCH   6   7
ENDBRANCH   5   6
ENDBRANCH   4   5
BRANCH   4  13
HETATM   13  C   UNK N   1       3.887   1.958   0.686  0.00  0.00     0.035 C 
BRANCH  13  14
HETATM   14  C   UNK N   1       5.080   2.907   0.654  0.00  0.00     0.112 C 
BRANCH  14  15
HETATM   15  C   UNK N   1       6.330   2.231   0.174  0.00  0.00     0.139 C 
HETATM   16  O   UNK N   1       7.352   2.883   0.043  0.00  0.00    -0.650 OA
BRANCH  15  17
HETATM   17  O   UNK N   1       6.342   0.911  -0.101  0.00  0.00    -0.776 OA
HETATM   18  H   UNK N   1       5.552   0.445  -0.292  0.00  0.00     0.167 HD
ENDBRANCH  15  17
ENDBRANCH  14  15
ENDBRANCH  13  14
ENDBRANCH   4  13
ENDBRANCH   2   4
BRANCH   1  19
HETATM   19  C   UNK N   1       0.979   5.344   0.381  0.00  0.00     0.083 C 
BRANCH  19  20
HETATM   20  C   UNK N   1       1.412   6.776   0.689  0.00  0.00     0.008 C 
BRANCH  20  21
HETATM   21  C   UNK N   1       1.945   7.481  -0.548  0.00  0.00     0.000 C 
BRANCH  21  22
HETATM   22  C   UNK N   1       3.443   7.721  -0.412  0.00  0.00     0.000 C 
BRANCH  22  23
HETATM   23  C   UNK N   1       3.744   8.929   0.457  0.00  0.00     0.005 C 
BRANCH  23  24
HETATM   24  C   UNK N   1       3.762  10.173  -0.414  0.00  0.00     0.038 C 
BRANCH  24  25
HETATM   25  C   UNK N   1       2.571  11.036  -0.168  0.00  0.00    -0.058 A 
HETATM   26  C   UNK N   1       1.274  10.537  -0.348  0.00  0.00     0.007 A 
HETATM   27  C   UNK N   1       0.168  11.361  -0.134  0.00  0.00     0.001 A 
HETATM   28  C   UNK N   1       0.354  12.692   0.248  0.00  0.00     0.000 A 
HETATM   29  C   UNK N   1       1.647  13.197   0.420  0.00  0.00     0.001 A 
HETATM   30  C   UNK N   1       2.754  12.369   0.213  0.00  0.00     0.007 A 
ENDBRANCH  24  25
ENDBRANCH  23  24
ENDBRANCH  22  23
ENDBRANCH  21  22
ENDBRANCH  20  21
ENDBRANCH  19  20
ENDBRANCH   1  19
BRANCH   1  31
HETATM   31  O   UNK N   1       3.361   4.911  -0.132  0.00  0.00    -0.350 OA
HETATM   32  H   UNK N   1       4.088   4.330  -0.242  0.00  0.00     0.219 HD
ENDBRANCH   1  31
TORSDOF 16
