MODEL 1
REMARK VINA RESULT:      -5.9      0.000      0.000
REMARK  8 active torsions:
REMARK  status: ('A' for Active; 'I' for Inactive)
REMARK    1  A    between atoms: C_4  and  C_1 
REMARK    2  A    between atoms: N_17  and  C_1 
REMARK    3  A    between atoms: C_6  and  C_4 
REMARK    4  A    between atoms: C_4  and  O_18 
REMARK    5  A    between atoms: C_9  and  C_6 
REMARK    6  A    between atoms: C_6  and  O_19 
REMARK    7  A    between atoms: N_10  and  C_7 
REMARK    8  A    between atoms: O_21  and  C_9 
ROOT
HETATM    1  C   UNK N   1      28.675  17.830   8.693  0.00  0.00     0.183 A 
HETATM    2  C   UNK N   1      30.494  17.508   4.667  0.00  0.00     0.185 A 
HETATM    3  C   UNK N   1      28.898  18.055   5.988  0.00  0.00     0.122 A 
HETATM    4  C   UNK N   1      27.738  18.499   6.604  0.00  0.00     0.131 A 
HETATM    5  C   UNK N   1      29.893  17.523   6.724  0.00  0.00     0.140 A 
HETATM    6  N   UNK N   1      27.648  18.378   7.962  0.00  0.00    -0.337 N 
ATOM      7  HN  UNK N   1      26.806  18.701   8.441  1.00  0.00     0.168 HD
HETATM    8  N   UNK N   1      29.812  17.392   8.070  0.00  0.00    -0.336 N 
ATOM      9  HN  UNK N   1      30.576  16.978   8.604  1.00  0.00     0.168 HD
HETATM   10  N   UNK N   1      29.245  18.058   4.686  0.00  0.00    -0.346 N 
ATOM     11  HN  UNK N   1      28.698  18.395   3.895  1.00  0.00     0.167 HD
HETATM   12  N   UNK N   1      30.907  17.178   5.917  0.00  0.00    -0.325 N 
ENDROOT
BRANCH  12  13
HETATM   13  C   UNK N   1      32.182  16.553   6.272  0.00  0.00     0.166 C 
BRANCH  13  14
HETATM   14  C   UNK N   1      33.160  17.559   6.887  0.00  0.00     0.175 C 
BRANCH  14  15
HETATM   15  C   UNK N   1      33.641  17.123   8.283  0.00  0.00     0.245 C 
BRANCH  15  16
HETATM   16  C   UNK N   1      34.735  18.001   8.842  0.00  0.00     0.172 C 
HETATM   17  O   UNK N   1      35.009  19.063   8.300  0.00  0.00    -0.648 OA
BRANCH  16  18
HETATM   18  O   UNK N   1      35.411  17.630   9.945  0.00  0.00    -0.774 OA
HETATM   19  H   UNK N   1      35.380  16.844  10.455  0.00  0.00     0.167 HD
ENDBRANCH  16  18
ENDBRANCH  15  16
BRANCH  15  20
HETATM   20  O   UNK N   1      32.549  17.130   9.156  0.00  0.00    -0.382 OA
HETATM   21  H   UNK N   1      32.115  17.831   9.667  0.00  0.00     0.210 HD
ENDBRANCH  15  20
ENDBRANCH  14  15
BRANCH  14  22
HETATM   22  O   UNK N   1      34.242  17.774   6.030  0.00  0.00    -0.391 OA
HETATM   23  H   UNK N   1      35.024  18.288   5.772  0.00  0.00     0.210 HD
ENDBRANCH  14  22
ENDBRANCH  13  14
ENDBRANCH  12  13
BRANCH   4  24
HETATM   24  N   UNK N   1      26.679  19.058   5.860  0.00  0.00    -0.383 N 
HETATM   25  H   UNK N   1      26.828  19.814   5.249  0.00  0.00     0.157 HD
HETATM   26  H   UNK N   1      25.774  18.683   5.953  0.00  0.00     0.157 HD
ENDBRANCH   4  24
TORSDOF 8
ENDMDL
MODEL 2
REMARK VINA RESULT:      -5.6      5.744      8.086
REMARK  8 active torsions:
REMARK  status: ('A' for Active; 'I' for Inactive)
REMARK    1  A    between atoms: C_4  and  C_1 
REMARK    2  A    between atoms: N_17  and  C_1 
REMARK    3  A    between atoms: C_6  and  C_4 
REMARK    4  A    between atoms: C_4  and  O_18 
REMARK    5  A    between atoms: C_9  and  C_6 
REMARK    6  A    between atoms: C_6  and  O_19 
REMARK    7  A    between atoms: N_10  and  C_7 
REMARK    8  A    between atoms: O_21  and  C_9 
ROOT
HETATM    1  C   UNK N   1      36.425  14.188  13.784  0.00  0.00     0.183 A 
HETATM    2  C   UNK N   1      34.977  12.995   9.772  0.00  0.00     0.185 A 
HETATM    3  C   UNK N   1      36.172  12.690  11.523  0.00  0.00     0.122 A 
HETATM    4  C   UNK N   1      37.027  12.254  12.525  0.00  0.00     0.131 A 
HETATM    5  C   UNK N   1      35.482  13.836  11.676  0.00  0.00     0.140 A 
HETATM    6  N   UNK N   1      37.137  13.020  13.651  0.00  0.00    -0.337 N 
ATOM      7  HN  UNK N   1      37.757  12.720  14.404  1.00  0.00     0.168 HD
HETATM    8  N   UNK N   1      35.588  14.608  12.785  0.00  0.00    -0.336 N 
ATOM      9  HN  UNK N   1      35.061  15.476  12.873  1.00  0.00     0.168 HD
HETATM   10  N   UNK N   1      35.878  12.135  10.332  0.00  0.00    -0.346 N 
ATOM     11  HN  UNK N   1      36.245  11.270   9.938  1.00  0.00     0.167 HD
HETATM   12  N   UNK N   1      34.721  14.045  10.591  0.00  0.00    -0.325 N 
ENDROOT
BRANCH  12  13
HETATM   13  C   UNK N   1      33.823  15.166  10.310  0.00  0.00     0.166 C 
BRANCH  13  14
HETATM   14  C   UNK N   1      34.582  16.389   9.785  0.00  0.00     0.175 C 
BRANCH  14  15
HETATM   15  C   UNK N   1      33.712  17.262   8.863  0.00  0.00     0.245 C 
BRANCH  15  16
HETATM   16  C   UNK N   1      34.513  18.197   7.989  0.00  0.00     0.172 C 
HETATM   17  O   UNK N   1      34.472  18.087   6.772  0.00  0.00    -0.648 OA
BRANCH  16  18
HETATM   18  O   UNK N   1      35.270  19.164   8.540  0.00  0.00    -0.774 OA
HETATM   19  H   UNK N   1      35.096  20.071   8.696  0.00  0.00     0.167 HD
ENDBRANCH  16  18
ENDBRANCH  15  16
BRANCH  15  20
HETATM   20  O   UNK N   1      32.935  16.425   8.056  0.00  0.00    -0.382 OA
HETATM   21  H   UNK N   1      32.096  15.958   8.200  0.00  0.00     0.210 HD
ENDBRANCH  15  20
ENDBRANCH  14  15
BRANCH  14  22
HETATM   22  O   UNK N   1      35.093  17.140  10.848  0.00  0.00    -0.391 OA
HETATM   23  H   UNK N   1      35.338  17.995  11.234  0.00  0.00     0.210 HD
ENDBRANCH  14  22
ENDBRANCH  13  14
ENDBRANCH  12  13
BRANCH   4  24
HETATM   24  N   UNK N   1      37.764  11.060  12.392  0.00  0.00    -0.383 N 
HETATM   25  H   UNK N   1      38.630  10.941  12.845  0.00  0.00     0.157 HD
HETATM   26  H   UNK N   1      37.405  10.331  11.837  0.00  0.00     0.157 HD
ENDBRANCH   4  24
TORSDOF 8
ENDMDL
MODEL 3
REMARK VINA RESULT:      -5.6     10.050     12.194
REMARK  8 active torsions:
REMARK  status: ('A' for Active; 'I' for Inactive)
REMARK    1  A    between atoms: C_4  and  C_1 
REMARK    2  A    between atoms: N_17  and  C_1 
REMARK    3  A    between atoms: C_6  and  C_4 
REMARK    4  A    between atoms: C_4  and  O_18 
REMARK    5  A    between atoms: C_9  and  C_6 
REMARK    6  A    between atoms: C_6  and  O_19 
REMARK    7  A    between atoms: N_10  and  C_7 
REMARK    8  A    between atoms: O_21  and  C_9 
ROOT
HETATM    1  C   UNK N   1      21.481  12.034  11.646  0.00  0.00     0.183 A 
HETATM    2  C   UNK N   1      23.123  14.002   8.034  0.00  0.00     0.185 A 
HETATM    3  C   UNK N   1      23.340  12.872   9.841  0.00  0.00     0.122 A 
HETATM    4  C   UNK N   1      23.758  12.139  10.942  0.00  0.00     0.131 A 
HETATM    5  C   UNK N   1      22.035  13.160   9.676  0.00  0.00     0.140 A 
HETATM    6  N   UNK N   1      22.808  11.727  11.833  0.00  0.00    -0.337 N 
ATOM      7  HN  UNK N   1      23.088  11.182  12.650  1.00  0.00     0.168 HD
HETATM    8  N   UNK N   1      21.086  12.763  10.557  0.00  0.00    -0.336 N 
ATOM      9  HN  UNK N   1      20.104  13.000  10.414  1.00  0.00     0.168 HD
HETATM   10  N   UNK N   1      24.054  13.391   8.824  0.00  0.00    -0.346 N 
ATOM     11  HN  UNK N   1      25.062  13.339   8.676  1.00  0.00     0.167 HD
HETATM   12  N   UNK N   1      21.874  13.864   8.546  0.00  0.00    -0.325 N 
ENDROOT
BRANCH  12  13
HETATM   13  C   UNK N   1      20.639  14.404   7.977  0.00  0.00     0.166 C 
BRANCH  13  14
HETATM   14  C   UNK N   1      19.945  15.378   8.936  0.00  0.00     0.175 C 
BRANCH  14  15
HETATM   15  C   UNK N   1      19.429  16.636   8.215  0.00  0.00     0.245 C 
BRANCH  15  16
HETATM   16  C   UNK N   1      18.147  17.179   8.798  0.00  0.00     0.172 C 
HETATM   17  O   UNK N   1      17.075  16.664   8.513  0.00  0.00    -0.648 OA
BRANCH  16  18
HETATM   18  O   UNK N   1      18.173  18.226   9.644  0.00  0.00    -0.774 OA
HETATM   19  H   UNK N   1      18.838  18.534  10.227  0.00  0.00     0.167 HD
ENDBRANCH  16  18
ENDBRANCH  15  16
BRANCH  15  20
HETATM   20  O   UNK N   1      20.419  17.622   8.270  0.00  0.00    -0.382 OA
HETATM   21  H   UNK N   1      21.245  17.704   8.773  0.00  0.00     0.210 HD
ENDBRANCH  15  20
ENDBRANCH  14  15
BRANCH  14  22
HETATM   22  O   UNK N   1      18.911  14.735   9.622  0.00  0.00    -0.391 OA
HETATM   23  H   UNK N   1      18.565  13.957  10.087  0.00  0.00     0.210 HD
ENDBRANCH  14  22
ENDBRANCH  13  14
ENDBRANCH  12  13
BRANCH   4  24
HETATM   24  N   UNK N   1      25.117  11.825  11.142  0.00  0.00    -0.383 N 
HETATM   25  H   UNK N   1      25.387  11.021  11.643  0.00  0.00     0.157 HD
HETATM   26  H   UNK N   1      25.809  12.420  10.773  0.00  0.00     0.157 HD
ENDBRANCH   4  24
TORSDOF 8
ENDMDL
MODEL 4
REMARK VINA RESULT:      -5.6      1.623      3.170
REMARK  8 active torsions:
REMARK  status: ('A' for Active; 'I' for Inactive)
REMARK    1  A    between atoms: C_4  and  C_1 
REMARK    2  A    between atoms: N_17  and  C_1 
REMARK    3  A    between atoms: C_6  and  C_4 
REMARK    4  A    between atoms: C_4  and  O_18 
REMARK    5  A    between atoms: C_9  and  C_6 
REMARK    6  A    between atoms: C_6  and  O_19 
REMARK    7  A    between atoms: N_10  and  C_7 
REMARK    8  A    between atoms: O_21  and  C_9 
ROOT
HETATM    1  C   UNK N   1      32.040  17.279   3.861  0.00  0.00     0.183 A 
HETATM    2  C   UNK N   1      29.454  17.095   7.452  0.00  0.00     0.185 A 
HETATM    3  C   UNK N   1      29.773  16.967   5.338  0.00  0.00     0.122 A 
HETATM    4  C   UNK N   1      29.701  16.824   3.960  0.00  0.00     0.131 A 
HETATM    5  C   UNK N   1      30.949  17.256   5.926  0.00  0.00     0.140 A 
HETATM    6  N   UNK N   1      30.851  16.983   3.239  0.00  0.00    -0.337 N 
ATOM      7  HN  UNK N   1      30.826  16.879   2.224  1.00  0.00     0.168 HD
HETATM    8  N   UNK N   1      32.094  17.422   5.222  0.00  0.00    -0.336 N 
ATOM      9  HN  UNK N   1      32.972  17.649   5.690  1.00  0.00     0.168 HD
HETATM   10  N   UNK N   1      28.809  16.861   6.272  0.00  0.00    -0.346 N 
ATOM     11  HN  UNK N   1      27.821  16.653   6.130  1.00  0.00     0.167 HD
HETATM   12  N   UNK N   1      30.774  17.335   7.254  0.00  0.00    -0.325 N 
ENDROOT
BRANCH  12  13
HETATM   13  C   UNK N   1      31.765  17.641   8.287  0.00  0.00     0.166 C 
BRANCH  13  14
HETATM   14  C   UNK N   1      32.692  16.452   8.560  0.00  0.00     0.175 C 
BRANCH  14  15
HETATM   15  C   UNK N   1      34.154  16.889   8.762  0.00  0.00     0.245 C 
BRANCH  15  16
HETATM   16  C   UNK N   1      34.553  18.066   7.905  0.00  0.00     0.172 C 
HETATM   17  O   UNK N   1      34.946  19.100   8.425  0.00  0.00    -0.648 OA
BRANCH  16  18
HETATM   18  O   UNK N   1      34.489  17.985   6.563  0.00  0.00    -0.774 OA
HETATM   19  H   UNK N   1      34.990  18.407   5.893  0.00  0.00     0.167 HD
ENDBRANCH  16  18
ENDBRANCH  15  16
BRANCH  15  20
HETATM   20  O   UNK N   1      34.344  17.210  10.109  0.00  0.00    -0.382 OA
HETATM   21  H   UNK N   1      35.046  17.683  10.585  0.00  0.00     0.210 HD
ENDBRANCH  15  20
ENDBRANCH  14  15
BRANCH  14  22
HETATM   22  O   UNK N   1      32.233  15.718   9.657  0.00  0.00    -0.391 OA
HETATM   23  H   UNK N   1      31.897  14.891  10.037  0.00  0.00     0.210 HD
ENDBRANCH  14  22
ENDBRANCH  13  14
ENDBRANCH  12  13
BRANCH   4  24
HETATM   24  N   UNK N   1      28.484  16.525   3.315  0.00  0.00    -0.383 N 
HETATM   25  H   UNK N   1      27.697  17.107   3.415  0.00  0.00     0.157 HD
HETATM   26  H   UNK N   1      28.421  15.719   2.754  0.00  0.00     0.157 HD
ENDBRANCH   4  24
TORSDOF 8
ENDMDL
MODEL 5
REMARK VINA RESULT:      -5.5      2.916      4.411
REMARK  8 active torsions:
REMARK  status: ('A' for Active; 'I' for Inactive)
REMARK    1  A    between atoms: C_4  and  C_1 
REMARK    2  A    between atoms: N_17  and  C_1 
REMARK    3  A    between atoms: C_6  and  C_4 
REMARK    4  A    between atoms: C_4  and  O_18 
REMARK    5  A    between atoms: C_9  and  C_6 
REMARK    6  A    between atoms: C_6  and  O_19 
REMARK    7  A    between atoms: N_10  and  C_7 
REMARK    8  A    between atoms: O_21  and  C_9 
ROOT
HETATM    1  C   UNK N   1      30.294  17.381   8.675  0.00  0.00     0.183 A 
HETATM    2  C   UNK N   1      34.280  16.063   7.264  0.00  0.00     0.185 A 
HETATM    3  C   UNK N   1      32.187  16.412   6.973  0.00  0.00     0.122 A 
HETATM    4  C   UNK N   1      30.883  16.545   6.520  0.00  0.00     0.131 A 
HETATM    5  C   UNK N   1      32.502  16.760   8.235  0.00  0.00     0.140 A 
HETATM    6  N   UNK N   1      29.950  17.034   7.390  0.00  0.00    -0.337 N 
ATOM      7  HN  UNK N   1      28.983  17.145   7.081  1.00  0.00     0.168 HD
HETATM    8  N   UNK N   1      31.585  17.240   9.109  0.00  0.00    -0.336 N 
ATOM      9  HN  UNK N   1      31.847  17.489  10.063  1.00  0.00     0.168 HD
HETATM   10  N   UNK N   1      33.286  15.967   6.334  0.00  0.00    -0.346 N 
ATOM     11  HN  UNK N   1      33.358  15.633   5.374  1.00  0.00     0.167 HD
HETATM   12  N   UNK N   1      33.812  16.554   8.439  0.00  0.00    -0.325 N 
ENDROOT
BRANCH  12  13
HETATM   13  C   UNK N   1      34.590  16.775   9.659  0.00  0.00     0.166 C 
BRANCH  13  14
HETATM   14  C   UNK N   1      34.663  15.514  10.527  0.00  0.00     0.175 C 
BRANCH  14  15
HETATM   15  C   UNK N   1      35.738  15.623  11.623  0.00  0.00     0.245 C 
BRANCH  15  16
HETATM   16  C   UNK N   1      35.948  14.338  12.388  0.00  0.00     0.172 C 
HETATM   17  O   UNK N   1      35.022  13.833  13.006  0.00  0.00    -0.648 OA
BRANCH  16  18
HETATM   18  O   UNK N   1      37.150  13.734  12.388  0.00  0.00    -0.774 OA
HETATM   19  H   UNK N   1      37.929  13.906  11.897  0.00  0.00     0.167 HD
ENDBRANCH  16  18
ENDBRANCH  15  16
BRANCH  15  20
HETATM   20  O   UNK N   1      36.943  16.013  11.031  0.00  0.00    -0.382 OA
HETATM   21  H   UNK N   1      37.387  16.871  10.937  0.00  0.00     0.210 HD
ENDBRANCH  15  20
ENDBRANCH  14  15
BRANCH  14  22
HETATM   22  O   UNK N   1      33.411  15.229  11.080  0.00  0.00    -0.391 OA
HETATM   23  H   UNK N   1      32.707  14.595  11.290  0.00  0.00     0.210 HD
ENDBRANCH  14  22
ENDBRANCH  13  14
ENDBRANCH  12  13
BRANCH   4  24
HETATM   24  N   UNK N   1      30.522  16.187   5.205  0.00  0.00    -0.383 N 
HETATM   25  H   UNK N   1      31.053  16.484   4.432  0.00  0.00     0.157 HD
HETATM   26  H   UNK N   1      29.726  15.628   5.059  0.00  0.00     0.157 HD
ENDBRANCH   4  24
TORSDOF 8
ENDMDL
MODEL 6
REMARK VINA RESULT:      -5.5     10.475     11.842
REMARK  8 active torsions:
REMARK  status: ('A' for Active; 'I' for Inactive)
REMARK    1  A    between atoms: C_4  and  C_1 
REMARK    2  A    between atoms: N_17  and  C_1 
REMARK    3  A    between atoms: C_6  and  C_4 
REMARK    4  A    between atoms: C_4  and  O_18 
REMARK    5  A    between atoms: C_9  and  C_6 
REMARK    6  A    between atoms: C_6  and  O_19 
REMARK    7  A    between atoms: N_10  and  C_7 
REMARK    8  A    between atoms: O_21  and  C_9 
ROOT
HETATM    1  C   UNK N   1      20.646  20.041   3.152  0.00  0.00     0.183 A 
HETATM    2  C   UNK N   1      21.014  15.725   4.075  0.00  0.00     0.185 A 
HETATM    3  C   UNK N   1      20.597  17.349   2.742  0.00  0.00     0.122 A 
HETATM    4  C   UNK N   1      20.282  18.194   1.688  0.00  0.00     0.131 A 
HETATM    5  C   UNK N   1      20.919  17.861   3.945  0.00  0.00     0.140 A 
HETATM    6  N   UNK N   1      20.315  19.541   1.916  0.00  0.00    -0.337 N 
ATOM      7  HN  UNK N   1      20.092  20.184   1.156  1.00  0.00     0.168 HD
HETATM    8  N   UNK N   1      20.949  19.194   4.185  0.00  0.00    -0.336 N 
ATOM      9  HN  UNK N   1      21.189  19.557   5.107  1.00  0.00     0.168 HD
HETATM   10  N   UNK N   1      20.644  16.004   2.791  0.00  0.00    -0.346 N 
ATOM     11  HN  UNK N   1      20.449  15.344   2.039  1.00  0.00     0.167 HD
HETATM   12  N   UNK N   1      21.191  16.860   4.796  0.00  0.00    -0.325 N 
ENDROOT
BRANCH  12  13
HETATM   13  C   UNK N   1      21.569  16.942   6.208  0.00  0.00     0.166 C 
BRANCH  13  14
HETATM   14  C   UNK N   1      20.445  17.530   7.068  0.00  0.00     0.175 C 
BRANCH  14  15
HETATM   15  C   UNK N   1      20.096  16.627   8.264  0.00  0.00     0.245 C 
BRANCH  15  16
HETATM   16  C   UNK N   1      18.849  17.059   8.998  0.00  0.00     0.172 C 
HETATM   17  O   UNK N   1      17.958  16.252   9.224  0.00  0.00    -0.648 OA
BRANCH  16  18
HETATM   18  O   UNK N   1      18.711  18.330   9.418  0.00  0.00    -0.774 OA
HETATM   19  H   UNK N   1      18.610  19.131   8.943  0.00  0.00     0.167 HD
ENDBRANCH  16  18
ENDBRANCH  15  16
BRANCH  15  20
HETATM   20  O   UNK N   1      19.933  15.316   7.804  0.00  0.00    -0.382 OA
HETATM   21  H   UNK N   1      19.245  14.880   7.277  0.00  0.00     0.210 HD
ENDBRANCH  15  20
ENDBRANCH  14  15
BRANCH  14  22
HETATM   22  O   UNK N   1      20.780  18.818   7.494  0.00  0.00    -0.391 OA
HETATM   23  H   UNK N   1      20.575  19.764   7.560  0.00  0.00     0.210 HD
ENDBRANCH  14  22
ENDBRANCH  13  14
ENDBRANCH  12  13
BRANCH   4  24
HETATM   24  N   UNK N   1      19.938  17.687   0.419  0.00  0.00    -0.383 N 
HETATM   25  H   UNK N   1      19.215  18.091  -0.113  0.00  0.00     0.157 HD
HETATM   26  H   UNK N   1      20.431  16.916   0.058  0.00  0.00     0.157 HD
ENDBRANCH   4  24
TORSDOF 8
ENDMDL
MODEL 7
REMARK VINA RESULT:      -5.5      9.426     11.840
REMARK  8 active torsions:
REMARK  status: ('A' for Active; 'I' for Inactive)
REMARK    1  A    between atoms: C_4  and  C_1 
REMARK    2  A    between atoms: N_17  and  C_1 
REMARK    3  A    between atoms: C_6  and  C_4 
REMARK    4  A    between atoms: C_4  and  O_18 
REMARK    5  A    between atoms: C_9  and  C_6 
REMARK    6  A    between atoms: C_6  and  O_19 
REMARK    7  A    between atoms: N_10  and  C_7 
REMARK    8  A    between atoms: O_21  and  C_9 
ROOT
HETATM    1  C   UNK N   1      23.697  15.193   3.093  0.00  0.00     0.183 A 
HETATM    2  C   UNK N   1      21.497  18.228   5.453  0.00  0.00     0.185 A 
HETATM    3  C   UNK N   1      23.248  17.079   5.007  0.00  0.00     0.122 A 
HETATM    4  C   UNK N   1      24.498  16.481   4.933  0.00  0.00     0.131 A 
HETATM    5  C   UNK N   1      22.279  16.725   4.142  0.00  0.00     0.140 A 
HETATM    6  N   UNK N   1      24.701  15.540   3.965  0.00  0.00    -0.337 N 
ATOM      7  HN  UNK N   1      25.613  15.088   3.886  1.00  0.00     0.168 HD
HETATM    8  N   UNK N   1      22.466  15.788   3.182  0.00  0.00    -0.336 N 
ATOM      9  HN  UNK N   1      21.714  15.532   2.543  1.00  0.00     0.168 HD
HETATM   10  N   UNK N   1      22.787  18.023   5.849  0.00  0.00    -0.346 N 
ATOM     11  HN  UNK N   1      23.288  18.481   6.610  1.00  0.00     0.167 HD
HETATM   12  N   UNK N   1      21.172  17.438   4.399  0.00  0.00    -0.325 N 
ENDROOT
BRANCH  12  13
HETATM   13  C   UNK N   1      19.873  17.378   3.727  0.00  0.00     0.166 C 
BRANCH  13  14
HETATM   14  C   UNK N   1      19.722  18.482   2.675  0.00  0.00     0.175 C 
BRANCH  14  15
HETATM   15  C   UNK N   1      20.505  18.168   1.387  0.00  0.00     0.245 C 
BRANCH  15  16
HETATM   16  C   UNK N   1      20.013  16.932   0.672  0.00  0.00     0.172 C 
HETATM   17  O   UNK N   1      20.750  15.965   0.539  0.00  0.00    -0.648 OA
BRANCH  16  18
HETATM   18  O   UNK N   1      18.760  16.879   0.185  0.00  0.00    -0.774 OA
HETATM   19  H   UNK N   1      18.302  16.201  -0.271  0.00  0.00     0.167 HD
ENDBRANCH  16  18
ENDBRANCH  15  16
BRANCH  15  20
HETATM   20  O   UNK N   1      20.415  19.268   0.528  0.00  0.00    -0.382 OA
HETATM   21  H   UNK N   1      20.735  20.182   0.587  0.00  0.00     0.210 HD
ENDBRANCH  15  20
ENDBRANCH  14  15
BRANCH  14  22
HETATM   22  O   UNK N   1      18.372  18.710   2.397  0.00  0.00    -0.391 OA
HETATM   23  H   UNK N   1      17.627  19.321   2.281  0.00  0.00     0.210 HD
ENDBRANCH  14  22
ENDBRANCH  13  14
ENDBRANCH  12  13
BRANCH   4  24
HETATM   24  N   UNK N   1      25.532  16.829   5.827  0.00  0.00    -0.383 N 
HETATM   25  H   UNK N   1      26.004  17.689   5.751  0.00  0.00     0.157 HD
HETATM   26  H   UNK N   1      25.784  16.199   6.540  0.00  0.00     0.157 HD
ENDBRANCH   4  24
TORSDOF 8
ENDMDL
MODEL 8
REMARK VINA RESULT:      -5.4      1.626      2.077
REMARK  8 active torsions:
REMARK  status: ('A' for Active; 'I' for Inactive)
REMARK    1  A    between atoms: C_4  and  C_1 
REMARK    2  A    between atoms: N_17  and  C_1 
REMARK    3  A    between atoms: C_6  and  C_4 
REMARK    4  A    between atoms: C_4  and  O_18 
REMARK    5  A    between atoms: C_9  and  C_6 
REMARK    6  A    between atoms: C_6  and  O_19 
REMARK    7  A    between atoms: N_10  and  C_7 
REMARK    8  A    between atoms: O_21  and  C_9 
ROOT
HETATM    1  C   UNK N   1      29.373  18.095   9.948  0.00  0.00     0.183 A 
HETATM    2  C   UNK N   1      30.884  16.782   5.997  0.00  0.00     0.185 A 
HETATM    3  C   UNK N   1      29.454  17.775   7.244  0.00  0.00     0.122 A 
HETATM    4  C   UNK N   1      28.398  18.478   7.806  0.00  0.00     0.131 A 
HETATM    5  C   UNK N   1      30.418  17.263   8.032  0.00  0.00     0.140 A 
HETATM    6  N   UNK N   1      28.379  18.628   9.163  0.00  0.00    -0.337 N 
ATOM      7  HN  UNK N   1      27.615  19.145   9.601  1.00  0.00     0.168 HD
HETATM    8  N   UNK N   1      30.406  17.399   9.380  0.00  0.00    -0.336 N 
ATOM      9  HN  UNK N   1      31.144  16.994   9.956  1.00  0.00     0.168 HD
HETATM   10  N   UNK N   1      29.716  17.488   5.955  0.00  0.00    -0.346 N 
ATOM     11  HN  UNK N   1      29.167  17.740   5.134  1.00  0.00     0.167 HD
HETATM   12  N   UNK N   1      31.330  16.639   7.270  0.00  0.00    -0.325 N 
ENDROOT
BRANCH  12  13
HETATM   13  C   UNK N   1      32.536  15.927   7.693  0.00  0.00     0.166 C 
BRANCH  13  14
HETATM   14  C   UNK N   1      33.693  16.888   7.991  0.00  0.00     0.175 C 
BRANCH  14  15
HETATM   15  C   UNK N   1      34.073  16.896   9.482  0.00  0.00     0.245 C 
BRANCH  15  16
HETATM   16  C   UNK N   1      34.252  15.513  10.063  0.00  0.00     0.172 C 
HETATM   17  O   UNK N   1      35.153  14.790   9.663  0.00  0.00    -0.648 OA
BRANCH  16  18
HETATM   18  O   UNK N   1      33.430  15.069  11.032  0.00  0.00    -0.774 OA
HETATM   19  H   UNK N   1      32.498  14.976  11.058  0.00  0.00     0.167 HD
ENDBRANCH  16  18
ENDBRANCH  15  16
BRANCH  15  20
HETATM   20  O   UNK N   1      35.257  17.622   9.640  0.00  0.00    -0.382 OA
HETATM   21  H   UNK N   1      35.446  18.518   9.962  0.00  0.00     0.210 HD
ENDBRANCH  15  20
ENDBRANCH  14  15
BRANCH  14  22
HETATM   22  O   UNK N   1      34.799  16.581   7.194  0.00  0.00    -0.391 OA
HETATM   23  H   UNK N   1      35.487  15.958   6.911  0.00  0.00     0.210 HD
ENDBRANCH  14  22
ENDBRANCH  13  14
ENDBRANCH  12  13
BRANCH   4  24
HETATM   24  N   UNK N   1      27.373  19.024   7.007  0.00  0.00    -0.383 N 
HETATM   25  H   UNK N   1      26.807  19.760   7.335  0.00  0.00     0.157 HD
HETATM   26  H   UNK N   1      27.220  18.663   6.104  0.00  0.00     0.157 HD
ENDBRANCH   4  24
TORSDOF 8
ENDMDL
MODEL 9
REMARK VINA RESULT:      -5.3     10.326     11.785
REMARK  8 active torsions:
REMARK  status: ('A' for Active; 'I' for Inactive)
REMARK    1  A    between atoms: C_4  and  C_1 
REMARK    2  A    between atoms: N_17  and  C_1 
REMARK    3  A    between atoms: C_6  and  C_4 
REMARK    4  A    between atoms: C_4  and  O_18 
REMARK    5  A    between atoms: C_9  and  C_6 
REMARK    6  A    between atoms: C_6  and  O_19 
REMARK    7  A    between atoms: N_10  and  C_7 
REMARK    8  A    between atoms: O_21  and  C_9 
ROOT
HETATM    1  C   UNK N   1      22.004  18.898   3.937  0.00  0.00     0.183 A 
HETATM    2  C   UNK N   1      19.402  15.682   5.517  0.00  0.00     0.185 A 
HETATM    3  C   UNK N   1      19.926  17.141   4.040  0.00  0.00     0.122 A 
HETATM    4  C   UNK N   1      20.034  17.989   2.947  0.00  0.00     0.131 A 
HETATM    5  C   UNK N   1      20.838  17.194   5.029  0.00  0.00     0.140 A 
HETATM    6  N   UNK N   1      21.086  18.860   2.915  0.00  0.00    -0.337 N 
ATOM      7  HN  UNK N   1      21.191  19.492   2.120  1.00  0.00     0.168 HD
HETATM    8  N   UNK N   1      21.881  18.059   5.012  0.00  0.00    -0.336 N 
ATOM      9  HN  UNK N   1      22.554  18.085   5.777  1.00  0.00     0.168 HD
HETATM   10  N   UNK N   1      19.004  16.199   4.318  0.00  0.00    -0.346 N 
ATOM     11  HN  UNK N   1      18.194  15.933   3.760  1.00  0.00     0.167 HD
HETATM   12  N   UNK N   1      20.532  16.283   5.965  0.00  0.00    -0.325 N 
ENDROOT
BRANCH  12  13
HETATM   13  C   UNK N   1      21.230  15.996   7.219  0.00  0.00     0.166 C 
BRANCH  13  14
HETATM   14  C   UNK N   1      20.446  16.496   8.437  0.00  0.00     0.175 C 
BRANCH  14  15
HETATM   15  C   UNK N   1      19.819  17.881   8.196  0.00  0.00     0.245 C 
BRANCH  15  16
HETATM   16  C   UNK N   1      19.229  18.497   9.442  0.00  0.00     0.172 C 
HETATM   17  O   UNK N   1      19.871  19.315  10.086  0.00  0.00    -0.648 OA
BRANCH  16  18
HETATM   18  O   UNK N   1      17.991  18.162   9.848  0.00  0.00    -0.774 OA
HETATM   19  H   UNK N   1      17.389  18.595  10.420  0.00  0.00     0.167 HD
ENDBRANCH  16  18
ENDBRANCH  15  16
BRANCH  15  20
HETATM   20  O   UNK N   1      20.799  18.732   7.676  0.00  0.00    -0.382 OA
HETATM   21  H   UNK N   1      20.814  19.341   6.921  0.00  0.00     0.210 HD
ENDBRANCH  15  20
ENDBRANCH  14  15
BRANCH  14  22
HETATM   22  O   UNK N   1      19.473  15.564   8.807  0.00  0.00    -0.391 OA
HETATM   23  H   UNK N   1      19.000  15.066   9.492  0.00  0.00     0.210 HD
ENDBRANCH  14  22
ENDBRANCH  13  14
ENDBRANCH  12  13
BRANCH   4  24
HETATM   24  N   UNK N   1      19.093  17.958   1.898  0.00  0.00    -0.383 N 
HETATM   25  H   UNK N   1      18.433  17.232   1.825  0.00  0.00     0.157 HD
HETATM   26  H   UNK N   1      19.097  18.678   1.226  0.00  0.00     0.157 HD
ENDBRANCH   4  24
TORSDOF 8
ENDMDL
