MODEL 1
REMARK VINA RESULT:      -7.5      0.000      0.000
REMARK  5 active torsions:
REMARK  status: ('A' for Active; 'I' for Inactive)
REMARK    1  A    between atoms: C_2  and  N_3 
REMARK    2  A    between atoms: C_2  and  C_18 
REMARK    3  A    between atoms: N_3  and  C_4 
REMARK    4  A    between atoms: C_18  and  C_19 
REMARK    5  A    between atoms: C_18  and  C_25 
ROOT
HETATM    1  N   UNK N   1      37.051  13.556  13.259  0.00  0.00    -0.370 N 
HETATM    2  H   UNK N   1      37.915  13.104  13.123  0.00  0.00     0.161 HD
ENDROOT
BRANCH   1   3
HETATM    3  C   UNK N   1      36.458  13.566  14.578  0.00  0.00     0.092 C 
HETATM    4  C   UNK N   1      37.131  14.637  15.446  0.00  0.00     0.033 C 
BRANCH   3   5
HETATM    5  C   UNK N   1      36.453  12.192  15.285  0.00  0.00     0.074 C 
BRANCH   5   6
HETATM    6  C   UNK N   1      35.772  11.155  14.381  0.00  0.00    -0.048 A 
HETATM    7  C   UNK N   1      36.489  10.062  13.871  0.00  0.00     0.008 A 
HETATM    8  C   UNK N   1      35.870   9.137  13.023  0.00  0.00     0.001 A 
HETATM    9  C   UNK N   1      34.533   9.306  12.652  0.00  0.00     0.000 A 
HETATM   10  C   UNK N   1      33.813  10.399  13.128  0.00  0.00     0.001 A 
HETATM   11  C   UNK N   1      34.426  11.314  13.984  0.00  0.00     0.008 A 
ENDBRANCH   5   6
BRANCH   5  12
HETATM   12  C   UNK N   1      35.929  12.247  16.724  0.00  0.00    -0.048 A 
HETATM   13  C   UNK N   1      35.449  13.445  17.288  0.00  0.00     0.008 A 
HETATM   14  C   UNK N   1      35.018  13.493  18.615  0.00  0.00     0.001 A 
HETATM   15  C   UNK N   1      35.060  12.342  19.401  0.00  0.00     0.000 A 
HETATM   16  C   UNK N   1      35.542  11.147  18.862  0.00  0.00     0.001 A 
HETATM   17  C   UNK N   1      35.984  11.103  17.535  0.00  0.00     0.008 A 
ENDBRANCH   5  12
ENDBRANCH   3   5
ENDBRANCH   1   3
BRANCH   1  18
HETATM   18  C   UNK N   1      36.409  14.187  12.151  0.00  0.00     0.115 A 
HETATM   19  N   UNK N   1      36.150  15.519  12.224  0.00  0.00    -0.338 N 
HETATM   20  C   UNK N   1      35.454  16.161  11.247  0.00  0.00     0.182 A 
ATOM     21  HN  UNK N   1      36.485  16.049  13.027  1.00  0.00     0.168 HD
HETATM   22  N   UNK N   1      34.987  15.475  10.171  0.00  0.00    -0.351 N 
HETATM   23  C   UNK N   1      35.231  14.150  10.031  0.00  0.00     0.050 A 
ATOM     24  HN  UNK N   1      34.447  15.965   9.457  1.00  0.00     0.166 HD
HETATM   25  C   UNK N   1      35.966  13.461  11.016  0.00  0.00     0.037 A 
HETATM   26  C   UNK N   1      34.739  13.459   8.916  0.00  0.00     0.076 A 
HETATM   27  C   UNK N   1      36.227  12.094  10.841  0.00  0.00     0.063 A 
HETATM   28  C   UNK N   1      35.748  11.411   9.726  0.00  0.00     0.155 A 
HETATM   29  F   UNK N   1      36.012  10.089   9.583  0.00  0.00    -0.203 F 
HETATM   30  C   UNK N   1      34.992  12.091   8.768  0.00  0.00     0.157 A 
HETATM   31  F   UNK N   1      34.506  11.426   7.691  0.00  0.00    -0.203 F 
ENDBRANCH   1  18
TORSDOF 5
ENDMDL
MODEL 2
REMARK VINA RESULT:      -7.5      9.114     12.642
REMARK  5 active torsions:
REMARK  status: ('A' for Active; 'I' for Inactive)
REMARK    1  A    between atoms: C_2  and  N_3 
REMARK    2  A    between atoms: C_2  and  C_18 
REMARK    3  A    between atoms: N_3  and  C_4 
REMARK    4  A    between atoms: C_18  and  C_19 
REMARK    5  A    between atoms: C_18  and  C_25 
ROOT
HETATM    1  N   UNK N   1      29.306  15.653   4.736  0.00  0.00    -0.370 N 
HETATM    2  H   UNK N   1      29.308  14.759   5.148  0.00  0.00     0.161 HD
ENDROOT
BRANCH   1   3
HETATM    3  C   UNK N   1      28.045  16.304   4.464  0.00  0.00     0.092 C 
HETATM    4  C   UNK N   1      27.716  16.206   2.969  0.00  0.00     0.033 C 
BRANCH   3   5
HETATM    5  C   UNK N   1      27.960  17.765   4.962  0.00  0.00     0.074 C 
BRANCH   5   6
HETATM    6  C   UNK N   1      28.028  17.786   6.496  0.00  0.00    -0.048 A 
HETATM    7  C   UNK N   1      27.553  16.704   7.253  0.00  0.00     0.008 A 
HETATM    8  C   UNK N   1      27.591  16.743   8.652  0.00  0.00     0.001 A 
HETATM    9  C   UNK N   1      28.079  17.874   9.312  0.00  0.00     0.000 A 
HETATM   10  C   UNK N   1      28.531  18.967   8.577  0.00  0.00     0.001 A 
HETATM   11  C   UNK N   1      28.507  18.923   7.183  0.00  0.00     0.008 A 
ENDBRANCH   5   6
BRANCH   5  12
HETATM   12  C   UNK N   1      26.798  18.554   4.349  0.00  0.00    -0.048 A 
HETATM   13  C   UNK N   1      27.018  19.728   3.604  0.00  0.00     0.008 A 
HETATM   14  C   UNK N   1      25.949  20.464   3.089  0.00  0.00     0.001 A 
HETATM   15  C   UNK N   1      24.641  20.036   3.313  0.00  0.00     0.000 A 
HETATM   16  C   UNK N   1      24.403  18.879   4.057  0.00  0.00     0.001 A 
HETATM   17  C   UNK N   1      25.475  18.149   4.582  0.00  0.00     0.008 A 
ENDBRANCH   5  12
ENDBRANCH   3   5
ENDBRANCH   1   3
BRANCH   1  18
HETATM   18  C   UNK N   1      30.549  16.282   4.421  0.00  0.00     0.115 A 
HETATM   19  N   UNK N   1      30.909  16.390   3.116  0.00  0.00    -0.338 N 
HETATM   20  C   UNK N   1      32.122  16.888   2.752  0.00  0.00     0.182 A 
ATOM     21  HN  UNK N   1      30.255  16.093   2.393  1.00  0.00     0.168 HD
HETATM   22  N   UNK N   1      33.015  17.281   3.698  0.00  0.00    -0.351 N 
HETATM   23  C   UNK N   1      32.707  17.217   5.016  0.00  0.00     0.050 A 
ATOM     24  HN  UNK N   1      33.930  17.631   3.412  1.00  0.00     0.166 HD
HETATM   25  C   UNK N   1      31.451  16.725   5.422  0.00  0.00     0.037 A 
HETATM   26  C   UNK N   1      33.641  17.624   5.977  0.00  0.00     0.076 A 
HETATM   27  C   UNK N   1      31.143  16.688   6.791  0.00  0.00     0.063 A 
HETATM   28  C   UNK N   1      32.068  17.105   7.744  0.00  0.00     0.155 A 
HETATM   29  F   UNK N   1      31.746  17.056   9.060  0.00  0.00    -0.203 F 
HETATM   30  C   UNK N   1      33.325  17.562   7.338  0.00  0.00     0.157 A 
HETATM   31  F   UNK N   1      34.236  17.949   8.264  0.00  0.00    -0.203 F 
ENDBRANCH   1  18
TORSDOF 5
ENDMDL
MODEL 3
REMARK VINA RESULT:      -7.4     20.495     24.734
REMARK  5 active torsions:
REMARK  status: ('A' for Active; 'I' for Inactive)
REMARK    1  A    between atoms: C_2  and  N_3 
REMARK    2  A    between atoms: C_2  and  C_18 
REMARK    3  A    between atoms: N_3  and  C_4 
REMARK    4  A    between atoms: C_18  and  C_19 
REMARK    5  A    between atoms: C_18  and  C_25 
ROOT
HETATM    1  N   UNK N   1      27.599  23.298  -7.476  0.00  0.00    -0.370 N 
HETATM    2  H   UNK N   1      27.818  23.909  -8.216  0.00  0.00     0.161 HD
ENDROOT
BRANCH   1   3
HETATM    3  C   UNK N   1      26.360  23.478  -6.753  0.00  0.00     0.092 C 
HETATM    4  C   UNK N   1      25.391  22.334  -7.082  0.00  0.00     0.033 C 
BRANCH   3   5
HETATM    5  C   UNK N   1      25.692  24.855  -6.965  0.00  0.00     0.074 C 
BRANCH   5   6
HETATM    6  C   UNK N   1      26.237  25.495  -8.250  0.00  0.00    -0.048 A 
HETATM    7  C   UNK N   1      27.360  26.337  -8.216  0.00  0.00     0.008 A 
HETATM    8  C   UNK N   1      27.833  26.940  -9.388  0.00  0.00     0.001 A 
HETATM    9  C   UNK N   1      27.176  26.731 -10.603  0.00  0.00     0.000 A 
HETATM   10  C   UNK N   1      26.046  25.918 -10.651  0.00  0.00     0.001 A 
HETATM   11  C   UNK N   1      25.582  25.306  -9.487  0.00  0.00     0.008 A 
ENDBRANCH   5   6
BRANCH   5  12
HETATM   12  C   UNK N   1      25.732  25.752  -5.723  0.00  0.00    -0.048 A 
HETATM   13  C   UNK N   1      25.123  27.022  -5.712  0.00  0.00     0.008 A 
HETATM   14  C   UNK N   1      25.206  27.848  -4.589  0.00  0.00     0.001 A 
HETATM   15  C   UNK N   1      25.898  27.417  -3.459  0.00  0.00     0.000 A 
HETATM   16  C   UNK N   1      26.516  26.165  -3.455  0.00  0.00     0.001 A 
HETATM   17  C   UNK N   1      26.442  25.342  -4.584  0.00  0.00     0.008 A 
ENDBRANCH   5  12
ENDBRANCH   3   5
ENDBRANCH   1   3
BRANCH   1  18
HETATM   18  C   UNK N   1      28.510  22.252  -7.139  0.00  0.00     0.115 A 
HETATM   19  N   UNK N   1      28.603  21.180  -7.968  0.00  0.00    -0.338 N 
HETATM   20  C   UNK N   1      29.377  20.105  -7.656  0.00  0.00     0.182 A 
ATOM     21  HN  UNK N   1      28.083  21.181  -8.844  1.00  0.00     0.168 HD
HETATM   22  N   UNK N   1      30.073  20.076  -6.489  0.00  0.00    -0.351 N 
HETATM   23  C   UNK N   1      30.038  21.123  -5.630  0.00  0.00     0.050 A 
ATOM     24  HN  UNK N   1      30.631  19.253  -6.256  1.00  0.00     0.166 HD
HETATM   25  C   UNK N   1      29.261  22.258  -5.936  0.00  0.00     0.037 A 
HETATM   26  C   UNK N   1      30.759  21.073  -4.431  0.00  0.00     0.076 A 
HETATM   27  C   UNK N   1      29.256  23.341  -5.044  0.00  0.00     0.063 A 
HETATM   28  C   UNK N   1      29.984  23.295  -3.858  0.00  0.00     0.155 A 
HETATM   29  F   UNK N   1      29.959  24.354  -3.013  0.00  0.00    -0.203 F 
HETATM   30  C   UNK N   1      30.727  22.154  -3.543  0.00  0.00     0.157 A 
HETATM   31  F   UNK N   1      31.420  22.096  -2.380  0.00  0.00    -0.203 F 
ENDBRANCH   1  18
TORSDOF 5
ENDMDL
MODEL 4
REMARK VINA RESULT:      -7.4     21.381     24.324
REMARK  5 active torsions:
REMARK  status: ('A' for Active; 'I' for Inactive)
REMARK    1  A    between atoms: C_2  and  N_3 
REMARK    2  A    between atoms: C_2  and  C_18 
REMARK    3  A    between atoms: N_3  and  C_4 
REMARK    4  A    between atoms: C_18  and  C_19 
REMARK    5  A    between atoms: C_18  and  C_25 
ROOT
HETATM    1  N   UNK N   1      26.725  25.203  -6.483  0.00  0.00    -0.370 N 
HETATM    2  H   UNK N   1      27.426  25.826  -6.783  0.00  0.00     0.161 HD
ENDROOT
BRANCH   1   3
HETATM    3  C   UNK N   1      25.886  25.569  -5.364  0.00  0.00     0.092 C 
HETATM    4  C   UNK N   1      24.802  26.554  -5.822  0.00  0.00     0.033 C 
BRANCH   3   5
HETATM    5  C   UNK N   1      26.656  26.113  -4.140  0.00  0.00     0.074 C 
BRANCH   5   6
HETATM    6  C   UNK N   1      26.882  27.622  -4.308  0.00  0.00    -0.048 A 
HETATM    7  C   UNK N   1      26.377  28.535  -3.369  0.00  0.00     0.008 A 
HETATM    8  C   UNK N   1      26.561  29.912  -3.545  0.00  0.00     0.001 A 
HETATM    9  C   UNK N   1      27.228  30.395  -4.674  0.00  0.00     0.000 A 
HETATM   10  C   UNK N   1      27.715  29.504  -5.628  0.00  0.00     0.001 A 
HETATM   11  C   UNK N   1      27.544  28.132  -5.447  0.00  0.00     0.008 A 
ENDBRANCH   5   6
BRANCH   5  12
HETATM   12  C   UNK N   1      27.908  25.300  -3.794  0.00  0.00    -0.048 A 
HETATM   13  C   UNK N   1      27.819  24.037  -3.176  0.00  0.00     0.008 A 
HETATM   14  C   UNK N   1      28.968  23.327  -2.824  0.00  0.00     0.001 A 
HETATM   15  C   UNK N   1      30.226  23.868  -3.085  0.00  0.00     0.000 A 
HETATM   16  C   UNK N   1      30.334  25.122  -3.689  0.00  0.00     0.001 A 
HETATM   17  C   UNK N   1      29.182  25.839  -4.031  0.00  0.00     0.008 A 
ENDBRANCH   5  12
ENDBRANCH   3   5
ENDBRANCH   1   3
BRANCH   1  18
HETATM   18  C   UNK N   1      26.558  23.958  -7.161  0.00  0.00     0.115 A 
HETATM   19  N   UNK N   1      25.374  23.708  -7.777  0.00  0.00    -0.338 N 
HETATM   20  C   UNK N   1      25.113  22.505  -8.356  0.00  0.00     0.182 A 
ATOM     21  HN  UNK N   1      24.664  24.439  -7.808  1.00  0.00     0.168 HD
HETATM   22  N   UNK N   1      26.039  21.510  -8.319  0.00  0.00    -0.351 N 
HETATM   23  C   UNK N   1      27.247  21.704  -7.738  0.00  0.00     0.050 A 
ATOM     24  HN  UNK N   1      25.822  20.605  -8.737  1.00  0.00     0.166 HD
HETATM   25  C   UNK N   1      27.553  22.947  -7.148  0.00  0.00     0.037 A 
HETATM   26  C   UNK N   1      28.187  20.667  -7.707  0.00  0.00     0.076 A 
HETATM   27  C   UNK N   1      28.818  23.135  -6.571  0.00  0.00     0.063 A 
HETATM   28  C   UNK N   1      29.756  22.106  -6.553  0.00  0.00     0.155 A 
HETATM   29  F   UNK N   1      30.970  22.314  -5.986  0.00  0.00    -0.203 F 
HETATM   30  C   UNK N   1      29.437  20.866  -7.110  0.00  0.00     0.157 A 
HETATM   31  F   UNK N   1      30.339  19.855  -7.076  0.00  0.00    -0.203 F 
ENDBRANCH   1  18
TORSDOF 5
ENDMDL
MODEL 5
REMARK VINA RESULT:      -7.4      4.611      9.418
REMARK  5 active torsions:
REMARK  status: ('A' for Active; 'I' for Inactive)
REMARK    1  A    between atoms: C_2  and  N_3 
REMARK    2  A    between atoms: C_2  and  C_18 
REMARK    3  A    between atoms: N_3  and  C_4 
REMARK    4  A    between atoms: C_18  and  C_19 
REMARK    5  A    between atoms: C_18  and  C_25 
ROOT
HETATM    1  N   UNK N   1      33.195  16.168   9.124  0.00  0.00    -0.370 N 
HETATM    2  H   UNK N   1      32.525  16.599   9.703  0.00  0.00     0.161 HD
ENDROOT
BRANCH   1   3
HETATM    3  C   UNK N   1      33.839  16.944   8.089  0.00  0.00     0.092 C 
HETATM    4  C   UNK N   1      34.750  18.006   8.719  0.00  0.00     0.033 C 
BRANCH   3   5
HETATM    5  C   UNK N   1      32.866  17.576   7.067  0.00  0.00     0.074 C 
BRANCH   5   6
HETATM    6  C   UNK N   1      31.453  17.618   7.667  0.00  0.00    -0.048 A 
HETATM    7  C   UNK N   1      30.414  16.850   7.118  0.00  0.00     0.008 A 
HETATM    8  C   UNK N   1      29.121  16.917   7.652  0.00  0.00     0.001 A 
HETATM    9  C   UNK N   1      28.844  17.771   8.722  0.00  0.00     0.000 A 
HETATM   10  C   UNK N   1      29.858  18.559   9.264  0.00  0.00     0.001 A 
HETATM   11  C   UNK N   1      31.149  18.483   8.741  0.00  0.00     0.008 A 
ENDBRANCH   5   6
BRANCH   5  12
HETATM   12  C   UNK N   1      32.963  16.960   5.668  0.00  0.00    -0.048 A 
HETATM   13  C   UNK N   1      33.610  15.729   5.449  0.00  0.00     0.008 A 
HETATM   14  C   UNK N   1      33.732  15.200   4.162  0.00  0.00     0.001 A 
HETATM   15  C   UNK N   1      33.209  15.895   3.073  0.00  0.00     0.000 A 
HETATM   16  C   UNK N   1      32.572  17.122   3.270  0.00  0.00     0.001 A 
HETATM   17  C   UNK N   1      32.460  17.656   4.558  0.00  0.00     0.008 A 
ENDBRANCH   5  12
ENDBRANCH   3   5
ENDBRANCH   1   3
BRANCH   1  18
HETATM   18  C   UNK N   1      33.511  14.791   9.326  0.00  0.00     0.115 A 
HETATM   19  N   UNK N   1      32.961  13.870   8.493  0.00  0.00    -0.338 N 
HETATM   20  C   UNK N   1      33.142  12.536   8.689  0.00  0.00     0.182 A 
ATOM     21  HN  UNK N   1      32.400  14.185   7.702  1.00  0.00     0.168 HD
HETATM   22  N   UNK N   1      33.877  12.090   9.742  0.00  0.00    -0.351 N 
HETATM   23  C   UNK N   1      34.469  12.959  10.596  0.00  0.00     0.050 A 
ATOM     24  HN  UNK N   1      33.985  11.086   9.891  1.00  0.00     0.166 HD
HETATM   25  C   UNK N   1      34.316  14.347  10.406  0.00  0.00     0.037 A 
HETATM   26  C   UNK N   1      35.220  12.481  11.677  0.00  0.00     0.076 A 
HETATM   27  C   UNK N   1      34.957  15.230  11.288  0.00  0.00     0.063 A 
HETATM   28  C   UNK N   1      35.714  14.753  12.355  0.00  0.00     0.155 A 
HETATM   29  F   UNK N   1      36.319  15.629  13.193  0.00  0.00    -0.203 F 
HETATM   30  C   UNK N   1      35.836  13.377  12.558  0.00  0.00     0.157 A 
HETATM   31  F   UNK N   1      36.554  12.908  13.607  0.00  0.00    -0.203 F 
ENDBRANCH   1  18
TORSDOF 5
ENDMDL
MODEL 6
REMARK VINA RESULT:      -7.2     10.032     13.304
REMARK  5 active torsions:
REMARK  status: ('A' for Active; 'I' for Inactive)
REMARK    1  A    between atoms: C_2  and  N_3 
REMARK    2  A    between atoms: C_2  and  C_18 
REMARK    3  A    between atoms: N_3  and  C_4 
REMARK    4  A    between atoms: C_18  and  C_19 
REMARK    5  A    between atoms: C_18  and  C_25 
ROOT
HETATM    1  N   UNK N   1      27.139  15.685   6.678  0.00  0.00    -0.370 N 
HETATM    2  H   UNK N   1      27.425  15.313   7.543  0.00  0.00     0.161 HD
ENDROOT
BRANCH   1   3
HETATM    3  C   UNK N   1      28.137  16.181   5.757  0.00  0.00     0.092 C 
HETATM    4  C   UNK N   1      29.062  15.038   5.320  0.00  0.00     0.033 C 
BRANCH   3   5
HETATM    5  C   UNK N   1      28.947  17.387   6.284  0.00  0.00     0.074 C 
BRANCH   5   6
HETATM    6  C   UNK N   1      28.220  18.689   5.919  0.00  0.00    -0.048 A 
HETATM    7  C   UNK N   1      27.863  19.618   6.909  0.00  0.00     0.008 A 
HETATM    8  C   UNK N   1      27.174  20.789   6.573  0.00  0.00     0.001 A 
HETATM    9  C   UNK N   1      26.809  21.034   5.247  0.00  0.00     0.000 A 
HETATM   10  C   UNK N   1      27.133  20.113   4.254  0.00  0.00     0.001 A 
HETATM   11  C   UNK N   1      27.832  18.952   4.587  0.00  0.00     0.008 A 
ENDBRANCH   5   6
BRANCH   5  12
HETATM   12  C   UNK N   1      30.431  17.340   5.904  0.00  0.00    -0.048 A 
HETATM   13  C   UNK N   1      31.433  17.140   6.874  0.00  0.00     0.008 A 
HETATM   14  C   UNK N   1      32.784  17.146   6.523  0.00  0.00     0.001 A 
HETATM   15  C   UNK N   1      33.155  17.350   5.195  0.00  0.00     0.000 A 
HETATM   16  C   UNK N   1      32.177  17.559   4.221  0.00  0.00     0.001 A 
HETATM   17  C   UNK N   1      30.823  17.565   4.576  0.00  0.00     0.008 A 
ENDBRANCH   5  12
ENDBRANCH   3   5
ENDBRANCH   1   3
BRANCH   1  18
HETATM   18  C   UNK N   1      25.748  15.723   6.358  0.00  0.00     0.115 A 
HETATM   19  N   UNK N   1      25.300  16.699   5.527  0.00  0.00    -0.338 N 
HETATM   20  C   UNK N   1      23.974  16.852   5.260  0.00  0.00     0.182 A 
ATOM     21  HN  UNK N   1      25.971  17.332   5.093  1.00  0.00     0.168 HD
HETATM   22  N   UNK N   1      23.058  16.028   5.835  0.00  0.00    -0.351 N 
HETATM   23  C   UNK N   1      23.445  15.022   6.656  0.00  0.00     0.050 A 
ATOM     24  HN  UNK N   1      22.066  16.169   5.644  1.00  0.00     0.166 HD
HETATM   25  C   UNK N   1      24.812  14.827   6.935  0.00  0.00     0.037 A 
HETATM   26  C   UNK N   1      22.486  14.185   7.240  0.00  0.00     0.076 A 
HETATM   27  C   UNK N   1      25.193  13.765   7.769  0.00  0.00     0.063 A 
HETATM   28  C   UNK N   1      24.239  12.926   8.340  0.00  0.00     0.155 A 
HETATM   29  F   UNK N   1      24.635  11.910   9.145  0.00  0.00    -0.203 F 
HETATM   30  C   UNK N   1      22.883  13.143   8.086  0.00  0.00     0.157 A 
HETATM   31  F   UNK N   1      21.950  12.342   8.656  0.00  0.00    -0.203 F 
ENDBRANCH   1  18
TORSDOF 5
ENDMDL
MODEL 7
REMARK VINA RESULT:      -7.2      2.100      3.155
REMARK  5 active torsions:
REMARK  status: ('A' for Active; 'I' for Inactive)
REMARK    1  A    between atoms: C_2  and  N_3 
REMARK    2  A    between atoms: C_2  and  C_18 
REMARK    3  A    between atoms: N_3  and  C_4 
REMARK    4  A    between atoms: C_18  and  C_19 
REMARK    5  A    between atoms: C_18  and  C_25 
ROOT
HETATM    1  N   UNK N   1      34.851  11.122  12.585  0.00  0.00    -0.370 N 
HETATM    2  H   UNK N   1      34.263  10.693  11.922  0.00  0.00     0.161 HD
ENDROOT
BRANCH   1   3
HETATM    3  C   UNK N   1      34.943  10.563  13.914  0.00  0.00     0.092 C 
HETATM    4  C   UNK N   1      33.658  10.860  14.699  0.00  0.00     0.033 C 
BRANCH   3   5
HETATM    5  C   UNK N   1      36.196  11.002  14.705  0.00  0.00     0.074 C 
BRANCH   5   6
HETATM    6  C   UNK N   1      37.223   9.860  14.709  0.00  0.00    -0.048 A 
HETATM    7  C   UNK N   1      38.601  10.130  14.740  0.00  0.00     0.008 A 
HETATM    8  C   UNK N   1      39.531   9.085  14.713  0.00  0.00     0.001 A 
HETATM    9  C   UNK N   1      39.100   7.759  14.627  0.00  0.00     0.000 A 
HETATM   10  C   UNK N   1      37.737   7.474  14.570  0.00  0.00     0.001 A 
HETATM   11  C   UNK N   1      36.809   8.514  14.611  0.00  0.00     0.008 A 
ENDBRANCH   5   6
BRANCH   5  12
HETATM   12  C   UNK N   1      35.875  11.595  16.081  0.00  0.00    -0.048 A 
HETATM   13  C   UNK N   1      35.841  10.793  17.239  0.00  0.00     0.008 A 
HETATM   14  C   UNK N   1      35.501  11.337  18.479  0.00  0.00     0.001 A 
HETATM   15  C   UNK N   1      35.190  12.692  18.582  0.00  0.00     0.000 A 
HETATM   16  C   UNK N   1      35.210  13.500  17.444  0.00  0.00     0.001 A 
HETATM   17  C   UNK N   1      35.540  12.952  16.199  0.00  0.00     0.008 A 
ENDBRANCH   5  12
ENDBRANCH   3   5
ENDBRANCH   1   3
BRANCH   1  18
HETATM   18  C   UNK N   1      35.595  12.283  12.214  0.00  0.00     0.115 A 
HETATM   19  N   UNK N   1      35.152  13.498  12.628  0.00  0.00    -0.338 N 
HETATM   20  C   UNK N   1      35.757  14.649  12.229  0.00  0.00     0.182 A 
ATOM     21  HN  UNK N   1      34.348  13.549  13.253  1.00  0.00     0.168 HD
HETATM   22  N   UNK N   1      36.823  14.609  11.387  0.00  0.00    -0.351 N 
HETATM   23  C   UNK N   1      37.326  13.427  10.956  0.00  0.00     0.050 A 
ATOM     24  HN  UNK N   1      37.253  15.481  11.077  1.00  0.00     0.166 HD
HETATM   25  C   UNK N   1      36.733  12.217  11.369  0.00  0.00     0.037 A 
HETATM   26  C   UNK N   1      38.424  13.405  10.087  0.00  0.00     0.076 A 
HETATM   27  C   UNK N   1      37.282  11.003  10.929  0.00  0.00     0.063 A 
HETATM   28  C   UNK N   1      38.382  10.983  10.075  0.00  0.00     0.155 A 
HETATM   29  F   UNK N   1      38.891   9.796   9.664  0.00  0.00    -0.203 F 
HETATM   30  C   UNK N   1      38.946  12.185   9.642  0.00  0.00     0.157 A 
HETATM   31  F   UNK N   1      40.004  12.171   8.795  0.00  0.00    -0.203 F 
ENDBRANCH   1  18
TORSDOF 5
ENDMDL
MODEL 8
REMARK VINA RESULT:      -7.1      8.535     12.568
REMARK  5 active torsions:
REMARK  status: ('A' for Active; 'I' for Inactive)
REMARK    1  A    between atoms: C_2  and  N_3 
REMARK    2  A    between atoms: C_2  and  C_18 
REMARK    3  A    between atoms: N_3  and  C_4 
REMARK    4  A    between atoms: C_18  and  C_19 
REMARK    5  A    between atoms: C_18  and  C_25 
ROOT
HETATM    1  N   UNK N   1      29.357  17.537   3.878  0.00  0.00    -0.370 N 
HETATM    2  H   UNK N   1      29.121  18.457   3.618  0.00  0.00     0.161 HD
ENDROOT
BRANCH   1   3
HETATM    3  C   UNK N   1      28.309  16.556   4.037  0.00  0.00     0.092 C 
HETATM    4  C   UNK N   1      28.216  15.679   2.781  0.00  0.00     0.033 C 
BRANCH   3   5
HETATM    5  C   UNK N   1      26.931  17.149   4.409  0.00  0.00     0.074 C 
BRANCH   5   6
HETATM    6  C   UNK N   1      27.123  18.552   5.003  0.00  0.00    -0.048 A 
HETATM    7  C   UNK N   1      27.522  18.720   6.338  0.00  0.00     0.008 A 
HETATM    8  C   UNK N   1      27.666  20.002   6.882  0.00  0.00     0.001 A 
HETATM    9  C   UNK N   1      27.388  21.131   6.107  0.00  0.00     0.000 A 
HETATM   10  C   UNK N   1      26.967  20.982   4.788  0.00  0.00     0.001 A 
HETATM   11  C   UNK N   1      26.836  19.705   4.241  0.00  0.00     0.008 A 
ENDBRANCH   5   6
BRANCH   5  12
HETATM   12  C   UNK N   1      26.061  16.201   5.241  0.00  0.00    -0.048 A 
HETATM   13  C   UNK N   1      24.669  16.386   5.354  0.00  0.00     0.008 A 
HETATM   14  C   UNK N   1      23.894  15.543   6.152  0.00  0.00     0.001 A 
HETATM   15  C   UNK N   1      24.499  14.500   6.852  0.00  0.00     0.000 A 
HETATM   16  C   UNK N   1      25.879  14.306   6.760  0.00  0.00     0.001 A 
HETATM   17  C   UNK N   1      26.656  15.159   5.968  0.00  0.00     0.008 A 
ENDBRANCH   5  12
ENDBRANCH   3   5
ENDBRANCH   1   3
BRANCH   1  18
HETATM   18  C   UNK N   1      30.729  17.200   4.088  0.00  0.00     0.115 A 
HETATM   19  N   UNK N   1      31.531  17.038   3.005  0.00  0.00    -0.338 N 
HETATM   20  C   UNK N   1      32.820  16.621   3.131  0.00  0.00     0.182 A 
ATOM     21  HN  UNK N   1      31.160  17.234   2.076  1.00  0.00     0.168 HD
HETATM   22  N   UNK N   1      33.336  16.343   4.358  0.00  0.00    -0.351 N 
HETATM   23  C   UNK N   1      32.592  16.505   5.478  0.00  0.00     0.050 A 
ATOM     24  HN  UNK N   1      34.296  16.009   4.436  1.00  0.00     0.166 HD
HETATM   25  C   UNK N   1      31.260  16.955   5.380  0.00  0.00     0.037 A 
HETATM   26  C   UNK N   1      33.139  16.211   6.733  0.00  0.00     0.076 A 
HETATM   27  C   UNK N   1      30.514  17.138   6.555  0.00  0.00     0.063 A 
HETATM   28  C   UNK N   1      31.064  16.857   7.803  0.00  0.00     0.155 A 
HETATM   29  F   UNK N   1      30.320  17.040   8.921  0.00  0.00    -0.203 F 
HETATM   30  C   UNK N   1      32.374  16.380   7.893  0.00  0.00     0.157 A 
HETATM   31  F   UNK N   1      32.906  16.086   9.104  0.00  0.00    -0.203 F 
ENDBRANCH   1  18
TORSDOF 5
ENDMDL
MODEL 9
REMARK VINA RESULT:      -7.1      0.647      3.608
REMARK  5 active torsions:
REMARK  status: ('A' for Active; 'I' for Inactive)
REMARK    1  A    between atoms: C_2  and  N_3 
REMARK    2  A    between atoms: C_2  and  C_18 
REMARK    3  A    between atoms: N_3  and  C_4 
REMARK    4  A    between atoms: C_18  and  C_19 
REMARK    5  A    between atoms: C_18  and  C_25 
ROOT
HETATM    1  N   UNK N   1      36.593  13.590  13.095  0.00  0.00    -0.370 N 
HETATM    2  H   UNK N   1      37.313  12.932  12.967  0.00  0.00     0.161 HD
ENDROOT
BRANCH   1   3
HETATM    3  C   UNK N   1      36.047  13.792  14.418  0.00  0.00     0.092 C 
HETATM    4  C   UNK N   1      37.182  14.051  15.419  0.00  0.00     0.033 C 
BRANCH   3   5
HETATM    5  C   UNK N   1      35.118  12.658  14.906  0.00  0.00     0.074 C 
BRANCH   5   6
HETATM    6  C   UNK N   1      35.240  12.518  16.430  0.00  0.00    -0.048 A 
HETATM    7  C   UNK N   1      35.532  11.278  17.019  0.00  0.00     0.008 A 
HETATM    8  C   UNK N   1      35.612  11.153  18.411  0.00  0.00     0.001 A 
HETATM    9  C   UNK N   1      35.374  12.257  19.233  0.00  0.00     0.000 A 
HETATM   10  C   UNK N   1      35.058  13.490  18.667  0.00  0.00     0.001 A 
HETATM   11  C   UNK N   1      34.992  13.619  17.279  0.00  0.00     0.008 A 
ENDBRANCH   5   6
BRANCH   5  12
HETATM   12  C   UNK N   1      35.278  11.354  14.116  0.00  0.00    -0.048 A 
HETATM   13  C   UNK N   1      36.541  10.763  13.919  0.00  0.00     0.008 A 
HETATM   14  C   UNK N   1      36.678   9.600  13.159  0.00  0.00     0.001 A 
HETATM   15  C   UNK N   1      35.555   9.010  12.583  0.00  0.00     0.000 A 
HETATM   16  C   UNK N   1      34.296   9.587  12.760  0.00  0.00     0.001 A 
HETATM   17  C   UNK N   1      34.160  10.759  13.512  0.00  0.00     0.008 A 
ENDBRANCH   5  12
ENDBRANCH   3   5
ENDBRANCH   1   3
BRANCH   1  18
HETATM   18  C   UNK N   1      36.108  14.325  11.971  0.00  0.00     0.115 A 
HETATM   19  N   UNK N   1      36.082  15.681  12.044  0.00  0.00    -0.338 N 
HETATM   20  C   UNK N   1      35.542  16.436  11.050  0.00  0.00     0.182 A 
ATOM     21  HN  UNK N   1      36.478  16.143  12.862  1.00  0.00     0.168 HD
HETATM   22  N   UNK N   1      34.999  15.843   9.954  0.00  0.00    -0.351 N 
HETATM   23  C   UNK N   1      35.012  14.496   9.813  0.00  0.00     0.050 A 
ATOM     24  HN  UNK N   1      34.576  16.420   9.227  1.00  0.00     0.166 HD
HETATM   25  C   UNK N   1      35.584  13.688  10.817  0.00  0.00     0.037 A 
HETATM   26  C   UNK N   1      34.446  13.902   8.678  0.00  0.00     0.076 A 
HETATM   27  C   UNK N   1      35.608  12.296  10.641  0.00  0.00     0.063 A 
HETATM   28  C   UNK N   1      35.055  11.709   9.506  0.00  0.00     0.155 A 
HETATM   29  F   UNK N   1      35.090  10.361   9.363  0.00  0.00    -0.203 F 
HETATM   30  C   UNK N   1      34.461  12.511   8.529  0.00  0.00     0.157 A 
HETATM   31  F   UNK N   1      33.903  11.942   7.433  0.00  0.00    -0.203 F 
ENDBRANCH   1  18
TORSDOF 5
ENDMDL
