MODEL 1
REMARK VINA RESULT:      -5.7      0.000      0.000
REMARK  13 active torsions:
REMARK  status: ('A' for Active; 'I' for Inactive)
REMARK    1  A    between atoms: C_2  and  O_1 
REMARK    2  A    between atoms: C_2  and  C_3 
REMARK    3  A    between atoms: C_2  and  C_9 
REMARK    4  A    between atoms: C_3  and  O_4 
REMARK    5  A    between atoms: O_4  and  P_5 
REMARK    6  A    between atoms: P_5  and  O_6 
REMARK    7  A    between atoms: P_5  and  O_7 
REMARK    8  A    between atoms: C_9  and  O_10 
REMARK    9  A    between atoms: C_9  and  C_11 
REMARK   10  A    between atoms: C_11  and  O_12 
REMARK   11  A    between atoms: C_11  and  C_13 
REMARK   12  A    between atoms: C_13  and  O_14 
REMARK   13  A    between atoms: C_13  and  C_15 
ROOT
HETATM    1  C   UNK N   1      35.871  15.331  10.710  0.00  0.00     0.173 C 
ENDROOT
BRANCH   1   2
HETATM    2  O   UNK N   1      36.887  16.261  10.929  0.00  0.00    -0.391 OA
HETATM    3  H   UNK N   1      36.726  17.218  10.888  0.00  0.00     0.210 HD
ENDBRANCH   1   2
BRANCH   1   4
HETATM    4  C   UNK N   1      34.733  16.051  10.008  0.00  0.00     0.214 C 
BRANCH   4   5
HETATM    5  O   UNK N   1      35.158  17.296   9.537  0.00  0.00    -0.294 OA
BRANCH   5   6
HETATM    6  P   UNK N   1      33.992  17.753   8.332  0.00  0.00     0.390 P 
HETATM    7  O   UNK N   1      34.580  16.438   7.755  0.00  0.00    -0.632 OA
BRANCH   6   8
HETATM    8  O   UNK N   1      34.533  18.220   6.750  0.00  0.00    -0.307 OA
HETATM    9  H   UNK N   1      35.052  17.660   6.153  0.00  0.00     0.222 HD
ENDBRANCH   6   8
BRANCH   6  10
HETATM   10  O   UNK N   1      35.216  18.985   8.417  0.00  0.00    -0.307 OA
HETATM   11  H   UNK N   1      36.094  19.038   8.827  0.00  0.00     0.222 HD
ENDBRANCH   6  10
ENDBRANCH   5   6
ENDBRANCH   4   5
ENDBRANCH   1   4
BRANCH   1  12
HETATM   12  C   UNK N   1      35.406  14.711  12.040  0.00  0.00     0.180 C 
BRANCH  12  13
HETATM   13  O   UNK N   1      34.102  14.231  11.890  0.00  0.00    -0.390 OA
HETATM   14  H   UNK N   1      33.489  14.605  11.238  0.00  0.00     0.210 HD
ENDBRANCH  12  13
BRANCH  12  15
HETATM   15  C   UNK N   1      36.331  13.572  12.523  0.00  0.00     0.184 C 
BRANCH  15  16
HETATM   16  O   UNK N   1      37.502  13.566  11.760  0.00  0.00    -0.390 OA
HETATM   17  H   UNK N   1      37.779  12.783  11.260  0.00  0.00     0.210 HD
ENDBRANCH  15  16
BRANCH  15  18
HETATM   18  C   UNK N   1      36.708  13.712  14.008  0.00  0.00     0.210 C 
BRANCH  18  19
HETATM   19  O   UNK N   1      36.904  15.053  14.341  0.00  0.00    -0.386 OA
HETATM   20  H   UNK N   1      37.730  15.520  14.138  0.00  0.00     0.210 HD
ENDBRANCH  18  19
BRANCH  18  21
HETATM   21  C   UNK N   1      35.644  13.159  14.909  0.00  0.00     0.265 C 
HETATM   22  O   UNK N   1      34.524  12.919  14.481  0.00  0.00    -0.304 OA
ENDBRANCH  18  21
ENDBRANCH  15  18
ENDBRANCH  12  15
ENDBRANCH   1  12
TORSDOF 13
ENDMDL
MODEL 2
REMARK VINA RESULT:      -5.6      2.398      6.390
REMARK  13 active torsions:
REMARK  status: ('A' for Active; 'I' for Inactive)
REMARK    1  A    between atoms: C_2  and  O_1 
REMARK    2  A    between atoms: C_2  and  C_3 
REMARK    3  A    between atoms: C_2  and  C_9 
REMARK    4  A    between atoms: C_3  and  O_4 
REMARK    5  A    between atoms: O_4  and  P_5 
REMARK    6  A    between atoms: P_5  and  O_6 
REMARK    7  A    between atoms: P_5  and  O_7 
REMARK    8  A    between atoms: C_9  and  O_10 
REMARK    9  A    between atoms: C_9  and  C_11 
REMARK   10  A    between atoms: C_11  and  O_12 
REMARK   11  A    between atoms: C_11  and  C_13 
REMARK   12  A    between atoms: C_13  and  O_14 
REMARK   13  A    between atoms: C_13  and  C_15 
ROOT
HETATM    1  C   UNK N   1      34.647  14.878  10.660  0.00  0.00     0.173 C 
ENDROOT
BRANCH   1   2
HETATM    2  O   UNK N   1      33.387  14.951  11.252  0.00  0.00    -0.391 OA
HETATM    3  H   UNK N   1      32.971  14.182  11.673  0.00  0.00     0.210 HD
ENDBRANCH   1   2
BRANCH   1   4
HETATM    4  C   UNK N   1      35.572  14.168  11.633  0.00  0.00     0.214 C 
BRANCH   4   5
HETATM    5  O   UNK N   1      34.900  13.882  12.825  0.00  0.00    -0.294 OA
BRANCH   5   6
HETATM    6  P   UNK N   1      36.047  13.012  13.800  0.00  0.00     0.390 P 
HETATM    7  O   UNK N   1      34.994  13.471  14.842  0.00  0.00    -0.632 OA
BRANCH   6   8
HETATM    8  O   UNK N   1      36.997  13.869  14.973  0.00  0.00    -0.307 OA
HETATM    9  H   UNK N   1      37.087  14.833  15.017  0.00  0.00     0.222 HD
ENDBRANCH   6   8
BRANCH   6  10
HETATM   10  O   UNK N   1      36.845  14.385  13.091  0.00  0.00    -0.307 OA
HETATM   11  H   UNK N   1      36.706  14.906  12.284  0.00  0.00     0.222 HD
ENDBRANCH   6  10
ENDBRANCH   5   6
ENDBRANCH   4   5
ENDBRANCH   1   4
BRANCH   1  12
HETATM   12  C   UNK N   1      35.168  16.286  10.317  0.00  0.00     0.180 C 
BRANCH  12  13
HETATM   13  O   UNK N   1      36.496  16.398  10.739  0.00  0.00    -0.390 OA
HETATM   14  H   UNK N   1      36.800  16.027  11.582  0.00  0.00     0.210 HD
ENDBRANCH  12  13
BRANCH  12  15
HETATM   15  C   UNK N   1      35.069  16.609   8.811  0.00  0.00     0.184 C 
BRANCH  15  16
HETATM   16  O   UNK N   1      34.380  15.583   8.157  0.00  0.00    -0.390 OA
HETATM   17  H   UNK N   1      33.418  15.615   8.032  0.00  0.00     0.210 HD
ENDBRANCH  15  16
BRANCH  15  18
HETATM   18  C   UNK N   1      34.344  17.940   8.542  0.00  0.00     0.210 C 
BRANCH  18  19
HETATM   19  O   UNK N   1      35.255  18.995   8.503  0.00  0.00    -0.386 OA
HETATM   20  H   UNK N   1      35.404  19.520   7.700  0.00  0.00     0.210 HD
ENDBRANCH  18  19
BRANCH  18  21
HETATM   21  C   UNK N   1      33.600  17.917   7.240  0.00  0.00     0.265 C 
HETATM   22  O   UNK N   1      34.201  17.916   6.176  0.00  0.00    -0.304 OA
ENDBRANCH  18  21
ENDBRANCH  15  18
ENDBRANCH  12  15
ENDBRANCH   1  12
TORSDOF 13
ENDMDL
MODEL 3
REMARK VINA RESULT:      -5.4      2.345      6.218
REMARK  13 active torsions:
REMARK  status: ('A' for Active; 'I' for Inactive)
REMARK    1  A    between atoms: C_2  and  O_1 
REMARK    2  A    between atoms: C_2  and  C_3 
REMARK    3  A    between atoms: C_2  and  C_9 
REMARK    4  A    between atoms: C_3  and  O_4 
REMARK    5  A    between atoms: O_4  and  P_5 
REMARK    6  A    between atoms: P_5  and  O_6 
REMARK    7  A    between atoms: P_5  and  O_7 
REMARK    8  A    between atoms: C_9  and  O_10 
REMARK    9  A    between atoms: C_9  and  C_11 
REMARK   10  A    between atoms: C_11  and  O_12 
REMARK   11  A    between atoms: C_11  and  C_13 
REMARK   12  A    between atoms: C_13  and  O_14 
REMARK   13  A    between atoms: C_13  and  C_15 
ROOT
HETATM    1  C   UNK N   1      35.737  15.947  11.471  0.00  0.00     0.173 C 
ENDROOT
BRANCH   1   2
HETATM    2  O   UNK N   1      37.007  15.960  10.897  0.00  0.00    -0.391 OA
HETATM    3  H   UNK N   1      37.726  15.396  11.224  0.00  0.00     0.210 HD
ENDBRANCH   1   2
BRANCH   1   4
HETATM    4  C   UNK N   1      35.748  14.918  12.588  0.00  0.00     0.214 C 
BRANCH   4   5
HETATM    5  O   UNK N   1      35.526  13.637  12.074  0.00  0.00    -0.294 OA
BRANCH   5   6
HETATM    6  P   UNK N   1      36.100  12.546  13.301  0.00  0.00     0.390 P 
HETATM    7  O   UNK N   1      35.289  13.585  14.120  0.00  0.00    -0.632 OA
BRANCH   6   8
HETATM    8  O   UNK N   1      37.247  13.108  14.477  0.00  0.00    -0.307 OA
HETATM    9  H   UNK N   1      38.044  13.620  14.274  0.00  0.00     0.222 HD
ENDBRANCH   6   8
BRANCH   6  10
HETATM   10  O   UNK N   1      37.470  13.302  12.542  0.00  0.00    -0.307 OA
HETATM   11  H   UNK N   1      37.635  13.675  11.661  0.00  0.00     0.222 HD
ENDBRANCH   6  10
ENDBRANCH   5   6
ENDBRANCH   4   5
ENDBRANCH   1   4
BRANCH   1  12
HETATM   12  C   UNK N   1      34.667  15.616  10.414  0.00  0.00     0.180 C 
BRANCH  12  13
HETATM   13  O   UNK N   1      33.501  15.194  11.061  0.00  0.00    -0.390 OA
HETATM   14  H   UNK N   1      33.525  14.605  11.831  0.00  0.00     0.210 HD
ENDBRANCH  12  13
BRANCH  12  15
HETATM   15  C   UNK N   1      34.350  16.812   9.491  0.00  0.00     0.184 C 
BRANCH  15  16
HETATM   16  O   UNK N   1      35.306  17.814   9.678  0.00  0.00    -0.390 OA
HETATM   17  H   UNK N   1      35.054  18.717   9.928  0.00  0.00     0.210 HD
ENDBRANCH  15  16
BRANCH  15  18
HETATM   18  C   UNK N   1      34.333  16.417   8.003  0.00  0.00     0.210 C 
BRANCH  18  19
HETATM   19  O   UNK N   1      33.641  15.219   7.821  0.00  0.00    -0.386 OA
HETATM   20  H   UNK N   1      33.333  14.928   6.948  0.00  0.00     0.210 HD
ENDBRANCH  18  19
BRANCH  18  21
HETATM   21  C   UNK N   1      33.680  17.467   7.155  0.00  0.00     0.265 C 
HETATM   22  O   UNK N   1      34.265  17.949   6.195  0.00  0.00    -0.304 OA
ENDBRANCH  18  21
ENDBRANCH  15  18
ENDBRANCH  12  15
ENDBRANCH   1  12
TORSDOF 13
ENDMDL
MODEL 4
REMARK VINA RESULT:      -5.2      1.538      2.749
REMARK  13 active torsions:
REMARK  status: ('A' for Active; 'I' for Inactive)
REMARK    1  A    between atoms: C_2  and  O_1 
REMARK    2  A    between atoms: C_2  and  C_3 
REMARK    3  A    between atoms: C_2  and  C_9 
REMARK    4  A    between atoms: C_3  and  O_4 
REMARK    5  A    between atoms: O_4  and  P_5 
REMARK    6  A    between atoms: P_5  and  O_6 
REMARK    7  A    between atoms: P_5  and  O_7 
REMARK    8  A    between atoms: C_9  and  O_10 
REMARK    9  A    between atoms: C_9  and  C_11 
REMARK   10  A    between atoms: C_11  and  O_12 
REMARK   11  A    between atoms: C_11  and  C_13 
REMARK   12  A    between atoms: C_13  and  O_14 
REMARK   13  A    between atoms: C_13  and  C_15 
ROOT
HETATM    1  C   UNK N   1      33.966  14.077   8.555  0.00  0.00     0.173 C 
ENDROOT
BRANCH   1   2
HETATM    2  O   UNK N   1      34.368  13.821   7.244  0.00  0.00    -0.391 OA
HETATM    3  H   UNK N   1      34.343  12.929   6.863  0.00  0.00     0.210 HD
ENDBRANCH   1   2
BRANCH   1   4
HETATM    4  C   UNK N   1      33.574  15.542   8.638  0.00  0.00     0.214 C 
BRANCH   4   5
HETATM    5  O   UNK N   1      34.533  16.341   8.009  0.00  0.00    -0.294 OA
BRANCH   5   6
HETATM    6  P   UNK N   1      33.970  17.974   8.208  0.00  0.00     0.390 P 
HETATM    7  O   UNK N   1      34.631  18.010   6.804  0.00  0.00    -0.632 OA
BRANCH   6   8
HETATM    8  O   UNK N   1      35.122  19.266   8.343  0.00  0.00    -0.307 OA
HETATM    9  H   UNK N   1      34.933  20.140   8.718  0.00  0.00     0.222 HD
ENDBRANCH   6   8
BRANCH   6  10
HETATM   10  O   UNK N   1      35.158  17.641   9.434  0.00  0.00    -0.307 OA
HETATM   11  H   UNK N   1      36.099  17.405   9.417  0.00  0.00     0.222 HD
ENDBRANCH   6  10
ENDBRANCH   5   6
ENDBRANCH   4   5
ENDBRANCH   1   4
BRANCH   1  12
HETATM   12  C   UNK N   1      35.098  13.743   9.545  0.00  0.00     0.180 C 
BRANCH  12  13
HETATM   13  O   UNK N   1      36.326  14.071   8.963  0.00  0.00    -0.390 OA
HETATM   14  H   UNK N   1      37.075  13.457   8.965  0.00  0.00     0.210 HD
ENDBRANCH  12  13
BRANCH  12  15
HETATM   15  C   UNK N   1      34.945  14.477  10.895  0.00  0.00     0.184 C 
BRANCH  15  16
HETATM   16  O   UNK N   1      34.200  13.686  11.775  0.00  0.00    -0.390 OA
HETATM   17  H   UNK N   1      34.551  12.857  12.134  0.00  0.00     0.210 HD
ENDBRANCH  15  16
BRANCH  15  18
HETATM   18  C   UNK N   1      36.302  14.797  11.546  0.00  0.00     0.210 C 
BRANCH  18  19
HETATM   19  O   UNK N   1      36.782  16.028  11.100  0.00  0.00    -0.386 OA
HETATM   20  H   UNK N   1      37.575  16.441  11.477  0.00  0.00     0.210 HD
ENDBRANCH  18  19
BRANCH  18  21
HETATM   21  C   UNK N   1      36.204  14.849  13.042  0.00  0.00     0.265 C 
HETATM   22  O   UNK N   1      36.445  13.860  13.720  0.00  0.00    -0.304 OA
ENDBRANCH  18  21
ENDBRANCH  15  18
ENDBRANCH  12  15
ENDBRANCH   1  12
TORSDOF 13
ENDMDL
MODEL 5
REMARK VINA RESULT:      -5.1      2.839      6.461
REMARK  13 active torsions:
REMARK  status: ('A' for Active; 'I' for Inactive)
REMARK    1  A    between atoms: C_2  and  O_1 
REMARK    2  A    between atoms: C_2  and  C_3 
REMARK    3  A    between atoms: C_2  and  C_9 
REMARK    4  A    between atoms: C_3  and  O_4 
REMARK    5  A    between atoms: O_4  and  P_5 
REMARK    6  A    between atoms: P_5  and  O_6 
REMARK    7  A    between atoms: P_5  and  O_7 
REMARK    8  A    between atoms: C_9  and  O_10 
REMARK    9  A    between atoms: C_9  and  C_11 
REMARK   10  A    between atoms: C_11  and  O_12 
REMARK   11  A    between atoms: C_11  and  C_13 
REMARK   12  A    between atoms: C_13  and  O_14 
REMARK   13  A    between atoms: C_13  and  C_15 
ROOT
HETATM    1  C   UNK N   1      35.418  12.821  12.597  0.00  0.00     0.173 C 
ENDROOT
BRANCH   1   2
HETATM    2  O   UNK N   1      34.429  12.236  11.806  0.00  0.00    -0.391 OA
HETATM    3  H   UNK N   1      34.627  11.524  11.178  0.00  0.00     0.210 HD
ENDBRANCH   1   2
BRANCH   1   4
HETATM    4  C   UNK N   1      35.264  12.272  14.005  0.00  0.00     0.214 C 
BRANCH   4   5
HETATM    5  O   UNK N   1      34.689  13.233  14.844  0.00  0.00    -0.294 OA
BRANCH   5   6
HETATM    6  P   UNK N   1      35.159  12.774  16.454  0.00  0.00     0.390 P 
HETATM    7  O   UNK N   1      33.809  13.504  16.687  0.00  0.00    -0.632 OA
BRANCH   6   8
HETATM    8  O   UNK N   1      35.567  14.004  17.609  0.00  0.00    -0.307 OA
HETATM    9  H   UNK N   1      34.945  14.405  18.236  0.00  0.00     0.222 HD
ENDBRANCH   6   8
BRANCH   6  10
HETATM   10  O   UNK N   1      36.347  13.875  15.818  0.00  0.00    -0.307 OA
HETATM   11  H   UNK N   1      36.455  14.839  15.840  0.00  0.00     0.222 HD
ENDBRANCH   6  10
ENDBRANCH   5   6
ENDBRANCH   4   5
ENDBRANCH   1   4
BRANCH   1  12
HETATM   12  C   UNK N   1      35.293  14.355  12.577  0.00  0.00     0.180 C 
BRANCH  12  13
HETATM   13  O   UNK N   1      36.514  14.919  12.957  0.00  0.00    -0.390 OA
HETATM   14  H   UNK N   1      37.299  14.376  13.130  0.00  0.00     0.210 HD
ENDBRANCH  12  13
BRANCH  12  15
HETATM   15  C   UNK N   1      34.870  14.901  11.196  0.00  0.00     0.184 C 
BRANCH  15  16
HETATM   16  O   UNK N   1      33.478  15.015  11.144  0.00  0.00    -0.390 OA
HETATM   17  H   UNK N   1      32.900  14.248  11.283  0.00  0.00     0.210 HD
ENDBRANCH  15  16
BRANCH  15  18
HETATM   18  C   UNK N   1      35.490  16.277  10.894  0.00  0.00     0.210 C 
BRANCH  18  19
HETATM   19  O   UNK N   1      36.873  16.171  10.748  0.00  0.00    -0.386 OA
HETATM   20  H   UNK N   1      37.466  16.928  10.879  0.00  0.00     0.210 HD
ENDBRANCH  18  19
BRANCH  18  21
HETATM   21  C   UNK N   1      34.933  16.876   9.637  0.00  0.00     0.265 C 
HETATM   22  O   UNK N   1      35.195  18.028   9.323  0.00  0.00    -0.304 OA
ENDBRANCH  18  21
ENDBRANCH  15  18
ENDBRANCH  12  15
ENDBRANCH   1  12
TORSDOF 13
ENDMDL
MODEL 6
REMARK VINA RESULT:      -5.1     14.786     17.348
REMARK  13 active torsions:
REMARK  status: ('A' for Active; 'I' for Inactive)
REMARK    1  A    between atoms: C_2  and  O_1 
REMARK    2  A    between atoms: C_2  and  C_3 
REMARK    3  A    between atoms: C_2  and  C_9 
REMARK    4  A    between atoms: C_3  and  O_4 
REMARK    5  A    between atoms: O_4  and  P_5 
REMARK    6  A    between atoms: P_5  and  O_6 
REMARK    7  A    between atoms: P_5  and  O_7 
REMARK    8  A    between atoms: C_9  and  O_10 
REMARK    9  A    between atoms: C_9  and  C_11 
REMARK   10  A    between atoms: C_11  and  O_12 
REMARK   11  A    between atoms: C_11  and  C_13 
REMARK   12  A    between atoms: C_13  and  O_14 
REMARK   13  A    between atoms: C_13  and  C_15 
ROOT
HETATM    1  C   UNK N   1      22.019  18.168   5.677  0.00  0.00     0.173 C 
ENDROOT
BRANCH   1   2
HETATM    2  O   UNK N   1      23.396  17.971   5.585  0.00  0.00    -0.391 OA
HETATM    3  H   UNK N   1      23.882  17.425   6.224  0.00  0.00     0.210 HD
ENDBRANCH   1   2
BRANCH   1   4
HETATM    4  C   UNK N   1      21.467  17.117   6.624  0.00  0.00     0.214 C 
BRANCH   4   5
HETATM    5  O   UNK N   1      20.551  17.691   7.512  0.00  0.00    -0.294 OA
BRANCH   5   6
HETATM    6  P   UNK N   1      19.959  16.371   8.476  0.00  0.00     0.390 P 
HETATM    7  O   UNK N   1      19.306  16.103   7.094  0.00  0.00    -0.632 OA
BRANCH   6   8
HETATM    8  O   UNK N   1      18.266  16.275   8.848  0.00  0.00    -0.307 OA
HETATM    9  H   UNK N   1      17.564  16.108   8.200  0.00  0.00     0.222 HD
ENDBRANCH   6   8
BRANCH   6  10
HETATM   10  O   UNK N   1      19.371  17.862   9.151  0.00  0.00    -0.307 OA
HETATM   11  H   UNK N   1      18.931  18.101   9.982  0.00  0.00     0.222 HD
ENDBRANCH   6  10
ENDBRANCH   5   6
ENDBRANCH   4   5
ENDBRANCH   1   4
BRANCH   1  12
HETATM   12  C   UNK N   1      21.362  18.071   4.288  0.00  0.00     0.180 C 
BRANCH  12  13
HETATM   13  O   UNK N   1      20.145  17.392   4.404  0.00  0.00    -0.390 OA
HETATM   14  H   UNK N   1      19.437  17.704   4.988  0.00  0.00     0.210 HD
ENDBRANCH  12  13
BRANCH  12  15
HETATM   15  C   UNK N   1      21.130  19.453   3.640  0.00  0.00     0.184 C 
BRANCH  15  16
HETATM   16  O   UNK N   1      22.358  20.101   3.469  0.00  0.00    -0.390 OA
HETATM   17  H   UNK N   1      23.109  19.660   3.043  0.00  0.00     0.210 HD
ENDBRANCH  15  16
BRANCH  15  18
HETATM   18  C   UNK N   1      20.430  19.351   2.273  0.00  0.00     0.210 C 
BRANCH  18  19
HETATM   19  O   UNK N   1      19.059  19.156   2.438  0.00  0.00    -0.386 OA
HETATM   20  H   UNK N   1      18.602  19.374   3.266  0.00  0.00     0.210 HD
ENDBRANCH  18  19
BRANCH  18  21
HETATM   21  C   UNK N   1      20.629  20.589   1.451  0.00  0.00     0.265 C 
HETATM   22  O   UNK N   1      21.462  20.620   0.557  0.00  0.00    -0.304 OA
ENDBRANCH  18  21
ENDBRANCH  15  18
ENDBRANCH  12  15
ENDBRANCH   1  12
TORSDOF 13
ENDMDL
MODEL 7
REMARK VINA RESULT:      -5.0      1.519      2.567
REMARK  13 active torsions:
REMARK  status: ('A' for Active; 'I' for Inactive)
REMARK    1  A    between atoms: C_2  and  O_1 
REMARK    2  A    between atoms: C_2  and  C_3 
REMARK    3  A    between atoms: C_2  and  C_9 
REMARK    4  A    between atoms: C_3  and  O_4 
REMARK    5  A    between atoms: O_4  and  P_5 
REMARK    6  A    between atoms: P_5  and  O_6 
REMARK    7  A    between atoms: P_5  and  O_7 
REMARK    8  A    between atoms: C_9  and  O_10 
REMARK    9  A    between atoms: C_9  and  C_11 
REMARK   10  A    between atoms: C_11  and  O_12 
REMARK   11  A    between atoms: C_11  and  C_13 
REMARK   12  A    between atoms: C_13  and  O_14 
REMARK   13  A    between atoms: C_13  and  C_15 
ROOT
HETATM    1  C   UNK N   1      36.498  13.711  11.502  0.00  0.00     0.173 C 
ENDROOT
BRANCH   1   2
HETATM    2  O   UNK N   1      37.796  13.347  11.857  0.00  0.00    -0.391 OA
HETATM    3  H   UNK N   1      38.358  12.811  11.275  0.00  0.00     0.210 HD
ENDBRANCH   1   2
BRANCH   1   4
HETATM    4  C   UNK N   1      36.591  14.958  10.638  0.00  0.00     0.214 C 
BRANCH   4   5
HETATM    5  O   UNK N   1      35.553  15.843  10.945  0.00  0.00    -0.294 OA
BRANCH   5   6
HETATM    6  P   UNK N   1      34.826  16.243   9.416  0.00  0.00     0.390 P 
HETATM    7  O   UNK N   1      35.335  17.619   9.922  0.00  0.00    -0.632 OA
BRANCH   6   8
HETATM    8  O   UNK N   1      33.401  17.232   9.379  0.00  0.00    -0.307 OA
HETATM    9  H   UNK N   1      33.370  18.170   9.620  0.00  0.00     0.222 HD
ENDBRANCH   6   8
BRANCH   6  10
HETATM   10  O   UNK N   1      33.594  15.620  10.474  0.00  0.00    -0.307 OA
HETATM   11  H   UNK N   1      33.400  14.745  10.844  0.00  0.00     0.222 HD
ENDBRANCH   6  10
ENDBRANCH   5   6
ENDBRANCH   4   5
ENDBRANCH   1   4
BRANCH   1  12
HETATM   12  C   UNK N   1      35.641  13.962  12.757  0.00  0.00     0.180 C 
BRANCH  12  13
HETATM   13  O   UNK N   1      34.303  13.689  12.459  0.00  0.00    -0.390 OA
HETATM   14  H   UNK N   1      34.026  12.848  12.064  0.00  0.00     0.210 HD
ENDBRANCH  12  13
BRANCH  12  15
HETATM   15  C   UNK N   1      36.092  13.115  13.966  0.00  0.00     0.184 C 
BRANCH  15  16
HETATM   16  O   UNK N   1      37.254  13.666  14.515  0.00  0.00    -0.390 OA
HETATM   17  H   UNK N   1      37.406  13.680  15.473  0.00  0.00     0.210 HD
ENDBRANCH  15  16
BRANCH  15  18
HETATM   18  C   UNK N   1      35.016  13.038  15.063  0.00  0.00     0.210 C 
BRANCH  18  19
HETATM   19  O   UNK N   1      34.052  12.083  14.738  0.00  0.00    -0.386 OA
HETATM   20  H   UNK N   1      33.102  12.280  14.759  0.00  0.00     0.210 HD
ENDBRANCH  18  19
BRANCH  18  21
HETATM   21  C   UNK N   1      35.602  12.674  16.395  0.00  0.00     0.265 C 
HETATM   22  O   UNK N   1      35.166  11.727  17.033  0.00  0.00    -0.304 OA
ENDBRANCH  18  21
ENDBRANCH  15  18
ENDBRANCH  12  15
ENDBRANCH   1  12
TORSDOF 13
ENDMDL
MODEL 8
REMARK VINA RESULT:      -5.0     12.778     15.927
REMARK  13 active torsions:
REMARK  status: ('A' for Active; 'I' for Inactive)
REMARK    1  A    between atoms: C_2  and  O_1 
REMARK    2  A    between atoms: C_2  and  C_3 
REMARK    3  A    between atoms: C_2  and  C_9 
REMARK    4  A    between atoms: C_3  and  O_4 
REMARK    5  A    between atoms: O_4  and  P_5 
REMARK    6  A    between atoms: P_5  and  O_6 
REMARK    7  A    between atoms: P_5  and  O_7 
REMARK    8  A    between atoms: C_9  and  O_10 
REMARK    9  A    between atoms: C_9  and  C_11 
REMARK   10  A    between atoms: C_11  and  O_12 
REMARK   11  A    between atoms: C_11  and  C_13 
REMARK   12  A    between atoms: C_13  and  O_14 
REMARK   13  A    between atoms: C_13  and  C_15 
ROOT
HETATM    1  C   UNK N   1      23.970  20.409   3.332  0.00  0.00     0.173 C 
ENDROOT
BRANCH   1   2
HETATM    2  O   UNK N   1      24.342  20.756   2.033  0.00  0.00    -0.391 OA
HETATM    3  H   UNK N   1      24.362  21.678   1.732  0.00  0.00     0.210 HD
ENDBRANCH   1   2
BRANCH   1   4
HETATM    4  C   UNK N   1      25.174  19.765   3.998  0.00  0.00     0.214 C 
BRANCH   4   5
HETATM    5  O   UNK N   1      25.813  20.679   4.840  0.00  0.00    -0.294 OA
BRANCH   5   6
HETATM    6  P   UNK N   1      27.443  20.093   4.997  0.00  0.00     0.390 P 
HETATM    7  O   UNK N   1      27.240  20.127   3.459  0.00  0.00    -0.632 OA
BRANCH   6   8
HETATM    8  O   UNK N   1      27.820  18.470   4.511  0.00  0.00    -0.307 OA
HETATM    9  H   UNK N   1      28.664  18.188   4.126  0.00  0.00     0.222 HD
ENDBRANCH   6   8
BRANCH   6  10
HETATM   10  O   UNK N   1      26.364  18.943   5.731  0.00  0.00    -0.307 OA
HETATM   11  H   UNK N   1      26.144  18.712   6.647  0.00  0.00     0.222 HD
ENDBRANCH   6  10
ENDBRANCH   5   6
ENDBRANCH   4   5
ENDBRANCH   1   4
BRANCH   1  12
HETATM   12  C   UNK N   1      22.762  19.455   3.314  0.00  0.00     0.180 C 
BRANCH  12  13
HETATM   13  O   UNK N   1      22.730  18.735   4.512  0.00  0.00    -0.390 OA
HETATM   14  H   UNK N   1      23.436  18.807   5.173  0.00  0.00     0.210 HD
ENDBRANCH  12  13
BRANCH  12  15
HETATM   15  C   UNK N   1      21.421  20.194   3.112  0.00  0.00     0.184 C 
BRANCH  15  16
HETATM   16  O   UNK N   1      21.665  21.552   2.887  0.00  0.00    -0.390 OA
HETATM   17  H   UNK N   1      21.652  21.929   1.993  0.00  0.00     0.210 HD
ENDBRANCH  15  16
BRANCH  15  18
HETATM   18  C   UNK N   1      20.615  19.633   1.927  0.00  0.00     0.210 C 
BRANCH  18  19
HETATM   19  O   UNK N   1      19.280  19.446   2.287  0.00  0.00    -0.386 OA
HETATM   20  H   UNK N   1      18.887  18.563   2.372  0.00  0.00     0.210 HD
ENDBRANCH  18  19
BRANCH  18  21
HETATM   21  C   UNK N   1      20.654  20.551   0.742  0.00  0.00     0.265 C 
HETATM   22  O   UNK N   1      21.710  20.804   0.180  0.00  0.00    -0.304 OA
ENDBRANCH  18  21
ENDBRANCH  15  18
ENDBRANCH  12  15
ENDBRANCH   1  12
TORSDOF 13
ENDMDL
MODEL 9
REMARK VINA RESULT:      -4.9     13.226     15.182
REMARK  13 active torsions:
REMARK  status: ('A' for Active; 'I' for Inactive)
REMARK    1  A    between atoms: C_2  and  O_1 
REMARK    2  A    between atoms: C_2  and  C_3 
REMARK    3  A    between atoms: C_2  and  C_9 
REMARK    4  A    between atoms: C_3  and  O_4 
REMARK    5  A    between atoms: O_4  and  P_5 
REMARK    6  A    between atoms: P_5  and  O_6 
REMARK    7  A    between atoms: P_5  and  O_7 
REMARK    8  A    between atoms: C_9  and  O_10 
REMARK    9  A    between atoms: C_9  and  C_11 
REMARK   10  A    between atoms: C_11  and  O_12 
REMARK   11  A    between atoms: C_11  and  C_13 
REMARK   12  A    between atoms: C_13  and  O_14 
REMARK   13  A    between atoms: C_13  and  C_15 
ROOT
HETATM    1  C   UNK N   1      21.154  13.627   8.512  0.00  0.00     0.173 C 
ENDROOT
BRANCH   1   2
HETATM    2  O   UNK N   1      20.849  14.072   9.798  0.00  0.00    -0.391 OA
HETATM    3  H   UNK N   1      21.161  14.927  10.134  0.00  0.00     0.210 HD
ENDBRANCH   1   2
BRANCH   1   4
HETATM    4  C   UNK N   1      22.610  13.195   8.508  0.00  0.00     0.214 C 
BRANCH   4   5
HETATM    5  O   UNK N   1      23.241  13.594   9.691  0.00  0.00    -0.294 OA
BRANCH   5   6
HETATM    6  P   UNK N   1      24.023  12.163  10.296  0.00  0.00     0.390 P 
HETATM    7  O   UNK N   1      22.958  12.456  11.386  0.00  0.00    -0.632 OA
BRANCH   6   8
HETATM    8  O   UNK N   1      24.961  12.253  11.754  0.00  0.00    -0.307 OA
HETATM    9  H   UNK N   1      24.947  11.592  12.464  0.00  0.00     0.222 HD
ENDBRANCH   6   8
BRANCH   6  10
HETATM   10  O   UNK N   1      25.192  13.450  10.222  0.00  0.00    -0.307 OA
HETATM   11  H   UNK N   1      25.252  14.332  10.622  0.00  0.00     0.222 HD
ENDBRANCH   6  10
ENDBRANCH   5   6
ENDBRANCH   4   5
ENDBRANCH   1   4
BRANCH   1  12
HETATM   12  C   UNK N   1      20.896  14.737   7.477  0.00  0.00     0.180 C 
BRANCH  12  13
HETATM   13  O   UNK N   1      19.658  14.516   6.868  0.00  0.00    -0.390 OA
HETATM   14  H   UNK N   1      19.468  13.707   6.367  0.00  0.00     0.210 HD
ENDBRANCH  12  13
BRANCH  12  15
HETATM   15  C   UNK N   1      20.930  16.151   8.098  0.00  0.00     0.184 C 
BRANCH  15  16
HETATM   16  O   UNK N   1      21.637  17.014   7.256  0.00  0.00    -0.390 OA
HETATM   17  H   UNK N   1      21.444  17.965   7.225  0.00  0.00     0.210 HD
ENDBRANCH  15  16
BRANCH  15  18
HETATM   18  C   UNK N   1      19.520  16.726   8.325  0.00  0.00     0.210 C 
BRANCH  18  19
HETATM   19  O   UNK N   1      18.764  15.869   9.125  0.00  0.00    -0.386 OA
HETATM   20  H   UNK N   1      18.449  16.128  10.005  0.00  0.00     0.210 HD
ENDBRANCH  18  19
BRANCH  18  21
HETATM   21  C   UNK N   1      19.567  18.068   8.993  0.00  0.00     0.265 C 
HETATM   22  O   UNK N   1      20.201  18.990   8.502  0.00  0.00    -0.304 OA
ENDBRANCH  18  21
ENDBRANCH  15  18
ENDBRANCH  12  15
ENDBRANCH   1  12
TORSDOF 13
ENDMDL
