MODEL 1
REMARK VINA RESULT:      -6.4      0.000      0.000
REMARK  12 active torsions:
REMARK  status: ('A' for Active; 'I' for Inactive)
REMARK    1  A    between atoms: C_2  and  C_1 
REMARK    2  A    between atoms: C_1  and  O_23 
REMARK    3  A    between atoms: C_3  and  O_22 
REMARK    4  A    between atoms: C_4  and  O_21 
REMARK    5  A    between atoms: C_5  and  N_20 
REMARK    6  A    between atoms: C_6  and  O_8 
REMARK    7  A    between atoms: C_9  and  O_8 
REMARK    8  A    between atoms: C_10  and  O_19 
REMARK    9  A    between atoms: C_11  and  O_18 
REMARK   10  A    between atoms: C_12  and  O_17 
REMARK   11  A    between atoms: C_13  and  O_16 
REMARK   12  A    between atoms: C_14  and  O_15 
ROOT
HETATM    1  O   UNK N   1      31.184  15.654   7.435  0.00  0.00    -0.348 OA
ENDROOT
BRANCH   1   2
HETATM    2  C   UNK N   1      32.459  15.805   8.001  0.00  0.00     0.285 C 
HETATM    3  C   UNK N   1      32.516  15.150   9.389  0.00  0.00     0.161 C 
HETATM    4  C   UNK N   1      33.911  15.388   9.983  0.00  0.00     0.176 C 
HETATM    5  C   UNK N   1      34.317  16.860   9.874  0.00  0.00     0.180 C 
HETATM    6  C   UNK N   1      34.082  17.311   8.426  0.00  0.00     0.179 C 
HETATM    7  O   UNK N   1      32.713  17.178   8.148  0.00  0.00    -0.349 OA
BRANCH   3   8
HETATM    8  N   UNK N   1      32.263  13.724   9.289  0.00  0.00    -0.420 N 
HETATM    9  H   UNK N   1      32.718  13.033   8.691  0.00  0.00     0.150 HD
HETATM   10  H   UNK N   1      31.530  13.362   9.900  0.00  0.00     0.150 HD
ENDBRANCH   3   8
BRANCH   4  11
HETATM   11  O   UNK N   1      33.944  14.979  11.318  0.00  0.00    -0.391 OA
HETATM   12  H   UNK N   1      33.229  14.438  11.686  0.00  0.00     0.210 HD
ENDBRANCH   4  11
BRANCH   5  13
HETATM   13  O   UNK N   1      35.662  16.997  10.226  0.00  0.00    -0.390 OA
HETATM   14  H   UNK N   1      36.312  16.323  10.481  0.00  0.00     0.210 HD
ENDBRANCH   5  13
BRANCH   6  15
HETATM   15  C   UNK N   1      34.480  18.760   8.198  0.00  0.00     0.198 C 
BRANCH  15  16
HETATM   16  O   UNK N   1      35.588  19.085   8.979  0.00  0.00    -0.398 OA
HETATM   17  H   UNK N   1      35.903  19.868   9.458  0.00  0.00     0.209 HD
ENDBRANCH  15  16
ENDBRANCH   6  15
ENDBRANCH   1   2
BRANCH   1  18
HETATM   18  C   UNK N   1      30.633  16.935   7.236  0.00  0.00     0.187 C 
HETATM   19  C   UNK N   1      30.081  16.971   5.804  0.00  0.00     0.181 C 
HETATM   20  C   UNK N   1      29.283  18.244   5.512  0.00  0.00     0.180 C 
HETATM   21  C   UNK N   1      28.147  18.390   6.518  0.00  0.00     0.180 C 
HETATM   22  C   UNK N   1      28.724  18.474   7.924  0.00  0.00     0.180 C 
HETATM   23  C   UNK N   1      29.498  17.201   8.254  0.00  0.00     0.181 C 
BRANCH  19  24
HETATM   24  O   UNK N   1      31.131  16.853   4.890  0.00  0.00    -0.390 OA
HETATM   25  H   UNK N   1      31.783  17.558   4.748  0.00  0.00     0.210 HD
ENDBRANCH  19  24
BRANCH  20  26
HETATM   26  O   UNK N   1      28.754  18.173   4.222  0.00  0.00    -0.390 OA
HETATM   27  H   UNK N   1      29.028  18.773   3.510  0.00  0.00     0.210 HD
ENDBRANCH  20  26
BRANCH  21  28
HETATM   28  O   UNK N   1      27.417  19.548   6.240  0.00  0.00    -0.390 OA
HETATM   29  H   UNK N   1      27.525  20.413   6.666  0.00  0.00     0.210 HD
ENDBRANCH  21  28
BRANCH  22  30
HETATM   30  O   UNK N   1      27.689  18.638   8.848  0.00  0.00    -0.390 OA
HETATM   31  H   UNK N   1      26.977  19.283   8.715  0.00  0.00     0.210 HD
ENDBRANCH  22  30
BRANCH  23  32
HETATM   32  O   UNK N   1      30.024  17.334   9.540  0.00  0.00    -0.390 OA
HETATM   33  H   UNK N   1      30.610  18.059   9.805  0.00  0.00     0.210 HD
ENDBRANCH  23  32
ENDBRANCH   1  18
TORSDOF 12
ENDMDL
MODEL 2
REMARK VINA RESULT:      -6.4      1.607      6.428
REMARK  12 active torsions:
REMARK  status: ('A' for Active; 'I' for Inactive)
REMARK    1  A    between atoms: C_2  and  C_1 
REMARK    2  A    between atoms: C_1  and  O_23 
REMARK    3  A    between atoms: C_3  and  O_22 
REMARK    4  A    between atoms: C_4  and  O_21 
REMARK    5  A    between atoms: C_5  and  N_20 
REMARK    6  A    between atoms: C_6  and  O_8 
REMARK    7  A    between atoms: C_9  and  O_8 
REMARK    8  A    between atoms: C_10  and  O_19 
REMARK    9  A    between atoms: C_11  and  O_18 
REMARK   10  A    between atoms: C_12  and  O_17 
REMARK   11  A    between atoms: C_13  and  O_16 
REMARK   12  A    between atoms: C_14  and  O_15 
ROOT
HETATM    1  O   UNK N   1      32.258  15.764   7.094  0.00  0.00    -0.348 OA
ENDROOT
BRANCH   1   2
HETATM    2  C   UNK N   1      30.933  16.205   6.960  0.00  0.00     0.285 C 
HETATM    3  C   UNK N   1      30.744  16.954   5.633  0.00  0.00     0.161 C 
HETATM    4  C   UNK N   1      29.296  17.459   5.561  0.00  0.00     0.176 C 
HETATM    5  C   UNK N   1      28.896  18.184   6.848  0.00  0.00     0.180 C 
HETATM    6  C   UNK N   1      29.270  17.284   8.034  0.00  0.00     0.179 C 
HETATM    7  O   UNK N   1      30.660  17.094   8.012  0.00  0.00    -0.349 OA
BRANCH   3   8
HETATM    8  N   UNK N   1      31.012  16.073   4.510  0.00  0.00    -0.420 N 
HETATM    9  H   UNK N   1      31.145  15.060   4.508  0.00  0.00     0.150 HD
HETATM   10  H   UNK N   1      31.076  16.527   3.599  0.00  0.00     0.150 HD
ENDBRANCH   3   8
BRANCH   4  11
HETATM   11  O   UNK N   1      29.134  18.306   4.463  0.00  0.00    -0.391 OA
HETATM   12  H   UNK N   1      28.921  17.945   3.588  0.00  0.00     0.210 HD
ENDBRANCH   4  11
BRANCH   5  13
HETATM   13  O   UNK N   1      27.523  18.436   6.830  0.00  0.00    -0.390 OA
HETATM   14  H   UNK N   1      27.037  19.228   6.548  0.00  0.00     0.210 HD
ENDBRANCH   5  13
BRANCH   6  15
HETATM   15  C   UNK N   1      28.889  17.898   9.371  0.00  0.00     0.198 C 
BRANCH  15  16
HETATM   16  O   UNK N   1      27.502  17.968   9.493  0.00  0.00    -0.398 OA
HETATM   17  H   UNK N   1      26.750  17.394   9.279  0.00  0.00     0.209 HD
ENDBRANCH  15  16
ENDBRANCH   6  15
ENDBRANCH   1   2
BRANCH   1  18
HETATM   18  C   UNK N   1      32.684  16.031   8.410  0.00  0.00     0.187 C 
HETATM   19  C   UNK N   1      33.120  14.692   9.023  0.00  0.00     0.181 C 
HETATM   20  C   UNK N   1      33.783  14.858  10.391  0.00  0.00     0.180 C 
HETATM   21  C   UNK N   1      34.978  15.800  10.280  0.00  0.00     0.180 C 
HETATM   22  C   UNK N   1      34.506  17.160   9.785  0.00  0.00     0.180 C 
HETATM   23  C   UNK N   1      33.868  17.027   8.406  0.00  0.00     0.181 C 
BRANCH  19  24
HETATM   24  O   UNK N   1      32.016  13.843   9.135  0.00  0.00    -0.390 OA
HETATM   25  H   UNK N   1      31.123  14.168   9.333  0.00  0.00     0.210 HD
ENDBRANCH  19  24
BRANCH  20  26
HETATM   26  O   UNK N   1      34.216  13.613  10.851  0.00  0.00    -0.390 OA
HETATM   27  H   UNK N   1      34.464  13.454  11.776  0.00  0.00     0.210 HD
ENDBRANCH  20  26
BRANCH  21  28
HETATM   28  O   UNK N   1      35.585  15.940  11.530  0.00  0.00    -0.390 OA
HETATM   29  H   UNK N   1      35.849  15.221  12.126  0.00  0.00     0.210 HD
ENDBRANCH  21  28
BRANCH  22  30
HETATM   30  O   UNK N   1      35.592  18.036   9.710  0.00  0.00    -0.390 OA
HETATM   31  H   UNK N   1      35.685  18.792  10.310  0.00  0.00     0.210 HD
ENDBRANCH  22  30
BRANCH  23  32
HETATM   32  O   UNK N   1      33.434  18.291   8.005  0.00  0.00    -0.390 OA
HETATM   33  H   UNK N   1      33.927  18.855   7.390  0.00  0.00     0.210 HD
ENDBRANCH  23  32
ENDBRANCH   1  18
TORSDOF 12
ENDMDL
MODEL 3
REMARK VINA RESULT:      -6.3     10.150     12.131
REMARK  12 active torsions:
REMARK  status: ('A' for Active; 'I' for Inactive)
REMARK    1  A    between atoms: C_2  and  C_1 
REMARK    2  A    between atoms: C_1  and  O_23 
REMARK    3  A    between atoms: C_3  and  O_22 
REMARK    4  A    between atoms: C_4  and  O_21 
REMARK    5  A    between atoms: C_5  and  N_20 
REMARK    6  A    between atoms: C_6  and  O_8 
REMARK    7  A    between atoms: C_9  and  O_8 
REMARK    8  A    between atoms: C_10  and  O_19 
REMARK    9  A    between atoms: C_11  and  O_18 
REMARK   10  A    between atoms: C_12  and  O_17 
REMARK   11  A    between atoms: C_13  and  O_16 
REMARK   12  A    between atoms: C_14  and  O_15 
ROOT
HETATM    1  O   UNK N   1      22.800  17.285   4.780  0.00  0.00    -0.348 OA
ENDROOT
BRANCH   1   2
HETATM    2  C   UNK N   1      22.357  18.010   3.664  0.00  0.00     0.285 C 
HETATM    3  C   UNK N   1      22.723  19.495   3.804  0.00  0.00     0.161 C 
HETATM    4  C   UNK N   1      22.172  20.250   2.587  0.00  0.00     0.176 C 
HETATM    5  C   UNK N   1      20.702  19.901   2.336  0.00  0.00     0.180 C 
HETATM    6  C   UNK N   1      20.572  18.372   2.334  0.00  0.00     0.179 C 
HETATM    7  O   UNK N   1      20.959  17.903   3.600  0.00  0.00    -0.349 OA
BRANCH   3   8
HETATM    8  N   UNK N   1      24.164  19.659   3.871  0.00  0.00    -0.420 N 
HETATM    9  H   UNK N   1      24.715  20.223   4.520  0.00  0.00     0.150 HD
HETATM   10  H   UNK N   1      24.700  19.140   3.175  0.00  0.00     0.150 HD
ENDBRANCH   3   8
BRANCH   4  11
HETATM   11  O   UNK N   1      22.313  21.627   2.767  0.00  0.00    -0.391 OA
HETATM   12  H   UNK N   1      21.605  22.235   2.500  0.00  0.00     0.210 HD
ENDBRANCH   4  11
BRANCH   5  13
HETATM   13  O   UNK N   1      20.303  20.435   1.108  0.00  0.00    -0.390 OA
HETATM   14  H   UNK N   1      20.498  21.298   0.709  0.00  0.00     0.210 HD
ENDBRANCH   5  13
BRANCH   6  15
HETATM   15  C   UNK N   1      19.149  17.911   2.065  0.00  0.00     0.198 C 
BRANCH  15  16
HETATM   16  O   UNK N   1      18.243  18.912   2.414  0.00  0.00    -0.398 OA
HETATM   17  H   UNK N   1      17.695  19.122   3.186  0.00  0.00     0.209 HD
ENDBRANCH  15  16
ENDBRANCH   6  15
ENDBRANCH   1   2
BRANCH   1  18
HETATM   18  C   UNK N   1      21.677  16.720   5.416  0.00  0.00     0.187 C 
HETATM   19  C   UNK N   1      21.935  15.210   5.528  0.00  0.00     0.181 C 
HETATM   20  C   UNK N   1      20.877  14.493   6.369  0.00  0.00     0.180 C 
HETATM   21  C   UNK N   1      20.802  15.119   7.758  0.00  0.00     0.180 C 
HETATM   22  C   UNK N   1      20.426  16.588   7.630  0.00  0.00     0.180 C 
HETATM   23  C   UNK N   1      21.483  17.335   6.822  0.00  0.00     0.181 C 
BRANCH  19  24
HETATM   24  O   UNK N   1      21.986  14.644   4.252  0.00  0.00    -0.390 OA
HETATM   25  H   UNK N   1      22.804  14.287   3.870  0.00  0.00     0.210 HD
ENDBRANCH  19  24
BRANCH  20  26
HETATM   26  O   UNK N   1      21.215  13.143   6.487  0.00  0.00    -0.390 OA
HETATM   27  H   UNK N   1      20.736  12.441   6.019  0.00  0.00     0.210 HD
ENDBRANCH  20  26
BRANCH  21  28
HETATM   28  O   UNK N   1      19.842  14.454   8.523  0.00  0.00    -0.390 OA
HETATM   29  H   UNK N   1      19.133  13.881   8.189  0.00  0.00     0.210 HD
ENDBRANCH  21  28
BRANCH  22  30
HETATM   30  O   UNK N   1      20.327  17.160   8.901  0.00  0.00    -0.390 OA
HETATM   31  H   UNK N   1      20.175  18.111   9.027  0.00  0.00     0.210 HD
ENDBRANCH  22  30
BRANCH  23  32
HETATM   32  O   UNK N   1      21.086  18.669   6.715  0.00  0.00    -0.390 OA
HETATM   33  H   UNK N   1      20.370  18.968   6.134  0.00  0.00     0.210 HD
ENDBRANCH  23  32
ENDBRANCH   1  18
TORSDOF 12
ENDMDL
MODEL 4
REMARK VINA RESULT:      -6.2      2.192      6.070
REMARK  12 active torsions:
REMARK  status: ('A' for Active; 'I' for Inactive)
REMARK    1  A    between atoms: C_2  and  C_1 
REMARK    2  A    between atoms: C_1  and  O_23 
REMARK    3  A    between atoms: C_3  and  O_22 
REMARK    4  A    between atoms: C_4  and  O_21 
REMARK    5  A    between atoms: C_5  and  N_20 
REMARK    6  A    between atoms: C_6  and  O_8 
REMARK    7  A    between atoms: C_9  and  O_8 
REMARK    8  A    between atoms: C_10  and  O_19 
REMARK    9  A    between atoms: C_11  and  O_18 
REMARK   10  A    between atoms: C_12  and  O_17 
REMARK   11  A    between atoms: C_13  and  O_16 
REMARK   12  A    between atoms: C_14  and  O_15 
ROOT
HETATM    1  O   UNK N   1      32.087  17.684   8.643  0.00  0.00    -0.348 OA
ENDROOT
BRANCH   1   2
HETATM    2  C   UNK N   1      30.834  17.985   8.088  0.00  0.00     0.285 C 
HETATM    3  C   UNK N   1      29.728  17.854   9.146  0.00  0.00     0.161 C 
HETATM    4  C   UNK N   1      28.378  18.142   8.477  0.00  0.00     0.176 C 
HETATM    5  C   UNK N   1      28.218  17.344   7.180  0.00  0.00     0.180 C 
HETATM    6  C   UNK N   1      29.482  17.556   6.335  0.00  0.00     0.179 C 
HETATM    7  O   UNK N   1      30.577  17.062   7.062  0.00  0.00    -0.349 OA
BRANCH   3   8
HETATM    8  N   UNK N   1      29.949  18.794  10.231  0.00  0.00    -0.420 N 
HETATM    9  H   UNK N   1      29.313  19.499  10.605  0.00  0.00     0.150 HD
HETATM   10  H   UNK N   1      30.863  18.742  10.680  0.00  0.00     0.150 HD
ENDBRANCH   3   8
BRANCH   4  11
HETATM   11  O   UNK N   1      27.331  17.846   9.353  0.00  0.00    -0.391 OA
HETATM   12  H   UNK N   1      26.661  17.187   9.115  0.00  0.00     0.210 HD
ENDBRANCH   4  11
BRANCH   5  13
HETATM   13  O   UNK N   1      27.084  17.790   6.498  0.00  0.00    -0.390 OA
HETATM   14  H   UNK N   1      26.988  18.107   5.586  0.00  0.00     0.210 HD
ENDBRANCH   5  13
BRANCH   6  15
HETATM   15  C   UNK N   1      29.420  16.826   5.004  0.00  0.00     0.198 C 
BRANCH  15  16
HETATM   16  O   UNK N   1      28.971  17.686   4.002  0.00  0.00    -0.398 OA
HETATM   17  H   UNK N   1      29.374  18.336   3.405  0.00  0.00     0.209 HD
ENDBRANCH  15  16
ENDBRANCH   6  15
ENDBRANCH   1   2
BRANCH   1  18
HETATM   18  C   UNK N   1      32.491  16.422   8.165  0.00  0.00     0.187 C 
HETATM   19  C   UNK N   1      33.723  16.649   7.278  0.00  0.00     0.181 C 
HETATM   20  C   UNK N   1      34.384  15.340   6.840  0.00  0.00     0.180 C 
HETATM   21  C   UNK N   1      34.762  14.512   8.064  0.00  0.00     0.180 C 
HETATM   22  C   UNK N   1      33.509  14.195   8.867  0.00  0.00     0.180 C 
HETATM   23  C   UNK N   1      32.847  15.484   9.344  0.00  0.00     0.181 C 
BRANCH  19  24
HETATM   24  O   UNK N   1      33.363  17.394   6.152  0.00  0.00    -0.390 OA
HETATM   25  H   UNK N   1      33.808  17.295   5.295  0.00  0.00     0.210 HD
ENDBRANCH  19  24
BRANCH  20  26
HETATM   26  O   UNK N   1      35.533  15.625   6.101  0.00  0.00    -0.390 OA
HETATM   27  H   UNK N   1      35.512  15.802   5.146  0.00  0.00     0.210 HD
ENDBRANCH  20  26
BRANCH  21  28
HETATM   28  O   UNK N   1      35.373  13.324   7.658  0.00  0.00    -0.390 OA
HETATM   29  H   UNK N   1      36.275  13.227   7.314  0.00  0.00     0.210 HD
ENDBRANCH  21  28
BRANCH  22  30
HETATM   30  O   UNK N   1      33.845  13.412   9.974  0.00  0.00    -0.390 OA
HETATM   31  H   UNK N   1      33.863  12.442   9.932  0.00  0.00     0.210 HD
ENDBRANCH  22  30
BRANCH  23  32
HETATM   32  O   UNK N   1      31.695  15.144  10.055  0.00  0.00    -0.390 OA
HETATM   33  H   UNK N   1      31.623  15.213  11.019  0.00  0.00     0.210 HD
ENDBRANCH  23  32
ENDBRANCH   1  18
TORSDOF 12
ENDMDL
MODEL 5
REMARK VINA RESULT:      -6.2      3.179      7.769
REMARK  12 active torsions:
REMARK  status: ('A' for Active; 'I' for Inactive)
REMARK    1  A    between atoms: C_2  and  C_1 
REMARK    2  A    between atoms: C_1  and  O_23 
REMARK    3  A    between atoms: C_3  and  O_22 
REMARK    4  A    between atoms: C_4  and  O_21 
REMARK    5  A    between atoms: C_5  and  N_20 
REMARK    6  A    between atoms: C_6  and  O_8 
REMARK    7  A    between atoms: C_9  and  O_8 
REMARK    8  A    between atoms: C_10  and  O_19 
REMARK    9  A    between atoms: C_11  and  O_18 
REMARK   10  A    between atoms: C_12  and  O_17 
REMARK   11  A    between atoms: C_13  and  O_16 
REMARK   12  A    between atoms: C_14  and  O_15 
ROOT
HETATM    1  O   UNK N   1      35.156  13.608  10.217  0.00  0.00    -0.348 OA
ENDROOT
BRANCH   1   2
HETATM    2  C   UNK N   1      34.177  14.446   9.661  0.00  0.00     0.285 C 
HETATM    3  C   UNK N   1      33.388  13.705   8.571  0.00  0.00     0.161 C 
HETATM    4  C   UNK N   1      32.369  14.678   7.962  0.00  0.00     0.176 C 
HETATM    5  C   UNK N   1      33.028  16.008   7.583  0.00  0.00     0.180 C 
HETATM    6  C   UNK N   1      33.834  16.498   8.794  0.00  0.00     0.179 C 
HETATM    7  O   UNK N   1      34.824  15.543   9.071  0.00  0.00    -0.349 OA
BRANCH   3   8
HETATM    8  N   UNK N   1      32.695  12.560   9.134  0.00  0.00    -0.420 N 
HETATM    9  H   UNK N   1      31.692  12.379   9.183  0.00  0.00     0.150 HD
HETATM   10  H   UNK N   1      33.293  11.837   9.535  0.00  0.00     0.150 HD
ENDBRANCH   3   8
BRANCH   4  11
HETATM   11  O   UNK N   1      31.765  14.107   6.840  0.00  0.00    -0.391 OA
HETATM   12  H   UNK N   1      31.422  13.200   6.873  0.00  0.00     0.210 HD
ENDBRANCH   4  11
BRANCH   5  13
HETATM   13  O   UNK N   1      32.040  16.932   7.236  0.00  0.00    -0.390 OA
HETATM   14  H   UNK N   1      31.858  17.362   6.384  0.00  0.00     0.210 HD
ENDBRANCH   5  13
BRANCH   6  15
HETATM   15  C   UNK N   1      34.513  17.834   8.536  0.00  0.00     0.198 C 
BRANCH  15  16
HETATM   16  O   UNK N   1      34.596  18.076   7.165  0.00  0.00    -0.398 OA
HETATM   17  H   UNK N   1      34.229  17.678   6.360  0.00  0.00     0.209 HD
ENDBRANCH  15  16
ENDBRANCH   6  15
ENDBRANCH   1   2
BRANCH   1  18
HETATM   18  C   UNK N   1      34.988  13.597  11.615  0.00  0.00     0.187 C 
HETATM   19  C   UNK N   1      35.022  12.128  12.062  0.00  0.00     0.181 C 
HETATM   20  C   UNK N   1      35.039  11.975  13.584  0.00  0.00     0.180 C 
HETATM   21  C   UNK N   1      36.225  12.732  14.172  0.00  0.00     0.180 C 
HETATM   22  C   UNK N   1      36.108  14.208  13.819  0.00  0.00     0.180 C 
HETATM   23  C   UNK N   1      36.122  14.392  12.304  0.00  0.00     0.181 C 
BRANCH  19  24
HETATM   24  O   UNK N   1      33.924  11.448  11.532  0.00  0.00    -0.390 OA
HETATM   25  H   UNK N   1      33.831  11.260  10.584  0.00  0.00     0.210 HD
ENDBRANCH  19  24
BRANCH  20  26
HETATM   26  O   UNK N   1      35.144  10.622  13.913  0.00  0.00    -0.390 OA
HETATM   27  H   UNK N   1      34.759  10.249  14.722  0.00  0.00     0.210 HD
ENDBRANCH  20  26
BRANCH  21  28
HETATM   28  O   UNK N   1      36.240  12.580  15.560  0.00  0.00    -0.390 OA
HETATM   29  H   UNK N   1      36.791  11.962  16.066  0.00  0.00     0.210 HD
ENDBRANCH  21  28
BRANCH  22  30
HETATM   30  O   UNK N   1      37.177  14.911  14.380  0.00  0.00    -0.390 OA
HETATM   31  H   UNK N   1      37.426  14.813  15.313  0.00  0.00     0.210 HD
ENDBRANCH  22  30
BRANCH  23  32
HETATM   32  O   UNK N   1      35.992  15.754  12.032  0.00  0.00    -0.390 OA
HETATM   33  H   UNK N   1      35.184  16.152  11.673  0.00  0.00     0.210 HD
ENDBRANCH  23  32
ENDBRANCH   1  18
TORSDOF 12
ENDMDL
MODEL 6
REMARK VINA RESULT:      -6.1      9.969     11.423
REMARK  12 active torsions:
REMARK  status: ('A' for Active; 'I' for Inactive)
REMARK    1  A    between atoms: C_2  and  C_1 
REMARK    2  A    between atoms: C_1  and  O_23 
REMARK    3  A    between atoms: C_3  and  O_22 
REMARK    4  A    between atoms: C_4  and  O_21 
REMARK    5  A    between atoms: C_5  and  N_20 
REMARK    6  A    between atoms: C_6  and  O_8 
REMARK    7  A    between atoms: C_9  and  O_8 
REMARK    8  A    between atoms: C_10  and  O_19 
REMARK    9  A    between atoms: C_11  and  O_18 
REMARK   10  A    between atoms: C_12  and  O_17 
REMARK   11  A    between atoms: C_13  and  O_16 
REMARK   12  A    between atoms: C_14  and  O_15 
ROOT
HETATM    1  O   UNK N   1      22.149  16.276   4.551  0.00  0.00    -0.348 OA
ENDROOT
BRANCH   1   2
HETATM    2  C   UNK N   1      21.922  15.901   5.883  0.00  0.00     0.285 C 
HETATM    3  C   UNK N   1      21.549  14.413   5.970  0.00  0.00     0.161 C 
HETATM    4  C   UNK N   1      21.261  14.068   7.438  0.00  0.00     0.176 C 
HETATM    5  C   UNK N   1      20.301  15.080   8.068  0.00  0.00     0.180 C 
HETATM    6  C   UNK N   1      20.832  16.488   7.767  0.00  0.00     0.179 C 
HETATM    7  O   UNK N   1      20.846  16.657   6.374  0.00  0.00    -0.349 OA
BRANCH   3   8
HETATM    8  N   UNK N   1      22.635  13.587   5.476  0.00  0.00    -0.420 N 
HETATM    9  H   UNK N   1      22.935  13.432   4.512  0.00  0.00     0.150 HD
HETATM   10  H   UNK N   1      23.172  13.092   6.189  0.00  0.00     0.150 HD
ENDBRANCH   3   8
BRANCH   4  11
HETATM   11  O   UNK N   1      20.732  12.780   7.537  0.00  0.00    -0.391 OA
HETATM   12  H   UNK N   1      21.270  12.051   7.884  0.00  0.00     0.210 HD
ENDBRANCH   4  11
BRANCH   5  13
HETATM   13  O   UNK N   1      20.234  14.859   9.446  0.00  0.00    -0.390 OA
HETATM   14  H   UNK N   1      19.527  14.462   9.981  0.00  0.00     0.210 HD
ENDBRANCH   5  13
BRANCH   6  15
HETATM   15  C   UNK N   1      19.963  17.578   8.374  0.00  0.00     0.198 C 
BRANCH  15  16
HETATM   16  O   UNK N   1      20.454  18.836   8.026  0.00  0.00    -0.398 OA
HETATM   17  H   UNK N   1      20.596  19.329   7.203  0.00  0.00     0.209 HD
ENDBRANCH  15  16
ENDBRANCH   6  15
ENDBRANCH   1   2
BRANCH   1  18
HETATM   18  C   UNK N   1      21.409  17.446   4.288  0.00  0.00     0.187 C 
HETATM   19  C   UNK N   1      22.399  18.497   3.766  0.00  0.00     0.181 C 
HETATM   20  C   UNK N   1      21.704  19.763   3.261  0.00  0.00     0.180 C 
HETATM   21  C   UNK N   1      20.694  19.405   2.175  0.00  0.00     0.180 C 
HETATM   22  C   UNK N   1      19.651  18.456   2.746  0.00  0.00     0.180 C 
HETATM   23  C   UNK N   1      20.316  17.169   3.229  0.00  0.00     0.181 C 
BRANCH  19  24
HETATM   24  O   UNK N   1      23.309  18.830   4.773  0.00  0.00    -0.390 OA
HETATM   25  H   UNK N   1      24.267  18.871   4.620  0.00  0.00     0.210 HD
ENDBRANCH  19  24
BRANCH  20  26
HETATM   26  O   UNK N   1      22.656  20.639   2.738  0.00  0.00    -0.390 OA
HETATM   27  H   UNK N   1      22.682  21.582   2.967  0.00  0.00     0.210 HD
ENDBRANCH  20  26
BRANCH  21  28
HETATM   28  O   UNK N   1      20.070  20.565   1.712  0.00  0.00    -0.390 OA
HETATM   29  H   UNK N   1      19.847  20.772   0.790  0.00  0.00     0.210 HD
ENDBRANCH  21  28
BRANCH  22  30
HETATM   30  O   UNK N   1      18.707  18.147   1.764  0.00  0.00    -0.390 OA
HETATM   31  H   UNK N   1      18.089  18.811   1.418  0.00  0.00     0.210 HD
ENDBRANCH  22  30
BRANCH  23  32
HETATM   32  O   UNK N   1      19.326  16.343   3.761  0.00  0.00    -0.390 OA
HETATM   33  H   UNK N   1      18.844  16.544   4.578  0.00  0.00     0.210 HD
ENDBRANCH  23  32
ENDBRANCH   1  18
TORSDOF 12
ENDMDL
MODEL 7
REMARK VINA RESULT:      -6.1      2.135      6.454
REMARK  12 active torsions:
REMARK  status: ('A' for Active; 'I' for Inactive)
REMARK    1  A    between atoms: C_2  and  C_1 
REMARK    2  A    between atoms: C_1  and  O_23 
REMARK    3  A    between atoms: C_3  and  O_22 
REMARK    4  A    between atoms: C_4  and  O_21 
REMARK    5  A    between atoms: C_5  and  N_20 
REMARK    6  A    between atoms: C_6  and  O_8 
REMARK    7  A    between atoms: C_9  and  O_8 
REMARK    8  A    between atoms: C_10  and  O_19 
REMARK    9  A    between atoms: C_11  and  O_18 
REMARK   10  A    between atoms: C_12  and  O_17 
REMARK   11  A    between atoms: C_13  and  O_16 
REMARK   12  A    between atoms: C_14  and  O_15 
ROOT
HETATM    1  O   UNK N   1      30.957  15.920   7.345  0.00  0.00    -0.348 OA
ENDROOT
BRANCH   1   2
HETATM    2  C   UNK N   1      30.162  17.071   7.239  0.00  0.00     0.285 C 
HETATM    3  C   UNK N   1      29.269  17.227   8.479  0.00  0.00     0.161 C 
HETATM    4  C   UNK N   1      28.386  18.468   8.289  0.00  0.00     0.176 C 
HETATM    5  C   UNK N   1      27.703  18.459   6.918  0.00  0.00     0.180 C 
HETATM    6  C   UNK N   1      28.778  18.191   5.856  0.00  0.00     0.179 C 
HETATM    7  O   UNK N   1      29.336  16.929   6.113  0.00  0.00    -0.349 OA
BRANCH   3   8
HETATM    8  N   UNK N   1      30.081  17.382   9.673  0.00  0.00    -0.420 N 
HETATM    9  H   UNK N   1      30.556  16.664  10.221  0.00  0.00     0.150 HD
HETATM   10  H   UNK N   1      30.191  18.338  10.011  0.00  0.00     0.150 HD
ENDBRANCH   3   8
BRANCH   4  11
HETATM   11  O   UNK N   1      27.426  18.538   9.301  0.00  0.00    -0.391 OA
HETATM   12  H   UNK N   1      26.598  19.024   9.163  0.00  0.00     0.210 HD
ENDBRANCH   4  11
BRANCH   5  13
HETATM   13  O   UNK N   1      27.086  19.693   6.701  0.00  0.00    -0.390 OA
HETATM   14  H   UNK N   1      26.182  19.898   6.414  0.00  0.00     0.210 HD
ENDBRANCH   5  13
BRANCH   6  15
HETATM   15  C   UNK N   1      28.211  18.188   4.445  0.00  0.00     0.198 C 
BRANCH  15  16
HETATM   16  O   UNK N   1      28.162  19.488   3.943  0.00  0.00    -0.398 OA
HETATM   17  H   UNK N   1      28.743  20.265   3.952  0.00  0.00     0.209 HD
ENDBRANCH  15  16
ENDBRANCH   6  15
ENDBRANCH   1   2
BRANCH   1  18
HETATM   18  C   UNK N   1      32.258  16.238   6.908  0.00  0.00     0.187 C 
HETATM   19  C   UNK N   1      33.230  15.755   7.995  0.00  0.00     0.181 C 
HETATM   20  C   UNK N   1      34.695  15.867   7.568  0.00  0.00     0.180 C 
HETATM   21  C   UNK N   1      34.922  15.089   6.275  0.00  0.00     0.180 C 
HETATM   22  C   UNK N   1      34.036  15.662   5.178  0.00  0.00     0.180 C 
HETATM   23  C   UNK N   1      32.566  15.534   5.565  0.00  0.00     0.181 C 
BRANCH  19  24
HETATM   24  O   UNK N   1      33.025  16.484   9.168  0.00  0.00    -0.390 OA
HETATM   25  H   UNK N   1      33.655  16.476   9.907  0.00  0.00     0.210 HD
ENDBRANCH  19  24
BRANCH  20  26
HETATM   26  O   UNK N   1      35.512  15.344   8.572  0.00  0.00    -0.390 OA
HETATM   27  H   UNK N   1      36.205  14.688   8.395  0.00  0.00     0.210 HD
ENDBRANCH  20  26
BRANCH  21  28
HETATM   28  O   UNK N   1      36.262  15.187   5.896  0.00  0.00    -0.390 OA
HETATM   29  H   UNK N   1      36.612  15.128   4.993  0.00  0.00     0.210 HD
ENDBRANCH  21  28
BRANCH  22  30
HETATM   30  O   UNK N   1      34.262  14.973   3.983  0.00  0.00    -0.390 OA
HETATM   31  H   UNK N   1      33.642  14.304   3.651  0.00  0.00     0.210 HD
ENDBRANCH  22  30
BRANCH  23  32
HETATM   32  O   UNK N   1      31.798  16.090   4.541  0.00  0.00    -0.390 OA
HETATM   33  H   UNK N   1      32.085  16.847   4.008  0.00  0.00     0.210 HD
ENDBRANCH  23  32
ENDBRANCH   1  18
TORSDOF 12
ENDMDL
MODEL 8
REMARK VINA RESULT:      -6.0      3.466      6.233
REMARK  12 active torsions:
REMARK  status: ('A' for Active; 'I' for Inactive)
REMARK    1  A    between atoms: C_2  and  C_1 
REMARK    2  A    between atoms: C_1  and  O_23 
REMARK    3  A    between atoms: C_3  and  O_22 
REMARK    4  A    between atoms: C_4  and  O_21 
REMARK    5  A    between atoms: C_5  and  N_20 
REMARK    6  A    between atoms: C_6  and  O_8 
REMARK    7  A    between atoms: C_9  and  O_8 
REMARK    8  A    between atoms: C_10  and  O_19 
REMARK    9  A    between atoms: C_11  and  O_18 
REMARK   10  A    between atoms: C_12  and  O_17 
REMARK   11  A    between atoms: C_13  and  O_16 
REMARK   12  A    between atoms: C_14  and  O_15 
ROOT
HETATM    1  O   UNK N   1      35.392  14.317  10.524  0.00  0.00    -0.348 OA
ENDROOT
BRANCH   1   2
HETATM    2  C   UNK N   1      35.175  13.753  11.790  0.00  0.00     0.285 C 
HETATM    3  C   UNK N   1      36.345  14.074  12.733  0.00  0.00     0.161 C 
HETATM    4  C   UNK N   1      36.083  13.392  14.083  0.00  0.00     0.176 C 
HETATM    5  C   UNK N   1      35.702  11.921  13.898  0.00  0.00     0.180 C 
HETATM    6  C   UNK N   1      34.587  11.849  12.845  0.00  0.00     0.179 C 
HETATM    7  O   UNK N   1      35.096  12.360  11.641  0.00  0.00    -0.349 OA
BRANCH   3   8
HETATM    8  N   UNK N   1      36.466  15.508  12.923  0.00  0.00    -0.420 N 
HETATM    9  H   UNK N   1      36.052  16.264  12.375  0.00  0.00     0.150 HD
HETATM   10  H   UNK N   1      37.044  15.801  13.711  0.00  0.00     0.150 HD
ENDBRANCH   3   8
BRANCH   4  11
HETATM   11  O   UNK N   1      37.208  13.496  14.903  0.00  0.00    -0.391 OA
HETATM   12  H   UNK N   1      37.125  13.419  15.866  0.00  0.00     0.210 HD
ENDBRANCH   4  11
BRANCH   5  13
HETATM   13  O   UNK N   1      35.267  11.399  15.118  0.00  0.00    -0.390 OA
HETATM   14  H   UNK N   1      34.437  11.544  15.600  0.00  0.00     0.210 HD
ENDBRANCH   5  13
BRANCH   6  15
HETATM   15  C   UNK N   1      34.110  10.427  12.601  0.00  0.00     0.198 C 
BRANCH  15  16
HETATM   16  O   UNK N   1      33.344  10.368  11.438  0.00  0.00    -0.398 OA
HETATM   17  H   UNK N   1      33.378   9.878  10.601  0.00  0.00     0.209 HD
ENDBRANCH  15  16
ENDBRANCH   6  15
ENDBRANCH   1   2
BRANCH   1  18
HETATM   18  C   UNK N   1      34.178  14.869  10.070  0.00  0.00     0.187 C 
HETATM   19  C   UNK N   1      34.489  16.282   9.557  0.00  0.00     0.181 C 
HETATM   20  C   UNK N   1      33.293  16.932   8.859  0.00  0.00     0.180 C 
HETATM   21  C   UNK N   1      32.815  16.049   7.711  0.00  0.00     0.180 C 
HETATM   22  C   UNK N   1      32.398  14.691   8.258  0.00  0.00     0.180 C 
HETATM   23  C   UNK N   1      33.583  14.006   8.932  0.00  0.00     0.181 C 
BRANCH  19  24
HETATM   24  O   UNK N   1      34.909  17.087  10.618  0.00  0.00    -0.390 OA
HETATM   25  H   UNK N   1      35.739  16.931  11.097  0.00  0.00     0.210 HD
ENDBRANCH  19  24
BRANCH  20  26
HETATM   26  O   UNK N   1      33.669  18.180   8.358  0.00  0.00    -0.390 OA
HETATM   27  H   UNK N   1      34.582  18.386   8.100  0.00  0.00     0.210 HD
ENDBRANCH  20  26
BRANCH  21  28
HETATM   28  O   UNK N   1      31.730  16.652   7.072  0.00  0.00    -0.390 OA
HETATM   29  H   UNK N   1      30.865  16.247   6.899  0.00  0.00     0.210 HD
ENDBRANCH  21  28
BRANCH  22  30
HETATM   30  O   UNK N   1      31.932  13.887   7.214  0.00  0.00    -0.390 OA
HETATM   31  H   UNK N   1      31.094  13.401   7.274  0.00  0.00     0.210 HD
ENDBRANCH  22  30
BRANCH  23  32
HETATM   32  O   UNK N   1      33.147  12.779   9.433  0.00  0.00    -0.390 OA
HETATM   33  H   UNK N   1      33.258  12.510  10.358  0.00  0.00     0.210 HD
ENDBRANCH  23  32
ENDBRANCH   1  18
TORSDOF 12
ENDMDL
MODEL 9
REMARK VINA RESULT:      -5.9      8.129     10.774
REMARK  12 active torsions:
REMARK  status: ('A' for Active; 'I' for Inactive)
REMARK    1  A    between atoms: C_2  and  C_1 
REMARK    2  A    between atoms: C_1  and  O_23 
REMARK    3  A    between atoms: C_3  and  O_22 
REMARK    4  A    between atoms: C_4  and  O_21 
REMARK    5  A    between atoms: C_5  and  N_20 
REMARK    6  A    between atoms: C_6  and  O_8 
REMARK    7  A    between atoms: C_9  and  O_8 
REMARK    8  A    between atoms: C_10  and  O_19 
REMARK    9  A    between atoms: C_11  and  O_18 
REMARK   10  A    between atoms: C_12  and  O_17 
REMARK   11  A    between atoms: C_13  and  O_16 
REMARK   12  A    between atoms: C_14  and  O_15 
ROOT
HETATM    1  O   UNK N   1      22.558  17.614   5.904  0.00  0.00    -0.348 OA
ENDROOT
BRANCH   1   2
HETATM    2  C   UNK N   1      23.096  18.216   4.757  0.00  0.00     0.285 C 
HETATM    3  C   UNK N   1      24.504  18.761   5.041  0.00  0.00     0.161 C 
HETATM    4  C   UNK N   1      25.023  19.453   3.774  0.00  0.00     0.176 C 
HETATM    5  C   UNK N   1      23.986  20.427   3.208  0.00  0.00     0.180 C 
HETATM    6  C   UNK N   1      22.646  19.685   3.106  0.00  0.00     0.179 C 
HETATM    7  O   UNK N   1      22.269  19.293   4.400  0.00  0.00    -0.349 OA
BRANCH   3   8
HETATM    8  N   UNK N   1      25.401  17.681   5.413  0.00  0.00    -0.420 N 
HETATM    9  H   UNK N   1      25.827  16.969   4.818  0.00  0.00     0.150 HD
HETATM   10  H   UNK N   1      25.638  17.627   6.404  0.00  0.00     0.150 HD
ENDBRANCH   3   8
BRANCH   4  11
HETATM   11  O   UNK N   1      26.215  20.128   4.046  0.00  0.00    -0.391 OA
HETATM   12  H   UNK N   1      26.586  20.752   3.403  0.00  0.00     0.210 HD
ENDBRANCH   4  11
BRANCH   5  13
HETATM   13  O   UNK N   1      24.405  20.871   1.952  0.00  0.00    -0.390 OA
HETATM   14  H   UNK N   1      24.261  20.485   1.073  0.00  0.00     0.210 HD
ENDBRANCH   5  13
BRANCH   6  15
HETATM   15  C   UNK N   1      21.544  20.555   2.526  0.00  0.00     0.198 C 
BRANCH  15  16
HETATM   16  O   UNK N   1      21.829  21.903   2.741  0.00  0.00    -0.398 OA
HETATM   17  H   UNK N   1      22.630  22.443   2.834  0.00  0.00     0.209 HD
ENDBRANCH  15  16
ENDBRANCH   6  15
ENDBRANCH   1   2
BRANCH   1  18
HETATM   18  C   UNK N   1      22.106  16.326   5.558  0.00  0.00     0.187 C 
HETATM   19  C   UNK N   1      22.625  15.361   6.633  0.00  0.00     0.181 C 
HETATM   20  C   UNK N   1      22.052  13.950   6.487  0.00  0.00     0.180 C 
HETATM   21  C   UNK N   1      20.527  14.001   6.517  0.00  0.00     0.180 C 
HETATM   22  C   UNK N   1      20.027  14.866   5.369  0.00  0.00     0.180 C 
HETATM   23  C   UNK N   1      20.560  16.289   5.509  0.00  0.00     0.181 C 
BRANCH  19  24
HETATM   24  O   UNK N   1      24.020  15.309   6.587  0.00  0.00    -0.390 OA
HETATM   25  H   UNK N   1      24.509  14.486   6.426  0.00  0.00     0.210 HD
ENDBRANCH  19  24
BRANCH  20  26
HETATM   26  O   UNK N   1      22.509  13.152   7.537  0.00  0.00    -0.390 OA
HETATM   27  H   UNK N   1      21.983  12.983   8.334  0.00  0.00     0.210 HD
ENDBRANCH  20  26
BRANCH  21  28
HETATM   28  O   UNK N   1      20.010  12.710   6.393  0.00  0.00    -0.390 OA
HETATM   29  H   UNK N   1      19.226  12.450   5.883  0.00  0.00     0.210 HD
ENDBRANCH  21  28
BRANCH  22  30
HETATM   30  O   UNK N   1      18.630  14.893   5.374  0.00  0.00    -0.390 OA
HETATM   31  H   UNK N   1      18.128  15.606   4.949  0.00  0.00     0.210 HD
ENDBRANCH  22  30
BRANCH  23  32
HETATM   32  O   UNK N   1      20.093  17.036   4.426  0.00  0.00    -0.390 OA
HETATM   33  H   UNK N   1      19.240  17.496   4.423  0.00  0.00     0.210 HD
ENDBRANCH  23  32
ENDBRANCH   1  18
TORSDOF 12
ENDMDL
