MODEL 1
REMARK VINA RESULT:      -3.9      0.000      0.000
REMARK  6 active torsions:
REMARK  status: ('A' for Active; 'I' for Inactive)
REMARK    1  A    between atoms: Co_1  and  N_2 
REMARK    2  A    between atoms: Co_1  and  N_3 
REMARK    3  A    between atoms: Co_1  and  N_4 
REMARK    4  A    between atoms: Co_1  and  N_5 
REMARK    5  A    between atoms: Co_1  and  N_6 
REMARK    6  A    between atoms: Co_1  and  N_7 
ROOT
HETATM    1 Co   UNK N   1      43.468  24.683   1.863  0.00  0.00     0.000 Co
ENDROOT
BRANCH   1   2
HETATM    2  N   UNK N   1      45.024  25.024   2.918  0.00  0.00     0.072 N 
HETATM    3  H   UNK N   1      44.943  25.122   3.930  0.00  0.00     0.309 HD
HETATM    4  H   UNK N   1      45.936  25.107   2.470  0.00  0.00     0.309 HD
HETATM    5  H   UNK N   1      45.854  25.206   3.482  0.00  0.00     0.309 HD
ENDBRANCH   1   2
BRANCH   1   6
HETATM    6  N   UNK N   1      41.915  24.343   0.809  0.00  0.00     0.072 N 
HETATM    7  H   UNK N   1      41.389  25.120   0.409  0.00  0.00     0.309 HD
HETATM    8  H   UNK N   1      41.610  23.383   0.644  0.00  0.00     0.309 HD
HETATM    9  H   UNK N   1      41.084  24.161   0.245  0.00  0.00     0.309 HD
ENDBRANCH   1   6
BRANCH   1  10
HETATM   10  N   UNK N   1      43.661  23.849   3.572  0.00  0.00     0.072 N 
HETATM   11  H   UNK N   1      42.840  23.496   4.063  0.00  0.00     0.309 HD
HETATM   12  H   UNK N   1      44.586  23.758   3.994  0.00  0.00     0.309 HD
HETATM   13  H   UNK N   1      43.764  23.405   4.484  0.00  0.00     0.309 HD
ENDBRANCH   1  10
BRANCH   1  14
HETATM   14  N   UNK N   1      44.825  25.854   1.207  0.00  0.00     0.072 N 
HETATM   15  H   UNK N   1      45.480  25.528   0.496  0.00  0.00     0.309 HD
HETATM   16  H   UNK N   1      44.896  26.806   1.567  0.00  0.00     0.309 HD
HETATM   17  H   UNK N   1      45.551  26.480   0.855  0.00  0.00     0.309 HD
ENDBRANCH   1  14
BRANCH   1  18
HETATM   18  N   UNK N   1      42.107  23.512   2.513  0.00  0.00     0.072 N 
HETATM   19  H   UNK N   1      42.117  22.525   2.256  0.00  0.00     0.309 HD
HETATM   20  H   UNK N   1      41.369  23.874   3.118  0.00  0.00     0.309 HD
HETATM   21  H   UNK N   1      41.379  22.887   2.860  0.00  0.00     0.309 HD
ENDBRANCH   1  18
BRANCH   1  22
HETATM   22  N   UNK N   1      43.270  25.511   0.156  0.00  0.00     0.072 N 
HETATM   23  H   UNK N   1      44.064  25.564  -0.481  0.00  0.00     0.309 HD
HETATM   24  H   UNK N   1      42.369  25.903  -0.119  0.00  0.00     0.309 HD
HETATM   25  H   UNK N   1      43.163  25.955  -0.756  0.00  0.00     0.309 HD
ENDBRANCH   1  22
TORSDOF 6
ENDMDL
MODEL 2
REMARK VINA RESULT:      -3.9      0.059      3.065
REMARK  6 active torsions:
REMARK  status: ('A' for Active; 'I' for Inactive)
REMARK    1  A    between atoms: Co_1  and  N_2 
REMARK    2  A    between atoms: Co_1  and  N_3 
REMARK    3  A    between atoms: Co_1  and  N_4 
REMARK    4  A    between atoms: Co_1  and  N_5 
REMARK    5  A    between atoms: Co_1  and  N_6 
REMARK    6  A    between atoms: Co_1  and  N_7 
ROOT
HETATM    1 Co   UNK N   1      43.512  24.667   1.893  0.00  0.00     0.000 Co
ENDROOT
BRANCH   1   2
HETATM    2  N   UNK N   1      43.313  25.489   0.180  0.00  0.00     0.072 N 
HETATM    3  H   UNK N   1      43.465  26.492   0.075  0.00  0.00     0.309 HD
HETATM    4  H   UNK N   1      43.055  24.925  -0.629  0.00  0.00     0.309 HD
HETATM    5  H   UNK N   1      43.207  25.929  -0.734  0.00  0.00     0.309 HD
ENDBRANCH   1   2
BRANCH   1   6
HETATM    6  N   UNK N   1      43.709  23.845   3.604  0.00  0.00     0.072 N 
HETATM    7  H   UNK N   1      44.010  22.873   3.671  0.00  0.00     0.309 HD
HETATM    8  H   UNK N   1      43.515  24.379   4.451  0.00  0.00     0.309 HD
HETATM    9  H   UNK N   1      43.815  23.407   4.519  0.00  0.00     0.309 HD
ENDBRANCH   1   6
BRANCH   1  10
HETATM   10  N   UNK N   1      44.866  25.847   1.241  0.00  0.00     0.072 N 
HETATM   11  H   UNK N   1      45.849  25.587   1.316  0.00  0.00     0.309 HD
HETATM   12  H   UNK N   1      44.605  26.737   0.816  0.00  0.00     0.309 HD
HETATM   13  H   UNK N   1      45.589  26.476   0.892  0.00  0.00     0.309 HD
ENDBRANCH   1  10
BRANCH   1  14
HETATM   14  N   UNK N   1      41.961  24.307   0.839  0.00  0.00     0.072 N 
HETATM   15  H   UNK N   1      42.018  23.662   0.051  0.00  0.00     0.309 HD
HETATM   16  H   UNK N   1      41.075  24.759   1.064  0.00  0.00     0.309 HD
HETATM   17  H   UNK N   1      41.133  24.114   0.275  0.00  0.00     0.309 HD
ENDBRANCH   1  14
BRANCH   1  18
HETATM   18  N   UNK N   1      45.060  25.022   2.953  0.00  0.00     0.072 N 
HETATM   19  H   UNK N   1      45.213  24.508   3.821  0.00  0.00     0.309 HD
HETATM   20  H   UNK N   1      45.734  25.725   2.651  0.00  0.00     0.309 HD
HETATM   21  H   UNK N   1      45.887  25.212   3.519  0.00  0.00     0.309 HD
ENDBRANCH   1  18
BRANCH   1  22
HETATM   22  N   UNK N   1      42.163  23.488   2.550  0.00  0.00     0.072 N 
HETATM   23  H   UNK N   1      42.417  22.715   3.166  0.00  0.00     0.309 HD
HETATM   24  H   UNK N   1      41.188  23.631   2.286  0.00  0.00     0.309 HD
HETATM   25  H   UNK N   1      41.442  22.858   2.901  0.00  0.00     0.309 HD
ENDBRANCH   1  22
TORSDOF 6
ENDMDL
MODEL 3
REMARK VINA RESULT:      -3.9      0.003      2.500
REMARK  6 active torsions:
REMARK  status: ('A' for Active; 'I' for Inactive)
REMARK    1  A    between atoms: Co_1  and  N_2 
REMARK    2  A    between atoms: Co_1  and  N_3 
REMARK    3  A    between atoms: Co_1  and  N_4 
REMARK    4  A    between atoms: Co_1  and  N_5 
REMARK    5  A    between atoms: Co_1  and  N_6 
REMARK    6  A    between atoms: Co_1  and  N_7 
ROOT
HETATM    1 Co   UNK N   1      43.470  24.682   1.865  0.00  0.00     0.000 Co
ENDROOT
BRANCH   1   2
HETATM    2  N   UNK N   1      45.026  25.020   2.921  0.00  0.00     0.072 N 
HETATM    3  H   UNK N   1      45.360  25.976   3.045  0.00  0.00     0.309 HD
HETATM    4  H   UNK N   1      45.522  24.246   3.360  0.00  0.00     0.309 HD
HETATM    5  H   UNK N   1      45.856  25.201   3.485  0.00  0.00     0.309 HD
ENDBRANCH   1   2
BRANCH   1   6
HETATM    6  N   UNK N   1      41.916  24.344   0.811  0.00  0.00     0.072 N 
HETATM    7  H   UNK N   1      41.873  23.517   0.216  0.00  0.00     0.309 HD
HETATM    8  H   UNK N   1      41.128  24.991   0.843  0.00  0.00     0.309 HD
HETATM    9  H   UNK N   1      41.085  24.164   0.247  0.00  0.00     0.309 HD
ENDBRANCH   1   6
BRANCH   1  10
HETATM   10  N   UNK N   1      44.830  25.854   1.209  0.00  0.00     0.072 N 
HETATM   11  H   UNK N   1      45.813  25.639   1.374  0.00  0.00     0.309 HD
HETATM   12  H   UNK N   1      44.572  26.696   0.693  0.00  0.00     0.309 HD
HETATM   13  H   UNK N   1      45.555  26.480   0.859  0.00  0.00     0.309 HD
ENDBRANCH   1  10
BRANCH   1  14
HETATM   14  N   UNK N   1      43.661  23.848   3.572  0.00  0.00     0.072 N 
HETATM   15  H   UNK N   1      44.591  23.647   3.940  0.00  0.00     0.309 HD
HETATM   16  H   UNK N   1      42.834  23.604   4.116  0.00  0.00     0.309 HD
HETATM   17  H   UNK N   1      43.764  23.403   4.484  0.00  0.00     0.309 HD
ENDBRANCH   1  14
BRANCH   1  18
HETATM   18  N   UNK N   1      43.272  25.513   0.157  0.00  0.00     0.072 N 
HETATM   19  H   UNK N   1      43.555  25.016  -0.688  0.00  0.00     0.309 HD
HETATM   20  H   UNK N   1      42.883  26.453   0.089  0.00  0.00     0.309 HD
HETATM   21  H   UNK N   1      43.166  25.956  -0.756  0.00  0.00     0.309 HD
ENDBRANCH   1  18
BRANCH   1  22
HETATM   22  N   UNK N   1      42.109  23.513   2.514  0.00  0.00     0.072 N 
HETATM   23  H   UNK N   1      41.183  23.880   2.733  0.00  0.00     0.309 HD
HETATM   24  H   UNK N   1      42.308  22.521   2.642  0.00  0.00     0.309 HD
HETATM   25  H   UNK N   1      41.382  22.888   2.861  0.00  0.00     0.309 HD
ENDBRANCH   1  22
TORSDOF 6
ENDMDL
MODEL 4
REMARK VINA RESULT:      -3.9      0.054      3.075
REMARK  6 active torsions:
REMARK  status: ('A' for Active; 'I' for Inactive)
REMARK    1  A    between atoms: Co_1  and  N_2 
REMARK    2  A    between atoms: Co_1  and  N_3 
REMARK    3  A    between atoms: Co_1  and  N_4 
REMARK    4  A    between atoms: Co_1  and  N_5 
REMARK    5  A    between atoms: Co_1  and  N_6 
REMARK    6  A    between atoms: Co_1  and  N_7 
ROOT
HETATM    1 Co   UNK N   1      43.508  24.701   1.866  0.00  0.00     0.000 Co
ENDROOT
BRANCH   1   2
HETATM    2  N   UNK N   1      42.131  23.539   2.499  0.00  0.00     0.072 N 
HETATM    3  H   UNK N   1      41.182  23.628   2.136  0.00  0.00     0.309 HD
HETATM    4  H   UNK N   1      42.344  22.829   3.199  0.00  0.00     0.309 HD
HETATM    5  H   UNK N   1      41.395  22.918   2.836  0.00  0.00     0.309 HD
ENDBRANCH   1   2
BRANCH   1   6
HETATM    6  N   UNK N   1      44.885  25.862   1.235  0.00  0.00     0.072 N 
HETATM    7  H   UNK N   1      45.846  25.734   1.552  0.00  0.00     0.309 HD
HETATM    8  H   UNK N   1      44.659  26.612   0.581  0.00  0.00     0.309 HD
HETATM    9  H   UNK N   1      45.620  26.483   0.898  0.00  0.00     0.309 HD
ENDBRANCH   1   6
BRANCH   1  10
HETATM   10  N   UNK N   1      41.962  24.383   0.789  0.00  0.00     0.072 N 
HETATM   11  H   UNK N   1      41.689  25.059   0.076  0.00  0.00     0.309 HD
HETATM   12  H   UNK N   1      41.410  23.536   0.927  0.00  0.00     0.309 HD
HETATM   13  H   UNK N   1      41.137  24.213   0.214  0.00  0.00     0.309 HD
ENDBRANCH   1  10
BRANCH   1  14
HETATM   14  N   UNK N   1      43.681  23.861   3.572  0.00  0.00     0.072 N 
HETATM   15  H   UNK N   1      44.523  24.006   4.129  0.00  0.00     0.309 HD
HETATM   16  H   UNK N   1      42.931  23.267   3.926  0.00  0.00     0.309 HD
HETATM   17  H   UNK N   1      43.773  23.412   4.483  0.00  0.00     0.309 HD
ENDBRANCH   1  14
BRANCH   1  18
HETATM   18  N   UNK N   1      43.343  25.545   0.161  0.00  0.00     0.072 N 
HETATM   19  H   UNK N   1      44.173  25.894  -0.318  0.00  0.00     0.309 HD
HETATM   20  H   UNK N   1      42.424  25.647  -0.271  0.00  0.00     0.309 HD
HETATM   21  H   UNK N   1      43.254  25.996  -0.750  0.00  0.00     0.309 HD
ENDBRANCH   1  18
BRANCH   1  22
HETATM   22  N   UNK N   1      45.054  25.023   2.937  0.00  0.00     0.072 N 
HETATM   23  H   UNK N   1      45.985  24.890   2.542  0.00  0.00     0.309 HD
HETATM   24  H   UNK N   1      44.950  25.328   3.904  0.00  0.00     0.309 HD
HETATM   25  H   UNK N   1      45.880  25.195   3.510  0.00  0.00     0.309 HD
ENDBRANCH   1  22
TORSDOF 6
ENDMDL
MODEL 5
REMARK VINA RESULT:      -3.9     15.219     16.832
REMARK  6 active torsions:
REMARK  status: ('A' for Active; 'I' for Inactive)
REMARK    1  A    between atoms: Co_1  and  N_2 
REMARK    2  A    between atoms: Co_1  and  N_3 
REMARK    3  A    between atoms: Co_1  and  N_4 
REMARK    4  A    between atoms: Co_1  and  N_5 
REMARK    5  A    between atoms: Co_1  and  N_6 
REMARK    6  A    between atoms: Co_1  and  N_7 
ROOT
HETATM    1 Co   UNK N   1      31.253  16.728   9.911  0.00  0.00     0.000 Co
ENDROOT
BRANCH   1   2
HETATM    2  N   UNK N   1      32.187  17.909   8.735  0.00  0.00     0.072 N 
HETATM    3  H   UNK N   1      31.722  18.273   7.903  0.00  0.00     0.309 HD
HETATM    4  H   UNK N   1      33.149  18.175   8.939  0.00  0.00     0.309 HD
HETATM    5  H   UNK N   1      32.685  18.540   8.107  0.00  0.00     0.309 HD
ENDBRANCH   1   2
BRANCH   1   6
HETATM    6  N   UNK N   1      30.320  15.547  11.084  0.00  0.00     0.072 N 
HETATM    7  H   UNK N   1      30.389  15.673  12.095  0.00  0.00     0.309 HD
HETATM    8  H   UNK N   1      29.753  14.791  10.702  0.00  0.00     0.309 HD
HETATM    9  H   UNK N   1      29.821  14.916  11.712  0.00  0.00     0.309 HD
ENDBRANCH   1   6
BRANCH   1  10
HETATM   10  N   UNK N   1      30.438  18.368   9.365  0.00  0.00     0.072 N 
HETATM   11  H   UNK N   1      30.393  19.156  10.011  0.00  0.00     0.309 HD
HETATM   12  H   UNK N   1      30.048  18.456   8.426  0.00  0.00     0.309 HD
HETATM   13  H   UNK N   1      30.003  19.244   9.074  0.00  0.00     0.309 HD
ENDBRANCH   1  10
BRANCH   1  14
HETATM   14  N   UNK N   1      32.996  16.266   9.285  0.00  0.00     0.072 N 
HETATM   15  H   UNK N   1      33.628  15.733   9.883  0.00  0.00     0.309 HD
HETATM   16  H   UNK N   1      33.296  16.551   8.354  0.00  0.00     0.309 HD
HETATM   17  H   UNK N   1      33.928  16.018   8.952  0.00  0.00     0.309 HD
ENDBRANCH   1  14
BRANCH   1  18
HETATM   18  N   UNK N   1      29.508  17.183  10.540  0.00  0.00     0.072 N 
HETATM   19  H   UNK N   1      29.220  16.919  11.483  0.00  0.00     0.309 HD
HETATM   20  H   UNK N   1      28.864  17.692   9.934  0.00  0.00     0.309 HD
HETATM   21  H   UNK N   1      28.576  17.427  10.877  0.00  0.00     0.309 HD
ENDBRANCH   1  18
BRANCH   1  22
HETATM   22  N   UNK N   1      32.060  15.089  10.459  0.00  0.00     0.072 N 
HETATM   23  H   UNK N   1      32.609  14.543   9.795  0.00  0.00     0.309 HD
HETATM   24  H   UNK N   1      31.942  14.758  11.417  0.00  0.00     0.309 HD
HETATM   25  H   UNK N   1      32.491  14.212  10.753  0.00  0.00     0.309 HD
ENDBRANCH   1  22
TORSDOF 6
ENDMDL
MODEL 6
REMARK VINA RESULT:      -3.9      0.056      2.500
REMARK  6 active torsions:
REMARK  status: ('A' for Active; 'I' for Inactive)
REMARK    1  A    between atoms: Co_1  and  N_2 
REMARK    2  A    between atoms: Co_1  and  N_3 
REMARK    3  A    between atoms: Co_1  and  N_4 
REMARK    4  A    between atoms: Co_1  and  N_5 
REMARK    5  A    between atoms: Co_1  and  N_6 
REMARK    6  A    between atoms: Co_1  and  N_7 
ROOT
HETATM    1 Co   UNK N   1      43.510  24.702   1.865  0.00  0.00     0.000 Co
ENDROOT
BRANCH   1   2
HETATM    2  N   UNK N   1      41.963  24.384   0.790  0.00  0.00     0.072 N 
HETATM    3  H   UNK N   1      41.094  24.880   0.987  0.00  0.00     0.309 HD
HETATM    4  H   UNK N   1      42.006  23.719   0.019  0.00  0.00     0.309 HD
HETATM    5  H   UNK N   1      41.137  24.215   0.216  0.00  0.00     0.309 HD
ENDBRANCH   1   2
BRANCH   1   6
HETATM    6  N   UNK N   1      45.055  25.020   2.939  0.00  0.00     0.072 N 
HETATM    7  H   UNK N   1      45.817  24.341   2.951  0.00  0.00     0.309 HD
HETATM    8  H   UNK N   1      45.119  25.869   3.501  0.00  0.00     0.309 HD
HETATM    9  H   UNK N   1      45.881  25.190   3.513  0.00  0.00     0.309 HD
ENDBRANCH   1   6
BRANCH   1  10
HETATM   10  N   UNK N   1      42.132  23.539   2.499  0.00  0.00     0.072 N 
HETATM   11  H   UNK N   1      41.205  23.566   2.075  0.00  0.00     0.309 HD
HETATM   12  H   UNK N   1      42.324  22.890   3.263  0.00  0.00     0.309 HD
HETATM   13  H   UNK N   1      41.397  22.918   2.838  0.00  0.00     0.309 HD
ENDBRANCH   1  10
BRANCH   1  14
HETATM   14  N   UNK N   1      43.346  25.547   0.161  0.00  0.00     0.072 N 
HETATM   15  H   UNK N   1      43.002  26.505   0.098  0.00  0.00     0.309 HD
HETATM   16  H   UNK N   1      43.601  25.041  -0.686  0.00  0.00     0.309 HD
HETATM   17  H   UNK N   1      43.258  25.999  -0.749  0.00  0.00     0.309 HD
ENDBRANCH   1  14
BRANCH   1  18
HETATM   18  N   UNK N   1      43.681  23.860   3.571  0.00  0.00     0.072 N 
HETATM   19  H   UNK N   1      44.362  24.209   4.246  0.00  0.00     0.309 HD
HETATM   20  H   UNK N   1      43.092  23.062   3.807  0.00  0.00     0.309 HD
HETATM   21  H   UNK N   1      43.772  23.411   4.482  0.00  0.00     0.309 HD
ENDBRANCH   1  18
BRANCH   1  22
HETATM   22  N   UNK N   1      44.889  25.862   1.238  0.00  0.00     0.072 N 
HETATM   23  H   UNK N   1      45.038  26.766   1.685  0.00  0.00     0.309 HD
HETATM   24  H   UNK N   1      45.477  25.577   0.455  0.00  0.00     0.309 HD
HETATM   25  H   UNK N   1      45.626  26.481   0.902  0.00  0.00     0.309 HD
ENDBRANCH   1  22
TORSDOF 6
ENDMDL
MODEL 7
REMARK VINA RESULT:      -3.9     15.220     16.843
REMARK  6 active torsions:
REMARK  status: ('A' for Active; 'I' for Inactive)
REMARK    1  A    between atoms: Co_1  and  N_2 
REMARK    2  A    between atoms: Co_1  and  N_3 
REMARK    3  A    between atoms: Co_1  and  N_4 
REMARK    4  A    between atoms: Co_1  and  N_5 
REMARK    5  A    between atoms: Co_1  and  N_6 
REMARK    6  A    between atoms: Co_1  and  N_7 
ROOT
HETATM    1 Co   UNK N   1      31.252  16.727   9.910  0.00  0.00     0.000 Co
ENDROOT
BRANCH   1   2
HETATM    2  N   UNK N   1      30.316  15.550  11.087  0.00  0.00     0.072 N 
HETATM    3  H   UNK N   1      30.690  14.622  11.284  0.00  0.00     0.309 HD
HETATM    4  H   UNK N   1      29.442  15.849  11.519  0.00  0.00     0.309 HD
HETATM    5  H   UNK N   1      29.816  14.921  11.716  0.00  0.00     0.309 HD
ENDBRANCH   1   2
BRANCH   1   6
HETATM    6  N   UNK N   1      32.186  17.904   8.733  0.00  0.00     0.072 N 
HETATM    7  H   UNK N   1      32.518  17.565   7.830  0.00  0.00     0.309 HD
HETATM    8  H   UNK N   1      32.355  18.871   9.008  0.00  0.00     0.309 HD
HETATM    9  H   UNK N   1      32.686  18.533   8.105  0.00  0.00     0.309 HD
ENDBRANCH   1   6
BRANCH   1  10
HETATM   10  N   UNK N   1      32.064  15.087  10.459  0.00  0.00     0.072 N 
HETATM   11  H   UNK N   1      31.669  14.557  11.236  0.00  0.00     0.309 HD
HETATM   12  H   UNK N   1      32.893  14.741   9.976  0.00  0.00     0.309 HD
HETATM   13  H   UNK N   1      32.498  14.211  10.753  0.00  0.00     0.309 HD
ENDBRANCH   1  10
BRANCH   1  14
HETATM   14  N   UNK N   1      29.509  17.193  10.533  0.00  0.00     0.072 N 
HETATM   15  H   UNK N   1      29.378  17.505  11.495  0.00  0.00     0.309 HD
HETATM   16  H   UNK N   1      28.708  17.130   9.904  0.00  0.00     0.309 HD
HETATM   17  H   UNK N   1      28.577  17.442  10.867  0.00  0.00     0.309 HD
ENDBRANCH   1  14
BRANCH   1  18
HETATM   18  N   UNK N   1      32.996  16.268   9.282  0.00  0.00     0.072 N 
HETATM   19  H   UNK N   1      33.134  16.006   8.305  0.00  0.00     0.309 HD
HETATM   20  H   UNK N   1      33.789  16.284   9.923  0.00  0.00     0.309 HD
HETATM   21  H   UNK N   1      33.928  16.023   8.946  0.00  0.00     0.309 HD
ENDBRANCH   1  18
BRANCH   1  22
HETATM   22  N   UNK N   1      30.447  18.366   9.357  0.00  0.00     0.072 N 
HETATM   23  H   UNK N   1      29.431  18.459   9.350  0.00  0.00     0.309 HD
HETATM   24  H   UNK N   1      31.033  19.150   9.068  0.00  0.00     0.309 HD
HETATM   25  H   UNK N   1      30.017  19.243   9.061  0.00  0.00     0.309 HD
ENDBRANCH   1  22
TORSDOF 6
ENDMDL
MODEL 8
REMARK VINA RESULT:      -3.9     14.162     15.792
REMARK  6 active torsions:
REMARK  status: ('A' for Active; 'I' for Inactive)
REMARK    1  A    between atoms: Co_1  and  N_2 
REMARK    2  A    between atoms: Co_1  and  N_3 
REMARK    3  A    between atoms: Co_1  and  N_4 
REMARK    4  A    between atoms: Co_1  and  N_5 
REMARK    5  A    between atoms: Co_1  and  N_6 
REMARK    6  A    between atoms: Co_1  and  N_7 
ROOT
HETATM    1 Co   UNK N   1      32.927  16.423   9.870  0.00  0.00     0.000 Co
ENDROOT
BRANCH   1   2
HETATM    2  N   UNK N   1      32.402  17.852   8.716  0.00  0.00     0.072 N 
HETATM    3  H   UNK N   1      32.778  17.908   7.770  0.00  0.00     0.309 HD
HETATM    4  H   UNK N   1      31.747  18.560   9.046  0.00  0.00     0.309 HD
HETATM    5  H   UNK N   1      32.122  18.615   8.099  0.00  0.00     0.309 HD
ENDBRANCH   1   2
BRANCH   1   6
HETATM    6  N   UNK N   1      33.452  14.996  11.022  0.00  0.00     0.072 N 
HETATM    7  H   UNK N   1      33.133  14.045  10.835  0.00  0.00     0.309 HD
HETATM    8  H   UNK N   1      34.053  15.183  11.825  0.00  0.00     0.309 HD
HETATM    9  H   UNK N   1      33.733  14.233  11.638  0.00  0.00     0.309 HD
ENDBRANCH   1   6
BRANCH   1  10
HETATM   10  N   UNK N   1      31.118  16.542   9.265  0.00  0.00     0.072 N 
HETATM   11  H   UNK N   1      30.383  16.838   9.907  0.00  0.00     0.309 HD
HETATM   12  H   UNK N   1      30.887  16.310   8.299  0.00  0.00     0.309 HD
HETATM   13  H   UNK N   1      30.153  16.606   8.942  0.00  0.00     0.309 HD
ENDBRANCH   1  10
BRANCH   1  14
HETATM   14  N   UNK N   1      34.211  17.727   9.325  0.00  0.00     0.072 N 
HETATM   15  H   UNK N   1      34.119  18.185   8.419  0.00  0.00     0.309 HD
HETATM   16  H   UNK N   1      34.988  17.966   9.940  0.00  0.00     0.309 HD
HETATM   17  H   UNK N   1      34.896  18.424   9.034  0.00  0.00     0.309 HD
ENDBRANCH   1  14
BRANCH   1  18
HETATM   18  N   UNK N   1      31.649  15.115  10.419  0.00  0.00     0.072 N 
HETATM   19  H   UNK N   1      31.675  14.176  10.019  0.00  0.00     0.309 HD
HETATM   20  H   UNK N   1      30.939  15.354  11.112  0.00  0.00     0.309 HD
HETATM   21  H   UNK N   1      30.966  14.416  10.712  0.00  0.00     0.309 HD
ENDBRANCH   1  18
BRANCH   1  22
HETATM   22  N   UNK N   1      34.731  16.298  10.477  0.00  0.00     0.072 N 
HETATM   23  H   UNK N   1      35.115  17.019  11.088  0.00  0.00     0.309 HD
HETATM   24  H   UNK N   1      35.312  15.510  10.191  0.00  0.00     0.309 HD
HETATM   25  H   UNK N   1      35.696  16.231  10.802  0.00  0.00     0.309 HD
ENDBRANCH   1  22
TORSDOF 6
ENDMDL
MODEL 9
REMARK VINA RESULT:      -3.9     14.161     15.805
REMARK  6 active torsions:
REMARK  status: ('A' for Active; 'I' for Inactive)
REMARK    1  A    between atoms: Co_1  and  N_2 
REMARK    2  A    between atoms: Co_1  and  N_3 
REMARK    3  A    between atoms: Co_1  and  N_4 
REMARK    4  A    between atoms: Co_1  and  N_5 
REMARK    5  A    between atoms: Co_1  and  N_6 
REMARK    6  A    between atoms: Co_1  and  N_7 
ROOT
HETATM    1 Co   UNK N   1      32.925  16.422   9.870  0.00  0.00     0.000 Co
ENDROOT
BRANCH   1   2
HETATM    2  N   UNK N   1      34.734  16.306  10.472  0.00  0.00     0.072 N 
HETATM    3  H   UNK N   1      34.942  15.910  11.389  0.00  0.00     0.309 HD
HETATM    4  H   UNK N   1      35.492  16.639   9.878  0.00  0.00     0.309 HD
HETATM    5  H   UNK N   1      35.700  16.243  10.795  0.00  0.00     0.309 HD
ENDBRANCH   1   2
BRANCH   1   6
HETATM    6  N   UNK N   1      31.118  16.538   9.269  0.00  0.00     0.072 N 
HETATM    7  H   UNK N   1      30.671  15.729   8.837  0.00  0.00     0.309 HD
HETATM    8  H   UNK N   1      30.598  17.409   9.381  0.00  0.00     0.309 HD
HETATM    9  H   UNK N   1      30.151  16.600   8.948  0.00  0.00     0.309 HD
ENDBRANCH   1   6
BRANCH   1  10
HETATM   10  N   UNK N   1      34.199  17.735   9.316  0.00  0.00     0.072 N 
HETATM   11  H   UNK N   1      34.758  18.229  10.011  0.00  0.00     0.309 HD
HETATM   12  H   UNK N   1      34.320  17.942   8.324  0.00  0.00     0.309 HD
HETATM   13  H   UNK N   1      34.879  18.436   9.020  0.00  0.00     0.309 HD
ENDBRANCH   1  10
BRANCH   1  14
HETATM   14  N   UNK N   1      33.455  14.996  11.023  0.00  0.00     0.072 N 
HETATM   15  H   UNK N   1      33.122  14.968  11.987  0.00  0.00     0.309 HD
HETATM   16  H   UNK N   1      34.070  14.261  10.675  0.00  0.00     0.309 HD
HETATM   17  H   UNK N   1      33.737  14.233  11.639  0.00  0.00     0.309 HD
ENDBRANCH   1  14
BRANCH   1  18
HETATM   18  N   UNK N   1      32.388  17.847   8.717  0.00  0.00     0.072 N 
HETATM   19  H   UNK N   1      33.061  18.563   8.444  0.00  0.00     0.309 HD
HETATM   20  H   UNK N   1      31.428  17.891   8.375  0.00  0.00     0.309 HD
HETATM   21  H   UNK N   1      32.101  18.608   8.101  0.00  0.00     0.309 HD
ENDBRANCH   1  18
BRANCH   1  22
HETATM   22  N   UNK N   1      31.649  15.115  10.420  0.00  0.00     0.072 N 
HETATM   23  H   UNK N   1      30.819  15.399  10.941  0.00  0.00     0.309 HD
HETATM   24  H   UNK N   1      31.796  14.132  10.192  0.00  0.00     0.309 HD
HETATM   25  H   UNK N   1      30.966  14.416  10.713  0.00  0.00     0.309 HD
ENDBRANCH   1  22
TORSDOF 6
ENDMDL
