REMARK  0 active torsions:
REMARK  status: ('A' for Active; 'I' for Inactive)
REMARK       I    between atoms: N_1  and  C_2 
ROOT
HETATM    1  N   UNK N   1      -1.302   0.684   0.000  0.00  0.00    -0.234 N 
HETATM    2  C   UNK N   1      -0.100  -0.048   0.000  0.00  0.00     0.679 A 
HETATM    3  N   UNK N   1       1.089   0.609   0.000  0.00  0.00    -0.191 N 
ATOM      4  HN  UNK N   1       1.100   1.628   0.000  1.00  0.00     0.184 HD
HETATM    5  C   UNK N   1       2.262  -0.072  -0.000  0.00  0.00     0.065 A 
HETATM    6  C   UNK N   1       3.472   0.624  -0.000  0.00  0.00     0.031 A 
HETATM    7  C   UNK N   1       4.681  -0.078  -0.000  0.00  0.00     0.002 A 
HETATM    8  C   UNK N   1       4.682  -1.476  -0.000  0.00  0.00     0.001 A 
HETATM    9  C   UNK N   1       3.474  -2.180  -0.000  0.00  0.00     0.019 A 
HETATM   10  C   UNK N   1       2.259  -1.482  -0.000  0.00  0.00     0.060 A 
HETATM   11  C   UNK N   1       1.025  -2.143   0.000  0.00  0.00     0.272 A 
HETATM   12  O   UNK N   1       0.968  -3.361  -0.000  0.00  0.00    -0.267 OA
HETATM   13  N   UNK N   1      -0.133  -1.408   0.000  0.00  0.00    -0.156 N 
HETATM   14  H   UNK N   1      -1.279   1.668   0.000  0.00  0.00     0.174 HD
HETATM   15  H   UNK N   1      -2.166   0.212   0.000  0.00  0.00     0.174 HD
HETATM   16  H   UNK N   1      -1.001  -1.872   0.000  0.00  0.00     0.187 HD
ENDROOT
TORSDOF 0
