REMARK  15 active torsions:
REMARK  status: ('A' for Active; 'I' for Inactive)
REMARK    1  A    between atoms: C_23  and  C_18 
REMARK    2  A    between atoms: C_29  and  C_18 
REMARK    3  A    between atoms: C_26  and  C_19 
REMARK    4  A    between atoms: C_30  and  C_19 
REMARK    5  A    between atoms: C_22  and  C_20 
REMARK    6  A    between atoms: N_38  and  C_20 
REMARK    7  A    between atoms: O_39  and  C_21 
REMARK    8  A    between atoms: C_25  and  C_24 
REMARK    9  A    between atoms: C_33  and  C_27 
REMARK   10  A    between atoms: C_28  and  N_36 
REMARK   11  A    between atoms: C_31  and  C_29 
REMARK   12  A    between atoms: C_29  and  N_34 
REMARK   13  A    between atoms: O_41  and  C_30 
REMARK   14  A    between atoms: C_31  and  O_42 
REMARK   15  A    between atoms: O_45  and  C_33 
ROOT
HETATM    1  C   UNK N   1       1.738   4.185   0.742  0.00  0.00     0.135 C 
HETATM    2  N   UNK N   1       2.344   3.749  -0.308  0.00  0.00    -0.359 N 
ATOM      3  HN  UNK N   1       2.662   4.437  -0.990  1.00  0.00     0.162 HD
ENDROOT
BRANCH   1   4
HETATM    4  C   UNK N   1       1.877   5.633   1.078  0.00  0.00     0.162 C 
BRANCH   4   5
HETATM    5  C   UNK N   1       3.374   5.831   1.403  0.00  0.00     0.072 C 
BRANCH   5   6
HETATM    6  C   UNK N   1       4.119   6.894   0.662  0.00  0.00    -0.055 A 
HETATM    7  C   UNK N   1       5.299   6.584  -0.019  0.00  0.00     0.008 A 
HETATM    8  C   UNK N   1       6.022   7.597  -0.656  0.00  0.00     0.009 A 
HETATM    9  C   UNK N   1       5.571   8.926  -0.619  0.00  0.00    -0.031 A 
HETATM   10  C   UNK N   1       4.362   9.234   0.062  0.00  0.00     0.045 A 
HETATM   11  C   UNK N   1       3.667   8.207   0.704  0.00  0.00     0.026 A 
BRANCH   9  12
HETATM   12  C   UNK N   1       6.375   9.984  -1.318  0.00  0.00     0.149 C 
BRANCH  12  13
HETATM   13  C   UNK N   1       7.714  10.188  -0.679  0.00  0.00     0.143 C 
HETATM   14  O   UNK N   1       7.974  11.252  -0.142  0.00  0.00    -0.650 OA
BRANCH  13  15
HETATM   15  O   UNK N   1       8.643   9.214  -0.718  0.00  0.00    -0.776 OA
HETATM   16  H   UNK N   1       8.378   8.315  -0.744  0.00  0.00     0.167 HD
ENDBRANCH  13  15
ENDBRANCH  12  13
ENDBRANCH   9  12
BRANCH  10  17
HETATM   17  C   UNK N   1       3.778  10.596   0.136  0.00  0.00     0.176 C 
HETATM   18  O   UNK N   1       4.327  11.550  -0.389  0.00  0.00    -0.646 OA
BRANCH  17  19
HETATM   19  O   UNK N   1       2.609  10.786   0.782  0.00  0.00    -0.773 OA
HETATM   20  H   UNK N   1       2.317  11.555   1.231  0.00  0.00     0.167 HD
ENDBRANCH  17  19
ENDBRANCH  10  17
ENDBRANCH   5   6
ENDBRANCH   4   5
BRANCH   4  21
HETATM   21  N   UNK N   1       1.424   6.470  -0.019  0.00  0.00    -0.362 N 
HETATM   22  C   UNK N   1       0.187   6.576  -0.363  0.00  0.00     0.107 C 
HETATM   23  C   UNK N   1      -0.182   7.456  -1.506  0.00  0.00     0.097 C 
ATOM     24  HN  UNK N   1       2.120   7.001  -0.543  1.00  0.00     0.162 HD
BRANCH  22  25
HETATM   25  O   UNK N   1      -0.780   5.918   0.309  0.00  0.00    -0.350 OA
HETATM   26  H   UNK N   1      -1.511   6.271   0.776  0.00  0.00     0.219 HD
ENDBRANCH  22  25
ENDBRANCH   4  21
ENDBRANCH   1   4
BRANCH   1  27
HETATM   27  O   UNK N   1       1.120   3.346   1.601  0.00  0.00    -0.348 OA
HETATM   28  H   UNK N   1       0.402   3.426   2.197  0.00  0.00     0.219 HD
ENDBRANCH   1  27
BRANCH   2  29
HETATM   29  C   UNK N   1       2.605   2.360  -0.590  0.00  0.00     0.175 C 
HETATM   30  C   UNK N   1       1.927   1.932  -1.891  0.00  0.00     0.035 C 
HETATM   31  C   UNK N   1       1.731   0.405  -1.950  0.00  0.00     0.004 C 
HETATM   32  C   UNK N   1       2.928  -0.383  -1.421  0.00  0.00     0.020 C 
HETATM   33  C   UNK N   1       4.202   0.205  -2.001  0.00  0.00     0.126 C 
HETATM   34  N   UNK N   1       4.817   1.197  -1.122  0.00  0.00    -0.346 N 
HETATM   35  C   UNK N   1       4.126   2.235  -0.573  0.00  0.00     0.242 C 
HETATM   36  O   UNK N   1       4.757   3.081   0.060  0.00  0.00    -0.271 OA
BRANCH  34  37
HETATM   37  C   UNK N   1       6.217   1.034  -0.758  0.00  0.00     0.164 C 
BRANCH  37  38
HETATM   38  C   UNK N   1       6.318  -0.276  -0.072  0.00  0.00    -0.040 A 
HETATM   39  C   UNK N   1       5.394  -0.575   0.939  0.00  0.00     0.009 A 
HETATM   40  C   UNK N   1       5.111  -1.899   1.242  0.00  0.00     0.013 A 
HETATM   41  C   UNK N   1       5.764  -2.928   0.549  0.00  0.00    -0.026 A 
HETATM   42  C   UNK N   1       6.784  -2.613  -0.363  0.00  0.00     0.013 A 
HETATM   43  C   UNK N   1       7.048  -1.288  -0.685  0.00  0.00     0.009 A 
BRANCH  41  44
HETATM   44  C   UNK N   1       5.208  -4.292   0.561  0.00  0.00    -0.026 A 
HETATM   45  C   UNK N   1       5.798  -5.297  -0.221  0.00  0.00     0.012 A 
HETATM   46  C   UNK N   1       5.169  -6.533  -0.373  0.00  0.00     0.001 A 
HETATM   47  C   UNK N   1       3.932  -6.766   0.231  0.00  0.00     0.000 A 
HETATM   48  C   UNK N   1       3.334  -5.772   1.010  0.00  0.00     0.001 A 
HETATM   49  C   UNK N   1       3.967  -4.538   1.172  0.00  0.00     0.012 A 
ENDBRANCH  41  44
ENDBRANCH  37  38
ENDBRANCH  34  37
ENDBRANCH   2  29
TORSDOF 15
