MODEL 1
REMARK VINA RESULT:      -5.6      0.000      0.000
REMARK  6 active torsions:
REMARK  status: ('A' for Active; 'I' for Inactive)
REMARK    1  A    between atoms: C_2  and  O_1 
REMARK    2  A    between atoms: C_4  and  C_11 
REMARK    3  A    between atoms: C_5  and  O_6 
REMARK    4  A    between atoms: C_7  and  O_8 
REMARK    5  A    between atoms: C_9  and  O_10 
REMARK    6  A    between atoms: C_11  and  O_12 
ROOT
HETATM    1  C   UNK N   1      35.217  16.015  11.022  0.00  0.00     0.289 C 
HETATM    2  O   UNK N   1      35.577  16.698   9.844  0.00  0.00    -0.340 OA
HETATM    3  C   UNK N   1      34.392  17.186   9.253  0.00  0.00     0.253 C 
HETATM    4  C   UNK N   1      33.573  15.996   8.707  0.00  0.00     0.189 C 
HETATM    5  C   UNK N   1      33.221  15.101   9.895  0.00  0.00     0.183 C 
HETATM    6  C   UNK N   1      34.489  14.719  10.653  0.00  0.00     0.204 C 
ENDROOT
BRANCH   3   7
HETATM    7  C   UNK N   1      34.744  18.218   8.211  0.00  0.00     0.172 C 
HETATM    8  O   UNK N   1      34.414  18.067   7.046  0.00  0.00    -0.648 OA
BRANCH   7   9
HETATM    9  O   UNK N   1      35.345  19.366   8.583  0.00  0.00    -0.774 OA
HETATM   10  H   UNK N   1      35.640  19.480   9.464  0.00  0.00     0.167 HD
ENDBRANCH   7   9
ENDBRANCH   3   7
BRANCH   4  11
HETATM   11  O   UNK N   1      32.393  16.434   8.102  0.00  0.00    -0.390 OA
HETATM   12  H   UNK N   1      32.067  17.348   8.125  0.00  0.00     0.210 HD
ENDBRANCH   4  11
BRANCH   1  13
HETATM   13  O   UNK N   1      36.370  15.720  11.750  0.00  0.00    -0.368 OA
HETATM   14  H   UNK N   1      36.404  15.803  12.716  0.00  0.00     0.212 HD
ENDBRANCH   1  13
BRANCH   5  15
HETATM   15  O   UNK N   1      32.541  13.960   9.468  0.00  0.00    -0.390 OA
HETATM   16  H   UNK N   1      31.623  13.950   9.154  0.00  0.00     0.210 HD
ENDBRANCH   5  15
BRANCH   6  17
HETATM   17  O   UNK N   1      34.155  14.007  11.807  0.00  0.00    -0.388 OA
HETATM   18  H   UNK N   1      34.742  13.376  12.253  0.00  0.00     0.210 HD
ENDBRANCH   6  17
TORSDOF 6
ENDMDL
MODEL 2
REMARK VINA RESULT:      -5.5     13.430     15.420
REMARK  6 active torsions:
REMARK  status: ('A' for Active; 'I' for Inactive)
REMARK    1  A    between atoms: C_2  and  O_1 
REMARK    2  A    between atoms: C_4  and  C_11 
REMARK    3  A    between atoms: C_5  and  O_6 
REMARK    4  A    between atoms: C_7  and  O_8 
REMARK    5  A    between atoms: C_9  and  O_10 
REMARK    6  A    between atoms: C_11  and  O_12 
ROOT
HETATM    1  C   UNK N   1      21.592  20.126   2.880  0.00  0.00     0.289 C 
HETATM    2  O   UNK N   1      21.307  19.832   4.227  0.00  0.00    -0.340 OA
HETATM    3  C   UNK N   1      21.390  18.433   4.387  0.00  0.00     0.253 C 
HETATM    4  C   UNK N   1      20.209  17.768   3.648  0.00  0.00     0.189 C 
HETATM    5  C   UNK N   1      20.340  18.123   2.167  0.00  0.00     0.183 C 
HETATM    6  C   UNK N   1      20.438  19.636   1.999  0.00  0.00     0.204 C 
ENDROOT
BRANCH   3   7
HETATM    7  C   UNK N   1      21.457  18.103   5.858  0.00  0.00     0.172 C 
HETATM    8  O   UNK N   1      21.048  18.893   6.694  0.00  0.00    -0.648 OA
BRANCH   7   9
HETATM    9  O   UNK N   1      21.882  16.887   6.253  0.00  0.00    -0.774 OA
HETATM   10  H   UNK N   1      22.127  16.243   5.617  0.00  0.00     0.167 HD
ENDBRANCH   7   9
ENDBRANCH   3   7
BRANCH   4  11
HETATM   11  O   UNK N   1      20.245  16.380   3.789  0.00  0.00    -0.390 OA
HETATM   12  H   UNK N   1      20.057  15.903   4.612  0.00  0.00     0.210 HD
ENDBRANCH   4  11
BRANCH   1  13
HETATM   13  O   UNK N   1      21.746  21.505   2.735  0.00  0.00    -0.368 OA
HETATM   14  H   UNK N   1      22.242  21.893   1.997  0.00  0.00     0.212 HD
ENDBRANCH   1  13
BRANCH   5  15
HETATM   15  O   UNK N   1      19.261  17.616   1.441  0.00  0.00    -0.390 OA
HETATM   16  H   UNK N   1      18.426  18.088   1.292  0.00  0.00     0.210 HD
ENDBRANCH   5  15
BRANCH   6  17
HETATM   17  O   UNK N   1      20.684  19.949   0.662  0.00  0.00    -0.388 OA
HETATM   18  H   UNK N   1      20.198  19.573  -0.089  0.00  0.00     0.210 HD
ENDBRANCH   6  17
TORSDOF 6
ENDMDL
MODEL 3
REMARK VINA RESULT:      -5.4     14.815     16.511
REMARK  6 active torsions:
REMARK  status: ('A' for Active; 'I' for Inactive)
REMARK    1  A    between atoms: C_2  and  O_1 
REMARK    2  A    between atoms: C_4  and  C_11 
REMARK    3  A    between atoms: C_5  and  O_6 
REMARK    4  A    between atoms: C_7  and  O_8 
REMARK    5  A    between atoms: C_9  and  O_10 
REMARK    6  A    between atoms: C_11  and  O_12 
ROOT
HETATM    1  C   UNK N   1      20.652  20.305   0.912  0.00  0.00     0.289 C 
HETATM    2  O   UNK N   1      20.745  18.996   0.404  0.00  0.00    -0.340 OA
HETATM    3  C   UNK N   1      20.033  18.146   1.277  0.00  0.00     0.253 C 
HETATM    4  C   UNK N   1      20.800  18.037   2.613  0.00  0.00     0.189 C 
HETATM    5  C   UNK N   1      20.874  19.441   3.212  0.00  0.00     0.183 C 
HETATM    6  C   UNK N   1      21.477  20.409   2.198  0.00  0.00     0.204 C 
ENDROOT
BRANCH   3   7
HETATM    7  C   UNK N   1      19.793  16.821   0.596  0.00  0.00     0.172 C 
HETATM    8  O   UNK N   1      20.652  15.954   0.598  0.00  0.00    -0.648 OA
BRANCH   7   9
HETATM    9  O   UNK N   1      18.585  16.552   0.064  0.00  0.00    -0.774 OA
HETATM   10  H   UNK N   1      18.029  17.249  -0.223  0.00  0.00     0.167 HD
ENDBRANCH   7   9
ENDBRANCH   3   7
BRANCH   4  11
HETATM   11  O   UNK N   1      20.135  17.195   3.506  0.00  0.00    -0.390 OA
HETATM   12  H   UNK N   1      20.153  17.289   4.471  0.00  0.00     0.210 HD
ENDBRANCH   4  11
BRANCH   1  13
HETATM   13  O   UNK N   1      21.143  21.201  -0.039  0.00  0.00    -0.368 OA
HETATM   14  H   UNK N   1      20.989  21.080  -0.989  0.00  0.00     0.212 HD
ENDBRANCH   1  13
BRANCH   5  15
HETATM   15  O   UNK N   1      21.622  19.434   4.391  0.00  0.00    -0.390 OA
HETATM   16  H   UNK N   1      22.525  19.779   4.474  0.00  0.00     0.210 HD
ENDBRANCH   5  15
BRANCH   6  17
HETATM   17  O   UNK N   1      21.428  21.711   2.701  0.00  0.00    -0.388 OA
HETATM   18  H   UNK N   1      21.439  21.936   3.645  0.00  0.00     0.210 HD
ENDBRANCH   6  17
TORSDOF 6
ENDMDL
MODEL 4
REMARK VINA RESULT:      -5.3     14.728     16.356
REMARK  6 active torsions:
REMARK  status: ('A' for Active; 'I' for Inactive)
REMARK    1  A    between atoms: C_2  and  O_1 
REMARK    2  A    between atoms: C_4  and  C_11 
REMARK    3  A    between atoms: C_5  and  O_6 
REMARK    4  A    between atoms: C_7  and  O_8 
REMARK    5  A    between atoms: C_9  and  O_10 
REMARK    6  A    between atoms: C_11  and  O_12 
ROOT
HETATM    1  C   UNK N   1      20.142  18.562   0.918  0.00  0.00     0.289 C 
HETATM    2  O   UNK N   1      20.498  17.641   1.922  0.00  0.00    -0.340 OA
HETATM    3  C   UNK N   1      20.081  18.174   3.160  0.00  0.00     0.253 C 
HETATM    4  C   UNK N   1      20.960  19.396   3.506  0.00  0.00     0.189 C 
HETATM    5  C   UNK N   1      20.751  20.435   2.405  0.00  0.00     0.183 C 
HETATM    6  C   UNK N   1      21.023  19.809   1.039  0.00  0.00     0.204 C 
ENDROOT
BRANCH   3   7
HETATM    7  C   UNK N   1      20.105  17.085   4.204  0.00  0.00     0.172 C 
HETATM    8  O   UNK N   1      21.009  17.024   5.022  0.00  0.00    -0.648 OA
BRANCH   7   9
HETATM    9  O   UNK N   1      19.070  16.228   4.300  0.00  0.00    -0.774 OA
HETATM   10  H   UNK N   1      18.572  16.175   5.091  0.00  0.00     0.167 HD
ENDBRANCH   7   9
ENDBRANCH   3   7
BRANCH   4  11
HETATM   11  O   UNK N   1      20.589  19.950   4.732  0.00  0.00    -0.390 OA
HETATM   12  H   UNK N   1      21.144  20.545   5.260  0.00  0.00     0.210 HD
ENDBRANCH   4  11
BRANCH   1  13
HETATM   13  O   UNK N   1      20.327  17.971  -0.332  0.00  0.00    -0.368 OA
HETATM   14  H   UNK N   1      19.876  17.151  -0.586  0.00  0.00     0.212 HD
ENDBRANCH   1  13
BRANCH   5  15
HETATM   15  O   UNK N   1      21.574  21.543   2.610  0.00  0.00    -0.390 OA
HETATM   16  H   UNK N   1      21.260  22.458   2.686  0.00  0.00     0.210 HD
ENDBRANCH   5  15
BRANCH   6  17
HETATM   17  O   UNK N   1      20.710  20.722   0.031  0.00  0.00    -0.388 OA
HETATM   18  H   UNK N   1      19.810  21.017  -0.183  0.00  0.00     0.210 HD
ENDBRANCH   6  17
TORSDOF 6
ENDMDL
MODEL 5
REMARK VINA RESULT:      -5.0      2.010      3.340
REMARK  6 active torsions:
REMARK  status: ('A' for Active; 'I' for Inactive)
REMARK    1  A    between atoms: C_2  and  O_1 
REMARK    2  A    between atoms: C_4  and  C_11 
REMARK    3  A    between atoms: C_5  and  O_6 
REMARK    4  A    between atoms: C_7  and  O_8 
REMARK    5  A    between atoms: C_9  and  O_10 
REMARK    6  A    between atoms: C_11  and  O_12 
ROOT
HETATM    1  C   UNK N   1      34.442  18.225   8.217  0.00  0.00     0.289 C 
HETATM    2  O   UNK N   1      34.541  17.914   6.848  0.00  0.00    -0.340 OA
HETATM    3  C   UNK N   1      33.473  17.050   6.526  0.00  0.00     0.253 C 
HETATM    4  C   UNK N   1      33.713  15.679   7.195  0.00  0.00     0.189 C 
HETATM    5  C   UNK N   1      33.749  15.908   8.706  0.00  0.00     0.183 C 
HETATM    6  C   UNK N   1      34.779  16.982   9.046  0.00  0.00     0.204 C 
ENDROOT
BRANCH   3   7
HETATM    7  C   UNK N   1      33.321  16.983   5.027  0.00  0.00     0.172 C 
HETATM    8  O   UNK N   1      32.844  17.919   4.405  0.00  0.00    -0.648 OA
BRANCH   7   9
HETATM    9  O   UNK N   1      33.805  15.922   4.352  0.00  0.00    -0.774 OA
HETATM   10  H   UNK N   1      33.226  15.367   3.867  0.00  0.00     0.167 HD
ENDBRANCH   7   9
ENDBRANCH   3   7
BRANCH   4  11
HETATM   11  O   UNK N   1      32.683  14.786   6.894  0.00  0.00    -0.390 OA
HETATM   12  H   UNK N   1      31.990  14.945   6.234  0.00  0.00     0.210 HD
ENDBRANCH   4  11
BRANCH   1  13
HETATM   13  O   UNK N   1      35.336  19.253   8.520  0.00  0.00    -0.368 OA
HETATM   14  H   UNK N   1      35.443  19.594   9.421  0.00  0.00     0.212 HD
ENDBRANCH   1  13
BRANCH   5  15
HETATM   15  O   UNK N   1      34.037  14.719   9.378  0.00  0.00    -0.390 OA
HETATM   16  H   UNK N   1      33.825  13.832   9.047  0.00  0.00     0.210 HD
ENDBRANCH   5  15
BRANCH   6  17
HETATM   17  O   UNK N   1      34.720  17.278  10.409  0.00  0.00    -0.388 OA
HETATM   18  H   UNK N   1      35.095  18.076  10.814  0.00  0.00     0.210 HD
ENDBRANCH   6  17
TORSDOF 6
ENDMDL
MODEL 6
REMARK VINA RESULT:      -5.0      1.703      2.563
REMARK  6 active torsions:
REMARK  status: ('A' for Active; 'I' for Inactive)
REMARK    1  A    between atoms: C_2  and  O_1 
REMARK    2  A    between atoms: C_4  and  C_11 
REMARK    3  A    between atoms: C_5  and  O_6 
REMARK    4  A    between atoms: C_7  and  O_8 
REMARK    5  A    between atoms: C_9  and  O_10 
REMARK    6  A    between atoms: C_11  and  O_12 
ROOT
HETATM    1  C   UNK N   1      36.876  15.147  10.551  0.00  0.00     0.289 C 
HETATM    2  O   UNK N   1      36.047  15.386   9.439  0.00  0.00    -0.340 OA
HETATM    3  C   UNK N   1      34.798  15.832   9.923  0.00  0.00     0.253 C 
HETATM    4  C   UNK N   1      34.080  14.658  10.624  0.00  0.00     0.189 C 
HETATM    5  C   UNK N   1      34.957  14.221  11.796  0.00  0.00     0.183 C 
HETATM    6  C   UNK N   1      36.369  13.914  11.305  0.00  0.00     0.204 C 
ENDROOT
BRANCH   3   7
HETATM    7  C   UNK N   1      34.013  16.442   8.788  0.00  0.00     0.172 C 
HETATM    8  O   UNK N   1      34.331  16.237   7.628  0.00  0.00    -0.648 OA
BRANCH   7   9
HETATM    9  O   UNK N   1      32.893  17.143   9.051  0.00  0.00    -0.774 OA
HETATM   10  H   UNK N   1      32.727  17.461   9.916  0.00  0.00     0.167 HD
ENDBRANCH   7   9
ENDBRANCH   3   7
BRANCH   4  11
HETATM   11  O   UNK N   1      32.832  15.052  11.110  0.00  0.00    -0.390 OA
HETATM   12  H   UNK N   1      32.017  15.077  10.585  0.00  0.00     0.210 HD
ENDBRANCH   4  11
BRANCH   1  13
HETATM   13  O   UNK N   1      38.182  14.930  10.110  0.00  0.00    -0.368 OA
HETATM   14  H   UNK N   1      38.401  14.231   9.474  0.00  0.00     0.212 HD
ENDBRANCH   1  13
BRANCH   5  15
HETATM   15  O   UNK N   1      34.407  13.110  12.436  0.00  0.00    -0.390 OA
HETATM   16  H   UNK N   1      34.829  12.238  12.491  0.00  0.00     0.210 HD
ENDBRANCH   5  15
BRANCH   6  17
HETATM   17  O   UNK N   1      37.199  13.637  12.393  0.00  0.00    -0.388 OA
HETATM   18  H   UNK N   1      37.203  12.799  12.882  0.00  0.00     0.210 HD
ENDBRANCH   6  17
TORSDOF 6
ENDMDL
MODEL 7
REMARK VINA RESULT:      -5.0     13.229     15.159
REMARK  6 active torsions:
REMARK  status: ('A' for Active; 'I' for Inactive)
REMARK    1  A    between atoms: C_2  and  O_1 
REMARK    2  A    between atoms: C_4  and  C_11 
REMARK    3  A    between atoms: C_5  and  O_6 
REMARK    4  A    between atoms: C_7  and  O_8 
REMARK    5  A    between atoms: C_9  and  O_10 
REMARK    6  A    between atoms: C_11  and  O_12 
ROOT
HETATM    1  C   UNK N   1      20.020  17.842   3.658  0.00  0.00     0.289 C 
HETATM    2  O   UNK N   1      21.414  17.654   3.700  0.00  0.00    -0.340 OA
HETATM    3  C   UNK N   1      22.009  18.912   3.935  0.00  0.00     0.253 C 
HETATM    4  C   UNK N   1      21.834  19.796   2.681  0.00  0.00     0.189 C 
HETATM    5  C   UNK N   1      20.333  19.974   2.455  0.00  0.00     0.183 C 
HETATM    6  C   UNK N   1      19.651  18.610   2.385  0.00  0.00     0.204 C 
ENDROOT
BRANCH   3   7
HETATM    7  C   UNK N   1      23.446  18.713   4.350  0.00  0.00     0.172 C 
HETATM    8  O   UNK N   1      24.361  19.094   3.636  0.00  0.00    -0.648 OA
BRANCH   7   9
HETATM    9  O   UNK N   1      23.727  18.199   5.563  0.00  0.00    -0.774 OA
HETATM   10  H   UNK N   1      23.092  18.237   6.250  0.00  0.00     0.167 HD
ENDBRANCH   7   9
ENDBRANCH   3   7
BRANCH   4  11
HETATM   11  O   UNK N   1      22.418  21.051   2.865  0.00  0.00    -0.390 OA
HETATM   12  H   UNK N   1      23.305  21.198   3.229  0.00  0.00     0.210 HD
ENDBRANCH   4  11
BRANCH   1  13
HETATM   13  O   UNK N   1      19.390  16.597   3.659  0.00  0.00    -0.368 OA
HETATM   14  H   UNK N   1      18.455  16.493   3.422  0.00  0.00     0.212 HD
ENDBRANCH   1  13
BRANCH   5  15
HETATM   15  O   UNK N   1      20.093  20.704   1.290  0.00  0.00    -0.390 OA
HETATM   16  H   UNK N   1      19.314  21.263   1.139  0.00  0.00     0.210 HD
ENDBRANCH   5  15
BRANCH   6  17
HETATM   17  O   UNK N   1      18.267  18.777   2.305  0.00  0.00    -0.388 OA
HETATM   18  H   UNK N   1      17.692  18.968   3.063  0.00  0.00     0.210 HD
ENDBRANCH   6  17
TORSDOF 6
ENDMDL
MODEL 8
REMARK VINA RESULT:      -5.0      1.458      4.497
REMARK  6 active torsions:
REMARK  status: ('A' for Active; 'I' for Inactive)
REMARK    1  A    between atoms: C_2  and  O_1 
REMARK    2  A    between atoms: C_4  and  C_11 
REMARK    3  A    between atoms: C_5  and  O_6 
REMARK    4  A    between atoms: C_7  and  O_8 
REMARK    5  A    between atoms: C_9  and  O_10 
REMARK    6  A    between atoms: C_11  and  O_12 
ROOT
HETATM    1  C   UNK N   1      33.742  17.431   7.188  0.00  0.00     0.289 C 
HETATM    2  O   UNK N   1      33.578  16.042   7.026  0.00  0.00    -0.340 OA
HETATM    3  C   UNK N   1      32.903  15.555   8.166  0.00  0.00     0.253 C 
HETATM    4  C   UNK N   1      33.847  15.636   9.385  0.00  0.00     0.189 C 
HETATM    5  C   UNK N   1      34.202  17.108   9.591  0.00  0.00     0.183 C 
HETATM    6  C   UNK N   1      34.764  17.694   8.299  0.00  0.00     0.204 C 
ENDROOT
BRANCH   3   7
HETATM    7  C   UNK N   1      32.384  14.167   7.882  0.00  0.00     0.172 C 
HETATM    8  O   UNK N   1      32.443  13.292   8.732  0.00  0.00    -0.648 OA
BRANCH   7   9
HETATM    9  O   UNK N   1      31.761  13.912   6.715  0.00  0.00    -0.774 OA
HETATM   10  H   UNK N   1      30.832  14.009   6.645  0.00  0.00     0.167 HD
ENDBRANCH   7   9
ENDBRANCH   3   7
BRANCH   4  11
HETATM   11  O   UNK N   1      33.222  15.153  10.537  0.00  0.00    -0.390 OA
HETATM   12  H   UNK N   1      32.839  15.710  11.232  0.00  0.00     0.210 HD
ENDBRANCH   4  11
BRANCH   1  13
HETATM   13  O   UNK N   1      34.195  17.981   5.988  0.00  0.00    -0.368 OA
HETATM   14  H   UNK N   1      35.068  17.771   5.622  0.00  0.00     0.212 HD
ENDBRANCH   1  13
BRANCH   5  15
HETATM   15  O   UNK N   1      35.116  17.253  10.635  0.00  0.00    -0.390 OA
HETATM   16  H   UNK N   1      35.812  17.928  10.670  0.00  0.00     0.210 HD
ENDBRANCH   5  15
BRANCH   6  17
HETATM   17  O   UNK N   1      34.969  19.066   8.452  0.00  0.00    -0.388 OA
HETATM   18  H   UNK N   1      35.837  19.481   8.583  0.00  0.00     0.210 HD
ENDBRANCH   6  17
TORSDOF 6
ENDMDL
MODEL 9
REMARK VINA RESULT:      -5.0      2.589      4.201
REMARK  6 active torsions:
REMARK  status: ('A' for Active; 'I' for Inactive)
REMARK    1  A    between atoms: C_2  and  O_1 
REMARK    2  A    between atoms: C_4  and  C_11 
REMARK    3  A    between atoms: C_5  and  O_6 
REMARK    4  A    between atoms: C_7  and  O_8 
REMARK    5  A    between atoms: C_9  and  O_10 
REMARK    6  A    between atoms: C_11  and  O_12 
ROOT
HETATM    1  C   UNK N   1      31.193  17.399   8.541  0.00  0.00     0.289 C 
HETATM    2  O   UNK N   1      32.527  17.313   8.980  0.00  0.00    -0.340 OA
HETATM    3  C   UNK N   1      33.329  18.016   8.056  0.00  0.00     0.253 C 
HETATM    4  C   UNK N   1      33.369  17.234   6.725  0.00  0.00     0.189 C 
HETATM    5  C   UNK N   1      31.936  17.152   6.201  0.00  0.00     0.183 C 
HETATM    6  C   UNK N   1      31.022  16.560   7.270  0.00  0.00     0.204 C 
ENDROOT
BRANCH   3   7
HETATM    7  C   UNK N   1      34.687  18.264   8.664  0.00  0.00     0.172 C 
HETATM    8  O   UNK N   1      35.331  19.259   8.369  0.00  0.00    -0.648 OA
BRANCH   7   9
HETATM    9  O   UNK N   1      35.157  17.433   9.615  0.00  0.00    -0.774 OA
HETATM   10  H   UNK N   1      35.985  17.599  10.020  0.00  0.00     0.167 HD
ENDBRANCH   7   9
ENDBRANCH   3   7
BRANCH   4  11
HETATM   11  O   UNK N   1      34.163  17.890   5.782  0.00  0.00    -0.390 OA
HETATM   12  H   UNK N   1      34.231  18.853   5.692  0.00  0.00     0.210 HD
ENDBRANCH   4  11
BRANCH   1  13
HETATM   13  O   UNK N   1      30.348  16.918   9.542  0.00  0.00    -0.368 OA
HETATM   14  H   UNK N   1      30.091  17.462  10.303  0.00  0.00     0.212 HD
ENDBRANCH   1  13
BRANCH   5  15
HETATM   15  O   UNK N   1      31.882  16.391   5.032  0.00  0.00    -0.390 OA
HETATM   16  H   UNK N   1      31.920  16.756   4.134  0.00  0.00     0.210 HD
ENDBRANCH   5  15
BRANCH   6  17
HETATM   17  O   UNK N   1      29.697  16.603   6.836  0.00  0.00    -0.388 OA
HETATM   18  H   UNK N   1      29.298  15.963   6.224  0.00  0.00     0.210 HD
ENDBRANCH   6  17
TORSDOF 6
ENDMDL
