MODEL 1
REMARK VINA RESULT:      -5.1      0.000      0.000
REMARK  4 active torsions:
REMARK  status: ('A' for Active; 'I' for Inactive)
REMARK    1  A    between atoms: C_4  and  C_2 
REMARK    2  A    between atoms: O_11  and  C_2 
REMARK    3  A    between atoms: C_6  and  O_12 
REMARK    4  A    between atoms: C_7  and  O_13 
ROOT
HETATM    1  C   UNK N   1      31.868  17.498   4.590  0.00  0.00     0.076 C 
HETATM    2  C   UNK N   1      32.640  16.942   5.735  0.00  0.00     0.041 C 
HETATM    3  C   UNK N   1      35.253  15.456   9.195  0.00  0.00     0.178 C 
HETATM    4  C   UNK N   1      33.143  16.603   7.955  0.00  0.00     0.152 C 
HETATM    5  C   UNK N   1      35.051  16.945   9.578  0.00  0.00     0.180 C 
HETATM    6  C   UNK N   1      34.088  17.643   8.583  0.00  0.00     0.175 C 
HETATM    7  C   UNK N   1      33.979  15.487   7.247  0.00  0.00     0.214 C 
HETATM    8  N   UNK N   1      32.315  17.202   6.944  0.00  0.00    -0.378 N 
ATOM      9  HN  UNK N   1      31.519  17.795   7.175  1.00  0.00     0.160 HD
HETATM   10  O   UNK N   1      35.290  15.311   7.790  0.00  0.00    -0.363 OA
HETATM   11  S   UNK N   1      34.104  15.951   5.487  0.00  0.00    -0.083 SA
ENDROOT
BRANCH   3  12
HETATM   12  C   UNK N   1      36.503  14.856   9.832  0.00  0.00     0.198 C 
BRANCH  12  13
HETATM   13  O   UNK N   1      37.122  15.780  10.676  0.00  0.00    -0.398 OA
HETATM   14  H   UNK N   1      37.557  16.216  11.426  0.00  0.00     0.209 HD
ENDBRANCH  12  13
ENDBRANCH   3  12
BRANCH   5  15
HETATM   15  O   UNK N   1      34.540  17.002  10.878  0.00  0.00    -0.390 OA
HETATM   16  H   UNK N   1      33.932  16.488  11.434  0.00  0.00     0.210 HD
ENDBRANCH   5  15
BRANCH   6  17
HETATM   17  O   UNK N   1      34.843  18.238   7.565  0.00  0.00    -0.391 OA
HETATM   18  H   UNK N   1      35.171  18.561   6.712  0.00  0.00     0.210 HD
ENDBRANCH   6  17
TORSDOF 4
ENDMDL
MODEL 2
REMARK VINA RESULT:      -5.0     12.764     14.851
REMARK  4 active torsions:
REMARK  status: ('A' for Active; 'I' for Inactive)
REMARK    1  A    between atoms: C_4  and  C_2 
REMARK    2  A    between atoms: O_11  and  C_2 
REMARK    3  A    between atoms: C_6  and  O_12 
REMARK    4  A    between atoms: C_7  and  O_13 
ROOT
HETATM    1  C   UNK N   1      22.669  15.479   6.667  0.00  0.00     0.076 C 
HETATM    2  C   UNK N   1      22.169  16.525   5.733  0.00  0.00     0.041 C 
HETATM    3  C   UNK N   1      20.703  19.539   2.607  0.00  0.00     0.178 C 
HETATM    4  C   UNK N   1      20.570  17.777   4.653  0.00  0.00     0.152 C 
HETATM    5  C   UNK N   1      19.797  18.317   2.307  0.00  0.00     0.180 C 
HETATM    6  C   UNK N   1      20.047  17.181   3.334  0.00  0.00     0.175 C 
HETATM    7  C   UNK N   1      21.874  18.596   4.384  0.00  0.00     0.214 C 
HETATM    8  N   UNK N   1      20.918  16.740   5.585  0.00  0.00    -0.378 N 
ATOM      9  HN  UNK N   1      20.213  16.210   6.097  1.00  0.00     0.160 HD
HETATM   10  O   UNK N   1      21.973  19.110   3.054  0.00  0.00    -0.363 OA
HETATM   11  S   UNK N   1      23.280  17.480   4.713  0.00  0.00    -0.083 SA
ENDROOT
BRANCH   3  12
HETATM   12  C   UNK N   1      20.839  20.471   1.407  0.00  0.00     0.198 C 
BRANCH  12  13
HETATM   13  O   UNK N   1      20.547  19.797   0.219  0.00  0.00    -0.398 OA
HETATM   14  H   UNK N   1      20.122  19.469  -0.589  0.00  0.00     0.209 HD
ENDBRANCH  12  13
ENDBRANCH   3  12
BRANCH   5  15
HETATM   15  O   UNK N   1      18.463  18.734   2.349  0.00  0.00    -0.390 OA
HETATM   16  H   UNK N   1      17.762  18.960   1.719  0.00  0.00     0.210 HD
ENDBRANCH   5  15
BRANCH   6  17
HETATM   17  O   UNK N   1      21.013  16.310   2.818  0.00  0.00    -0.391 OA
HETATM   18  H   UNK N   1      21.561  15.759   2.238  0.00  0.00     0.210 HD
ENDBRANCH   6  17
TORSDOF 4
ENDMDL
MODEL 3
REMARK VINA RESULT:      -5.0      2.818      4.509
REMARK  4 active torsions:
REMARK  status: ('A' for Active; 'I' for Inactive)
REMARK    1  A    between atoms: C_4  and  C_2 
REMARK    2  A    between atoms: O_11  and  C_2 
REMARK    3  A    between atoms: C_6  and  O_12 
REMARK    4  A    between atoms: C_7  and  O_13 
ROOT
HETATM    1  C   UNK N   1      34.334  10.787  10.336  0.00  0.00     0.076 C 
HETATM    2  C   UNK N   1      34.498  12.191   9.868  0.00  0.00     0.041 C 
HETATM    3  C   UNK N   1      34.728  16.589   8.598  0.00  0.00     0.178 C 
HETATM    4  C   UNK N   1      35.439  14.290   9.831  0.00  0.00     0.152 C 
HETATM    5  C   UNK N   1      34.777  16.710  10.144  0.00  0.00     0.180 C 
HETATM    6  C   UNK N   1      34.818  15.308  10.804  0.00  0.00     0.175 C 
HETATM    7  C   UNK N   1      34.621  14.265   8.498  0.00  0.00     0.214 C 
HETATM    8  N   UNK N   1      35.386  12.959  10.372  0.00  0.00    -0.378 N 
ATOM      9  HN  UNK N   1      36.017  12.647  11.109  1.00  0.00     0.160 HD
HETATM   10  O   UNK N   1      33.931  15.485   8.218  0.00  0.00    -0.363 OA
HETATM   11  S   UNK N   1      33.417  12.901   8.637  0.00  0.00    -0.083 SA
ENDROOT
BRANCH   3  12
HETATM   12  C   UNK N   1      34.234  17.868   7.929  0.00  0.00     0.198 C 
BRANCH  12  13
HETATM   13  O   UNK N   1      34.975  18.970   8.359  0.00  0.00    -0.398 OA
HETATM   14  H   UNK N   1      35.258  19.808   8.760  0.00  0.00     0.209 HD
ENDBRANCH  12  13
ENDBRANCH   3  12
BRANCH   5  15
HETATM   15  O   UNK N   1      35.908  17.452  10.493  0.00  0.00    -0.390 OA
HETATM   16  H   UNK N   1      36.827  17.545  10.195  0.00  0.00     0.210 HD
ENDBRANCH   5  15
BRANCH   6  17
HETATM   17  O   UNK N   1      33.509  14.908  11.100  0.00  0.00    -0.391 OA
HETATM   18  H   UNK N   1      32.586  14.874  11.396  0.00  0.00     0.210 HD
ENDBRANCH   6  17
TORSDOF 4
ENDMDL
MODEL 4
REMARK VINA RESULT:      -5.0      1.935      2.543
REMARK  4 active torsions:
REMARK  status: ('A' for Active; 'I' for Inactive)
REMARK    1  A    between atoms: C_4  and  C_2 
REMARK    2  A    between atoms: O_11  and  C_2 
REMARK    3  A    between atoms: C_6  and  O_12 
REMARK    4  A    between atoms: C_7  and  O_13 
ROOT
HETATM    1  C   UNK N   1      31.948  17.506   7.849  0.00  0.00     0.076 C 
HETATM    2  C   UNK N   1      33.066  16.684   8.391  0.00  0.00     0.041 C 
HETATM    3  C   UNK N   1      36.691  14.430  10.059  0.00  0.00     0.178 C 
HETATM    4  C   UNK N   1      34.216  15.516  10.005  0.00  0.00     0.152 C 
HETATM    5  C   UNK N   1      36.471  15.511  11.149  0.00  0.00     0.180 C 
HETATM    6  C   UNK N   1      35.202  16.349  10.844  0.00  0.00     0.175 C 
HETATM    7  C   UNK N   1      34.912  15.041   8.688  0.00  0.00     0.214 C 
HETATM    8  N   UNK N   1      33.080  16.304   9.611  0.00  0.00    -0.378 N 
ATOM      9  HN  UNK N   1      32.333  16.544  10.261  1.00  0.00     0.160 HD
HETATM   10  O   UNK N   1      36.334  14.934   8.788  0.00  0.00    -0.363 OA
HETATM   11  S   UNK N   1      34.481  16.250   7.392  0.00  0.00    -0.083 SA
ENDROOT
BRANCH   3  12
HETATM   12  C   UNK N   1      38.121  13.898  10.047  0.00  0.00     0.198 C 
BRANCH  12  13
HETATM   13  O   UNK N   1      38.396  13.188  11.217  0.00  0.00    -0.398 OA
HETATM   14  H   UNK N   1      38.388  12.840  12.123  0.00  0.00     0.209 HD
ENDBRANCH  12  13
ENDBRANCH   3  12
BRANCH   5  15
HETATM   15  O   UNK N   1      36.354  14.874  12.387  0.00  0.00    -0.390 OA
HETATM   16  H   UNK N   1      36.735  14.104  12.838  0.00  0.00     0.210 HD
ENDBRANCH   5  15
BRANCH   6  17
HETATM   17  O   UNK N   1      35.573  17.482  10.110  0.00  0.00    -0.391 OA
HETATM   18  H   UNK N   1      35.593  18.348   9.674  0.00  0.00     0.210 HD
ENDBRANCH   6  17
TORSDOF 4
ENDMDL
MODEL 5
REMARK VINA RESULT:      -4.7      2.907      4.869
REMARK  4 active torsions:
REMARK  status: ('A' for Active; 'I' for Inactive)
REMARK    1  A    between atoms: C_4  and  C_2 
REMARK    2  A    between atoms: O_11  and  C_2 
REMARK    3  A    between atoms: C_6  and  O_12 
REMARK    4  A    between atoms: C_7  and  O_13 
ROOT
HETATM    1  C   UNK N   1      36.036  12.147  11.772  0.00  0.00     0.076 C 
HETATM    2  C   UNK N   1      35.547  13.425  11.185  0.00  0.00     0.041 C 
HETATM    3  C   UNK N   1      34.072  17.218   9.078  0.00  0.00     0.178 C 
HETATM    4  C   UNK N   1      33.973  15.010  10.634  0.00  0.00     0.152 C 
HETATM    5  C   UNK N   1      33.034  16.173   8.595  0.00  0.00     0.180 C 
HETATM    6  C   UNK N   1      33.276  14.802   9.278  0.00  0.00     0.175 C 
HETATM    7  C   UNK N   1      35.316  15.784  10.425  0.00  0.00     0.214 C 
HETATM    8  N   UNK N   1      34.313  13.750  11.238  0.00  0.00    -0.378 N 
ATOM      9  HN  UNK N   1      33.614  13.155  11.682  1.00  0.00     0.160 HD
HETATM   10  O   UNK N   1      35.334  16.610   9.258  0.00  0.00    -0.363 OA
HETATM   11  S   UNK N   1      36.639  14.533  10.308  0.00  0.00    -0.083 SA
ENDROOT
BRANCH   3  12
HETATM   12  C   UNK N   1      34.178  18.413   8.135  0.00  0.00     0.198 C 
BRANCH  12  13
HETATM   13  O   UNK N   1      35.238  19.243   8.504  0.00  0.00    -0.398 OA
HETATM   14  H   UNK N   1      35.979  19.661   8.970  0.00  0.00     0.209 HD
ENDBRANCH  12  13
ENDBRANCH   3  12
BRANCH   5  15
HETATM   15  O   UNK N   1      31.754  16.651   8.890  0.00  0.00    -0.390 OA
HETATM   16  H   UNK N   1      30.890  16.710   8.452  0.00  0.00     0.210 HD
ENDBRANCH   5  15
BRANCH   6  17
HETATM   17  O   UNK N   1      34.105  14.028   8.458  0.00  0.00    -0.391 OA
HETATM   18  H   UNK N   1      34.779  13.417   8.120  0.00  0.00     0.210 HD
ENDBRANCH   6  17
TORSDOF 4
ENDMDL
MODEL 6
REMARK VINA RESULT:      -4.7      2.790      3.828
REMARK  4 active torsions:
REMARK  status: ('A' for Active; 'I' for Inactive)
REMARK    1  A    between atoms: C_4  and  C_2 
REMARK    2  A    between atoms: O_11  and  C_2 
REMARK    3  A    between atoms: C_6  and  O_12 
REMARK    4  A    between atoms: C_7  and  O_13 
ROOT
HETATM    1  C   UNK N   1      34.239  17.838   7.783  0.00  0.00     0.076 C 
HETATM    2  C   UNK N   1      34.371  16.840   8.880  0.00  0.00     0.041 C 
HETATM    3  C   UNK N   1      35.041  13.645  12.097  0.00  0.00     0.178 C 
HETATM    4  C   UNK N   1      34.919  16.109  10.992  0.00  0.00     0.152 C 
HETATM    5  C   UNK N   1      36.398  14.396  12.120  0.00  0.00     0.180 C 
HETATM    6  C   UNK N   1      36.367  15.615  11.162  0.00  0.00     0.175 C 
HETATM    7  C   UNK N   1      34.023  14.945  10.456  0.00  0.00     0.214 C 
HETATM    8  N   UNK N   1      34.846  17.167  10.021  0.00  0.00    -0.378 N 
ATOM      9  HN  UNK N   1      35.151  18.117  10.229  1.00  0.00     0.160 HD
HETATM   10  O   UNK N   1      34.504  13.641  10.790  0.00  0.00    -0.363 OA
HETATM   11  S   UNK N   1      33.949  15.122   8.642  0.00  0.00    -0.083 SA
ENDROOT
BRANCH   3  12
HETATM   12  C   UNK N   1      35.153  12.224  12.639  0.00  0.00     0.198 C 
BRANCH  12  13
HETATM   13  O   UNK N   1      36.471  11.932  12.997  0.00  0.00    -0.398 OA
HETATM   14  H   UNK N   1      37.357  11.542  13.062  0.00  0.00     0.209 HD
ENDBRANCH  12  13
ENDBRANCH   3  12
BRANCH   5  15
HETATM   15  O   UNK N   1      36.654  14.806  13.431  0.00  0.00    -0.390 OA
HETATM   16  H   UNK N   1      36.312  15.463  14.058  0.00  0.00     0.210 HD
ENDBRANCH   5  15
BRANCH   6  17
HETATM   17  O   UNK N   1      36.859  15.222   9.912  0.00  0.00    -0.391 OA
HETATM   18  H   UNK N   1      36.981  15.062   8.964  0.00  0.00     0.210 HD
ENDBRANCH   6  17
TORSDOF 4
ENDMDL
MODEL 7
REMARK VINA RESULT:      -4.6     11.657     12.119
REMARK  4 active torsions:
REMARK  status: ('A' for Active; 'I' for Inactive)
REMARK    1  A    between atoms: C_4  and  C_2 
REMARK    2  A    between atoms: O_11  and  C_2 
REMARK    3  A    between atoms: C_6  and  O_12 
REMARK    4  A    between atoms: C_7  and  O_13 
ROOT
HETATM    1  C   UNK N   1      39.503  22.328  -1.148  0.00  0.00     0.076 C 
HETATM    2  C   UNK N   1      40.407  22.411   0.032  0.00  0.00     0.041 C 
HETATM    3  C   UNK N   1      43.427  22.528   3.478  0.00  0.00     0.178 C 
HETATM    4  C   UNK N   1      41.772  23.464   1.556  0.00  0.00     0.152 C 
HETATM    5  C   UNK N   1      44.153  23.375   2.401  0.00  0.00     0.180 C 
HETATM    6  C   UNK N   1      43.254  23.565   1.152  0.00  0.00     0.175 C 
HETATM    7  C   UNK N   1      41.504  22.085   2.242  0.00  0.00     0.214 C 
HETATM    8  N   UNK N   1      40.917  23.523   0.401  0.00  0.00    -0.378 N 
ATOM      9  HN  UNK N   1      40.729  24.395  -0.091  1.00  0.00     0.160 HD
HETATM   10  O   UNK N   1      42.656  21.514   2.867  0.00  0.00    -0.363 OA
HETATM   11  S   UNK N   1      40.889  20.956   0.948  0.00  0.00    -0.083 SA
ENDROOT
BRANCH   3  12
HETATM   12  C   UNK N   1      44.391  21.933   4.499  0.00  0.00     0.198 C 
BRANCH  12  13
HETATM   13  O   UNK N   1      45.713  22.244   4.173  0.00  0.00    -0.398 OA
HETATM   14  H   UNK N   1      46.680  22.248   4.095  0.00  0.00     0.209 HD
ENDBRANCH  12  13
ENDBRANCH   3  12
BRANCH   5  15
HETATM   15  O   UNK N   1      44.486  24.612   2.961  0.00  0.00    -0.390 OA
HETATM   16  H   UNK N   1      44.874  25.452   2.668  0.00  0.00     0.210 HD
ENDBRANCH   5  15
BRANCH   6  17
HETATM   17  O   UNK N   1      43.540  22.553   0.229  0.00  0.00    -0.391 OA
HETATM   18  H   UNK N   1      43.945  22.002  -0.458  0.00  0.00     0.210 HD
ENDBRANCH   6  17
TORSDOF 4
ENDMDL
MODEL 8
REMARK VINA RESULT:      -4.4      5.257      7.365
REMARK  4 active torsions:
REMARK  status: ('A' for Active; 'I' for Inactive)
REMARK    1  A    between atoms: C_4  and  C_2 
REMARK    2  A    between atoms: O_11  and  C_2 
REMARK    3  A    between atoms: C_6  and  O_12 
REMARK    4  A    between atoms: C_7  and  O_13 
ROOT
HETATM    1  C   UNK N   1      35.597   8.370  13.727  0.00  0.00     0.076 C 
HETATM    2  C   UNK N   1      35.909   9.707  13.153  0.00  0.00     0.041 C 
HETATM    3  C   UNK N   1      36.546  13.896  11.404  0.00  0.00     0.178 C 
HETATM    4  C   UNK N   1      36.699  11.869  13.186  0.00  0.00     0.152 C 
HETATM    5  C   UNK N   1      35.890  14.228  12.769  0.00  0.00     0.180 C 
HETATM    6  C   UNK N   1      35.673  12.938  13.603  0.00  0.00     0.175 C 
HETATM    7  C   UNK N   1      36.570  11.582  11.654  0.00  0.00     0.214 C 
HETATM    8  N   UNK N   1      36.450  10.624  13.861  0.00  0.00    -0.378 N 
ATOM      9  HN  UNK N   1      36.690  10.480  14.841  1.00  0.00     0.160 HD
HETATM   10  O   UNK N   1      36.042  12.676  10.901  0.00  0.00    -0.363 OA
HETATM   11  S   UNK N   1      35.477  10.132  11.474  0.00  0.00    -0.083 SA
ENDROOT
BRANCH   3  12
HETATM   12  C   UNK N   1      36.367  15.016  10.384  0.00  0.00     0.198 C 
BRANCH  12  13
HETATM   13  O   UNK N   1      36.911  16.211  10.859  0.00  0.00    -0.398 OA
HETATM   14  H   UNK N   1      37.442  16.876  11.326  0.00  0.00     0.209 HD
ENDBRANCH  12  13
ENDBRANCH   3  12
BRANCH   5  15
HETATM   15  O   UNK N   1      36.718  15.122  13.453  0.00  0.00    -0.390 OA
HETATM   16  H   UNK N   1      36.682  16.041  13.763  0.00  0.00     0.210 HD
ENDBRANCH   5  15
BRANCH   6  17
HETATM   17  O   UNK N   1      34.385  12.449  13.354  0.00  0.00    -0.391 OA
HETATM   18  H   UNK N   1      33.605  11.884  13.246  0.00  0.00     0.210 HD
ENDBRANCH   6  17
TORSDOF 4
ENDMDL
MODEL 9
REMARK VINA RESULT:      -4.4     13.072     14.808
REMARK  4 active torsions:
REMARK  status: ('A' for Active; 'I' for Inactive)
REMARK    1  A    between atoms: C_4  and  C_2 
REMARK    2  A    between atoms: O_11  and  C_2 
REMARK    3  A    between atoms: C_6  and  O_12 
REMARK    4  A    between atoms: C_7  and  O_13 
ROOT
HETATM    1  C   UNK N   1      26.911  25.670  -6.624  0.00  0.00     0.076 C 
HETATM    2  C   UNK N   1      27.812  24.745  -5.883  0.00  0.00     0.041 C 
HETATM    3  C   UNK N   1      30.824  22.131  -3.623  0.00  0.00     0.178 C 
HETATM    4  C   UNK N   1      28.622  23.645  -4.031  0.00  0.00     0.152 C 
HETATM    5  C   UNK N   1      30.769  23.391  -2.720  0.00  0.00     0.180 C 
HETATM    6  C   UNK N   1      29.710  24.396  -3.242  0.00  0.00     0.175 C 
HETATM    7  C   UNK N   1      29.275  22.848  -5.206  0.00  0.00     0.214 C 
HETATM    8  N   UNK N   1      27.688  24.564  -4.624  0.00  0.00    -0.378 N 
ATOM      9  HN  UNK N   1      26.971  25.039  -4.076  1.00  0.00     0.160 HD
HETATM   10  O   UNK N   1      30.640  22.490  -4.977  0.00  0.00    -0.363 OA
HETATM   11  S   UNK N   1      29.162  23.901  -6.692  0.00  0.00    -0.083 SA
ENDROOT
BRANCH   3  12
HETATM   12  C   UNK N   1      32.118  21.343  -3.444  0.00  0.00     0.198 C 
BRANCH  12  13
HETATM   13  O   UNK N   1      32.499  21.314  -2.101  0.00  0.00    -0.398 OA
HETATM   14  H   UNK N   1      32.824  21.547  -1.217  0.00  0.00     0.209 HD
ENDBRANCH  12  13
ENDBRANCH   3  12
BRANCH   5  15
HETATM   15  O   UNK N   1      30.463  22.987  -1.417  0.00  0.00    -0.390 OA
HETATM   16  H   UNK N   1      30.623  23.300  -0.512  0.00  0.00     0.210 HD
ENDBRANCH   5  15
BRANCH   6  17
HETATM   17  O   UNK N   1      30.337  25.310  -4.097  0.00  0.00    -0.391 OA
HETATM   18  H   UNK N   1      30.861  26.038  -4.465  0.00  0.00     0.210 HD
ENDBRANCH   6  17
TORSDOF 4
ENDMDL
