REMARK  0 active torsions:
REMARK  status: ('A' for Active; 'I' for Inactive)
ROOT
HETATM    1  C   UNK N   1       3.034   1.269   0.000  0.00  0.00     0.156 C 
HETATM    2  N   UNK N   1       1.660   0.796   0.000  0.00  0.00    -0.350 N 
HETATM    3  C   UNK N   1       1.274  -0.488   0.000  0.00  0.00     0.108 A 
HETATM    4  C   UNK N   1      -0.111  -0.510   0.000  0.00  0.00     0.106 A 
HETATM    5  N   UNK N   1      -0.565   0.763  -0.000  0.00  0.00    -0.355 N 
HETATM    6  C   UNK N   1       0.537   1.533  -0.000  0.00  0.00     0.078 A 
HETATM    7  C   UNK N   1       0.498   3.023  -0.000  0.00  0.00     0.089 C 
HETATM    8  H   UNK N   1      -1.503   1.063  -0.000  0.00  0.00     0.166 HD
ENDROOT
TORSDOF 0
