MODEL 1
REMARK VINA RESULT:      -4.8      0.000      0.000
REMARK  2 active torsions:
REMARK  status: ('A' for Active; 'I' for Inactive)
REMARK    1  A    between atoms: O_1  and  C_2 
REMARK    2  A    between atoms: C_2  and  C_4 
ROOT
HETATM    1  C   UNK N   1      33.517  17.808   7.693  0.00  0.00     0.037 A 
HETATM    2  C   UNK N   1      33.770  17.585   6.332  0.00  0.00     0.020 A 
HETATM    3  C   UNK N   1      32.729  17.230   5.474  0.00  0.00     0.025 A 
HETATM    4  C   UNK N   1      31.430  17.096   5.971  0.00  0.00     0.034 A 
HETATM    5 Cl   UNK N   1      30.131  16.651   4.892  0.00  0.00    -0.084 Cl
HETATM    6  C   UNK N   1      31.171  17.317   7.327  0.00  0.00     0.025 A 
HETATM    7  C   UNK N   1      32.212  17.673   8.186  0.00  0.00     0.020 A 
ENDROOT
BRANCH   1   8
HETATM    8  C   UNK N   1      34.616  18.183   8.597  0.00  0.00     0.176 C 
HETATM    9  O   UNK N   1      35.265  19.196   8.391  0.00  0.00    -0.646 OA
BRANCH   8  10
HETATM   10  O   UNK N   1      34.912  17.409   9.659  0.00  0.00    -0.773 OA
HETATM   11  H   UNK N   1      34.474  17.547  10.476  0.00  0.00     0.167 HD
ENDBRANCH   8  10
ENDBRANCH   1   8
TORSDOF 2
ENDMDL
MODEL 2
REMARK VINA RESULT:      -4.8      0.225      1.546
REMARK  2 active torsions:
REMARK  status: ('A' for Active; 'I' for Inactive)
REMARK    1  A    between atoms: O_1  and  C_2 
REMARK    2  A    between atoms: C_2  and  C_4 
ROOT
HETATM    1  C   UNK N   1      33.429  17.761   7.616  0.00  0.00     0.037 A 
HETATM    2  C   UNK N   1      32.100  17.580   8.020  0.00  0.00     0.020 A 
HETATM    3  C   UNK N   1      31.121  17.245   7.082  0.00  0.00     0.025 A 
HETATM    4  C   UNK N   1      31.468  17.090   5.738  0.00  0.00     0.034 A 
HETATM    5 Cl   UNK N   1      30.239  16.671   4.569  0.00  0.00    -0.084 Cl
HETATM    6  C   UNK N   1      32.792  17.269   5.329  0.00  0.00     0.025 A 
HETATM    7  C   UNK N   1      33.772  17.604   6.266  0.00  0.00     0.020 A 
ENDROOT
BRANCH   1   8
HETATM    8  C   UNK N   1      34.461  18.114   8.606  0.00  0.00     0.176 C 
HETATM    9  O   UNK N   1      35.214  19.052   8.402  0.00  0.00    -0.646 OA
BRANCH   8  10
HETATM   10  O   UNK N   1      34.577  17.403   9.744  0.00  0.00    -0.773 OA
HETATM   11  H   UNK N   1      35.327  16.856   9.880  0.00  0.00     0.167 HD
ENDBRANCH   8  10
ENDBRANCH   1   8
TORSDOF 2
ENDMDL
MODEL 3
REMARK VINA RESULT:      -4.7     11.511     12.052
REMARK  2 active torsions:
REMARK  status: ('A' for Active; 'I' for Inactive)
REMARK    1  A    between atoms: O_1  and  C_2 
REMARK    2  A    between atoms: C_2  and  C_4 
ROOT
HETATM    1  C   UNK N   1      22.931  12.202  10.562  0.00  0.00     0.037 A 
HETATM    2  C   UNK N   1      23.428  11.562   9.419  0.00  0.00     0.020 A 
HETATM    3  C   UNK N   1      22.782  11.716   8.191  0.00  0.00     0.025 A 
HETATM    4  C   UNK N   1      21.636  12.510   8.101  0.00  0.00     0.034 A 
HETATM    5 Cl   UNK N   1      20.832  12.699   6.562  0.00  0.00    -0.084 Cl
HETATM    6  C   UNK N   1      21.135  13.152   9.237  0.00  0.00     0.025 A 
HETATM    7  C   UNK N   1      21.781  12.998  10.466  0.00  0.00     0.020 A 
ENDROOT
BRANCH   1   8
HETATM    8  C   UNK N   1      23.613  12.039  11.856  0.00  0.00     0.176 C 
HETATM    9  O   UNK N   1      22.974  11.766  12.859  0.00  0.00    -0.646 OA
BRANCH   8  10
HETATM   10  O   UNK N   1      24.948  12.190  11.940  0.00  0.00    -0.773 OA
HETATM   11  H   UNK N   1      25.352  12.337  12.773  0.00  0.00     0.167 HD
ENDBRANCH   8  10
ENDBRANCH   1   8
TORSDOF 2
ENDMDL
MODEL 4
REMARK VINA RESULT:      -4.6      3.852      4.737
REMARK  2 active torsions:
REMARK  status: ('A' for Active; 'I' for Inactive)
REMARK    1  A    between atoms: O_1  and  C_2 
REMARK    2  A    between atoms: C_2  and  C_4 
ROOT
HETATM    1  C   UNK N   1      29.502  17.727   8.321  0.00  0.00     0.037 A 
HETATM    2  C   UNK N   1      29.610  17.132   7.057  0.00  0.00     0.020 A 
HETATM    3  C   UNK N   1      30.862  16.967   6.464  0.00  0.00     0.025 A 
HETATM    4  C   UNK N   1      32.012  17.397   7.131  0.00  0.00     0.034 A 
HETATM    5 Cl   UNK N   1      33.576  17.188   6.383  0.00  0.00    -0.084 Cl
HETATM    6  C   UNK N   1      31.911  17.991   8.392  0.00  0.00     0.025 A 
HETATM    7  C   UNK N   1      30.658  18.156   8.987  0.00  0.00     0.020 A 
ENDROOT
BRANCH   1   8
HETATM    8  C   UNK N   1      28.180  17.900   8.947  0.00  0.00     0.176 C 
HETATM    9  O   UNK N   1      27.709  17.018   9.646  0.00  0.00    -0.646 OA
BRANCH   8  10
HETATM   10  O   UNK N   1      27.483  19.036   8.750  0.00  0.00    -0.773 OA
HETATM   11  H   UNK N   1      27.118  19.222   7.906  0.00  0.00     0.167 HD
ENDBRANCH   8  10
ENDBRANCH   1   8
TORSDOF 2
ENDMDL
MODEL 5
REMARK VINA RESULT:      -4.6     10.618     11.733
REMARK  2 active torsions:
REMARK  status: ('A' for Active; 'I' for Inactive)
REMARK    1  A    between atoms: O_1  and  C_2 
REMARK    2  A    between atoms: C_2  and  C_4 
ROOT
HETATM    1  C   UNK N   1      35.666  12.855  16.188  0.00  0.00     0.037 A 
HETATM    2  C   UNK N   1      35.841  11.479  16.383  0.00  0.00     0.020 A 
HETATM    3  C   UNK N   1      35.665  10.922  17.651  0.00  0.00     0.025 A 
HETATM    4  C   UNK N   1      35.313  11.738  18.728  0.00  0.00     0.034 A 
HETATM    5 Cl   UNK N   1      35.093  11.035  20.312  0.00  0.00    -0.084 Cl
HETATM    6  C   UNK N   1      35.137  13.112  18.540  0.00  0.00     0.025 A 
HETATM    7  C   UNK N   1      35.313  13.670  17.273  0.00  0.00     0.020 A 
ENDROOT
BRANCH   1   8
HETATM    8  C   UNK N   1      35.852  13.442  14.851  0.00  0.00     0.176 C 
HETATM    9  O   UNK N   1      34.937  13.437  14.043  0.00  0.00    -0.646 OA
BRANCH   8  10
HETATM   10  O   UNK N   1      37.036  13.987  14.511  0.00  0.00    -0.773 OA
HETATM   11  H   UNK N   1      37.216  14.884  14.719  0.00  0.00     0.167 HD
ENDBRANCH   8  10
ENDBRANCH   1   8
TORSDOF 2
ENDMDL
MODEL 6
REMARK VINA RESULT:      -4.5     10.633     11.595
REMARK  2 active torsions:
REMARK  status: ('A' for Active; 'I' for Inactive)
REMARK    1  A    between atoms: O_1  and  C_2 
REMARK    2  A    between atoms: C_2  and  C_4 
ROOT
HETATM    1  C   UNK N   1      35.106  12.660  17.663  0.00  0.00     0.037 A 
HETATM    2  C   UNK N   1      35.312  11.282  17.813  0.00  0.00     0.020 A 
HETATM    3  C   UNK N   1      35.145  10.425  16.725  0.00  0.00     0.025 A 
HETATM    4  C   UNK N   1      34.771  10.941  15.482  0.00  0.00     0.034 A 
HETATM    5 Cl   UNK N   1      34.563   9.862  14.123  0.00  0.00    -0.084 Cl
HETATM    6  C   UNK N   1      34.563  12.314  15.325  0.00  0.00     0.025 A 
HETATM    7  C   UNK N   1      34.731  13.173  16.414  0.00  0.00     0.020 A 
ENDROOT
BRANCH   1   8
HETATM    8  C   UNK N   1      35.283  13.564  18.812  0.00  0.00     0.176 C 
HETATM    9  O   UNK N   1      35.313  14.772  18.646  0.00  0.00    -0.646 OA
BRANCH   8  10
HETATM   10  O   UNK N   1      35.413  13.060  20.054  0.00  0.00    -0.773 OA
HETATM   11  H   UNK N   1      36.096  13.370  20.617  0.00  0.00     0.167 HD
ENDBRANCH   8  10
ENDBRANCH   1   8
TORSDOF 2
ENDMDL
MODEL 7
REMARK VINA RESULT:      -4.3      1.564      1.945
REMARK  2 active torsions:
REMARK  status: ('A' for Active; 'I' for Inactive)
REMARK    1  A    between atoms: O_1  and  C_2 
REMARK    2  A    between atoms: C_2  and  C_4 
ROOT
HETATM    1  C   UNK N   1      32.422  17.659   7.579  0.00  0.00     0.037 A 
HETATM    2  C   UNK N   1      31.874  17.066   6.433  0.00  0.00     0.020 A 
HETATM    3  C   UNK N   1      30.499  16.847   6.345  0.00  0.00     0.025 A 
HETATM    4  C   UNK N   1      29.664  17.221   7.402  0.00  0.00     0.034 A 
HETATM    5 Cl   UNK N   1      27.943  16.945   7.286  0.00  0.00    -0.084 Cl
HETATM    6  C   UNK N   1      30.204  17.813   8.547  0.00  0.00     0.025 A 
HETATM    7  C   UNK N   1      31.580  18.032   8.636  0.00  0.00     0.020 A 
ENDROOT
BRANCH   1   8
HETATM    8  C   UNK N   1      33.873  17.889   7.670  0.00  0.00     0.176 C 
HETATM    9  O   UNK N   1      34.546  17.988   6.657  0.00  0.00    -0.646 OA
BRANCH   8  10
HETATM   10  O   UNK N   1      34.466  17.991   8.875  0.00  0.00    -0.773 OA
HETATM   11  H   UNK N   1      34.738  17.218   9.331  0.00  0.00     0.167 HD
ENDBRANCH   8  10
ENDBRANCH   1   8
TORSDOF 2
ENDMDL
MODEL 8
REMARK VINA RESULT:      -4.3     10.118     11.230
REMARK  2 active torsions:
REMARK  status: ('A' for Active; 'I' for Inactive)
REMARK    1  A    between atoms: O_1  and  C_2 
REMARK    2  A    between atoms: C_2  and  C_4 
ROOT
HETATM    1  C   UNK N   1      22.915  20.057   3.045  0.00  0.00     0.037 A 
HETATM    2  C   UNK N   1      24.193  20.609   2.890  0.00  0.00     0.020 A 
HETATM    3  C   UNK N   1      25.286  20.047   3.551  0.00  0.00     0.025 A 
HETATM    4  C   UNK N   1      25.106  18.930   4.370  0.00  0.00     0.034 A 
HETATM    5 Cl   UNK N   1      26.478  18.231   5.195  0.00  0.00    -0.084 Cl
HETATM    6  C   UNK N   1      23.834  18.374   4.529  0.00  0.00     0.025 A 
HETATM    7  C   UNK N   1      22.740  18.936   3.868  0.00  0.00     0.020 A 
ENDROOT
BRANCH   1   8
HETATM    8  C   UNK N   1      21.763  20.651   2.347  0.00  0.00     0.176 C 
HETATM    9  O   UNK N   1      21.659  20.553   1.135  0.00  0.00    -0.646 OA
BRANCH   8  10
HETATM   10  O   UNK N   1      20.815  21.307   3.044  0.00  0.00    -0.773 OA
HETATM   11  H   UNK N   1      20.010  21.549   2.628  0.00  0.00     0.167 HD
ENDBRANCH   8  10
ENDBRANCH   1   8
TORSDOF 2
ENDMDL
MODEL 9
REMARK VINA RESULT:      -4.2     15.644     16.665
REMARK  2 active torsions:
REMARK  status: ('A' for Active; 'I' for Inactive)
REMARK    1  A    between atoms: O_1  and  C_2 
REMARK    2  A    between atoms: C_2  and  C_4 
ROOT
HETATM    1  C   UNK N   1      25.973  24.546  -5.578  0.00  0.00     0.037 A 
HETATM    2  C   UNK N   1      26.487  24.666  -4.280  0.00  0.00     0.020 A 
HETATM    3  C   UNK N   1      26.487  25.904  -3.637  0.00  0.00     0.025 A 
HETATM    4  C   UNK N   1      25.974  27.029  -4.288  0.00  0.00     0.034 A 
HETATM    5 Cl   UNK N   1      25.978  28.576  -3.478  0.00  0.00    -0.084 Cl
HETATM    6  C   UNK N   1      25.460  26.916  -5.583  0.00  0.00     0.025 A 
HETATM    7  C   UNK N   1      25.459  25.677  -6.227  0.00  0.00     0.020 A 
ENDROOT
BRANCH   1   8
HETATM    8  C   UNK N   1      25.973  23.239  -6.256  0.00  0.00     0.176 C 
HETATM    9  O   UNK N   1      24.921  22.718  -6.588  0.00  0.00    -0.646 OA
BRANCH   8  10
HETATM   10  O   UNK N   1      27.136  22.611  -6.513  0.00  0.00    -0.773 OA
HETATM   11  H   UNK N   1      27.188  21.989  -7.213  0.00  0.00     0.167 HD
ENDBRANCH   8  10
ENDBRANCH   1   8
TORSDOF 2
ENDMDL
