MODEL 1
REMARK VINA RESULT:      -5.6      0.000      0.000
REMARK  9 active torsions:
REMARK  status: ('A' for Active; 'I' for Inactive)
REMARK    1  A    between atoms: C_4  and  C_2 
REMARK    2  A    between atoms: O_9  and  C_2 
REMARK    3  A    between atoms: C_3  and  O_10 
REMARK    4  A    between atoms: C_6  and  C_4 
REMARK    5  A    between atoms: C_4  and  O_11 
REMARK    6  A    between atoms: C_5  and  O_12 
REMARK    7  A    between atoms: C_8  and  C_7 
REMARK    8  A    between atoms: O_14  and  C_7 
REMARK    9  A    between atoms: C_8  and  O_15 
ROOT
HETATM    1  C   UNK N   1      33.114  15.872   7.689  0.00  0.00     0.114 C 
HETATM    2  C   UNK N   1      34.088  14.687   7.649  0.00  0.00     0.155 C 
HETATM    3  C   UNK N   1      34.411  14.195   9.084  0.00  0.00     0.178 C 
HETATM    4  C   UNK N   1      34.142  15.319  10.119  0.00  0.00     0.187 C 
HETATM    5  C   UNK N   1      33.665  17.020   8.591  0.00  0.00     0.253 C 
HETATM    6  O   UNK N   1      34.588  16.552   9.579  0.00  0.00    -0.336 OA
ENDROOT
BRANCH   4   7
HETATM    7  C   UNK N   1      34.783  15.073  11.496  0.00  0.00     0.173 C 
BRANCH   7   8
HETATM    8  C   UNK N   1      36.288  14.853  11.369  0.00  0.00     0.198 C 
BRANCH   8   9
HETATM    9  O   UNK N   1      36.923  16.025  10.955  0.00  0.00    -0.398 OA
HETATM   10  H   UNK N   1      37.872  16.200  11.048  0.00  0.00     0.209 HD
ENDBRANCH   8   9
ENDBRANCH   7   8
BRANCH   7  11
HETATM   11  O   UNK N   1      34.210  13.934  12.067  0.00  0.00    -0.391 OA
HETATM   12  H   UNK N   1      33.830  13.976  12.958  0.00  0.00     0.210 HD
ENDBRANCH   7  11
ENDBRANCH   4   7
BRANCH   3  13
HETATM   13  O   UNK N   1      33.623  13.085   9.399  0.00  0.00    -0.390 OA
HETATM   14  H   UNK N   1      33.740  12.209   9.797  0.00  0.00     0.210 HD
ENDBRANCH   3  13
BRANCH   2  15
HETATM   15  O   UNK N   1      35.264  15.099   7.018  0.00  0.00    -0.393 OA
HETATM   16  H   UNK N   1      35.862  15.790   6.695  0.00  0.00     0.210 HD
ENDBRANCH   2  15
BRANCH   5  17
HETATM   17  C   UNK N   1      34.358  18.056   7.741  0.00  0.00     0.205 C 
HETATM   18  O   UNK N   1      34.355  17.962   6.524  0.00  0.00    -0.646 OA
BRANCH  17  19
HETATM   19  O   UNK N   1      35.002  19.088   8.319  0.00  0.00    -0.772 OA
HETATM   20  H   UNK N   1      35.352  19.788   7.802  0.00  0.00     0.167 HD
ENDBRANCH  17  19
ENDBRANCH   5  17
BRANCH   5  21
HETATM   21  O   UNK N   1      32.580  17.630   9.232  0.00  0.00    -0.357 OA
HETATM   22  H   UNK N   1      31.894  17.359   9.862  0.00  0.00     0.213 HD
ENDBRANCH   5  21
TORSDOF 9
ENDMDL
MODEL 2
REMARK VINA RESULT:      -5.4      2.490      3.774
REMARK  9 active torsions:
REMARK  status: ('A' for Active; 'I' for Inactive)
REMARK    1  A    between atoms: C_4  and  C_2 
REMARK    2  A    between atoms: O_9  and  C_2 
REMARK    3  A    between atoms: C_3  and  O_10 
REMARK    4  A    between atoms: C_6  and  C_4 
REMARK    5  A    between atoms: C_4  and  O_11 
REMARK    6  A    between atoms: C_5  and  O_12 
REMARK    7  A    between atoms: C_8  and  C_7 
REMARK    8  A    between atoms: O_14  and  C_7 
REMARK    9  A    between atoms: C_8  and  O_15 
ROOT
HETATM    1  C   UNK N   1      35.502  14.160   9.998  0.00  0.00     0.114 C 
HETATM    2  C   UNK N   1      36.975  13.814  10.250  0.00  0.00     0.155 C 
HETATM    3  C   UNK N   1      37.178  13.310  11.703  0.00  0.00     0.178 C 
HETATM    4  C   UNK N   1      36.029  13.807  12.619  0.00  0.00     0.187 C 
HETATM    5  C   UNK N   1      34.978  15.185  11.053  0.00  0.00     0.253 C 
HETATM    6  O   UNK N   1      35.720  15.148  12.276  0.00  0.00    -0.336 OA
ENDROOT
BRANCH   4   7
HETATM    7  C   UNK N   1      36.329  13.694  14.123  0.00  0.00     0.173 C 
BRANCH   7   8
HETATM    8  C   UNK N   1      36.726  15.047  14.707  0.00  0.00     0.198 C 
BRANCH   8   9
HETATM    9  O   UNK N   1      37.701  14.889  15.694  0.00  0.00    -0.398 OA
HETATM   10  H   UNK N   1      37.597  14.344  16.488  0.00  0.00     0.209 HD
ENDBRANCH   8   9
ENDBRANCH   7   8
BRANCH   7  11
HETATM   11  O   UNK N   1      37.385  12.798  14.309  0.00  0.00    -0.391 OA
HETATM   12  H   UNK N   1      37.645  12.534  15.206  0.00  0.00     0.210 HD
ENDBRANCH   7  11
ENDBRANCH   4   7
BRANCH   3  13
HETATM   13  O   UNK N   1      37.210  11.914  11.726  0.00  0.00    -0.390 OA
HETATM   14  H   UNK N   1      37.368  11.186  11.105  0.00  0.00     0.210 HD
ENDBRANCH   3  13
BRANCH   2  15
HETATM   15  O   UNK N   1      37.743  14.961  10.040  0.00  0.00    -0.393 OA
HETATM   16  H   UNK N   1      38.170  15.608   9.457  0.00  0.00     0.210 HD
ENDBRANCH   2  15
BRANCH   5  17
HETATM   17  C   UNK N   1      35.050  16.584  10.492  0.00  0.00     0.205 C 
HETATM   18  O   UNK N   1      36.061  17.254  10.626  0.00  0.00    -0.646 OA
BRANCH  17  19
HETATM   19  O   UNK N   1      33.991  17.113   9.850  0.00  0.00    -0.772 OA
HETATM   20  H   UNK N   1      33.127  17.045  10.207  0.00  0.00     0.167 HD
ENDBRANCH  17  19
ENDBRANCH   5  17
BRANCH   5  21
HETATM   21  O   UNK N   1      33.637  14.887  11.322  0.00  0.00    -0.357 OA
HETATM   22  H   UNK N   1      32.928  15.270  11.863  0.00  0.00     0.213 HD
ENDBRANCH   5  21
TORSDOF 9
ENDMDL
MODEL 3
REMARK VINA RESULT:      -5.4      3.129      6.604
REMARK  9 active torsions:
REMARK  status: ('A' for Active; 'I' for Inactive)
REMARK    1  A    between atoms: C_4  and  C_2 
REMARK    2  A    between atoms: O_9  and  C_2 
REMARK    3  A    between atoms: C_3  and  O_10 
REMARK    4  A    between atoms: C_6  and  C_4 
REMARK    5  A    between atoms: C_4  and  O_11 
REMARK    6  A    between atoms: C_5  and  O_12 
REMARK    7  A    between atoms: C_8  and  C_7 
REMARK    8  A    between atoms: O_14  and  C_7 
REMARK    9  A    between atoms: C_8  and  O_15 
ROOT
HETATM    1  C   UNK N   1      37.072  12.396  14.321  0.00  0.00     0.114 C 
HETATM    2  C   UNK N   1      36.909  11.908  12.875  0.00  0.00     0.155 C 
HETATM    3  C   UNK N   1      36.792  13.109  11.902  0.00  0.00     0.178 C 
HETATM    4  C   UNK N   1      36.319  14.380  12.657  0.00  0.00     0.187 C 
HETATM    5  C   UNK N   1      35.914  13.363  14.720  0.00  0.00     0.253 C 
HETATM    6  O   UNK N   1      35.319  14.009  13.591  0.00  0.00    -0.336 OA
ENDROOT
BRANCH   4   7
HETATM    7  C   UNK N   1      35.808  15.503  11.740  0.00  0.00     0.173 C 
BRANCH   7   8
HETATM    8  C   UNK N   1      34.782  14.973  10.742  0.00  0.00     0.198 C 
BRANCH   8   9
HETATM    9  O   UNK N   1      33.521  14.885  11.335  0.00  0.00    -0.398 OA
HETATM   10  H   UNK N   1      32.968  15.646  11.569  0.00  0.00     0.209 HD
ENDBRANCH   8   9
ENDBRANCH   7   8
BRANCH   7  11
HETATM   11  O   UNK N   1      36.888  16.038  11.031  0.00  0.00    -0.391 OA
HETATM   12  H   UNK N   1      36.770  16.326  10.112  0.00  0.00     0.210 HD
ENDBRANCH   7  11
ENDBRANCH   4   7
BRANCH   3  13
HETATM   13  O   UNK N   1      38.029  13.365  11.305  0.00  0.00    -0.390 OA
HETATM   14  H   UNK N   1      38.373  13.857  10.544  0.00  0.00     0.210 HD
ENDBRANCH   3  13
BRANCH   2  15
HETATM   15  O   UNK N   1      35.754  11.127  12.798  0.00  0.00    -0.393 OA
HETATM   16  H   UNK N   1      34.807  10.986  12.950  0.00  0.00     0.210 HD
ENDBRANCH   2  15
BRANCH   5  17
HETATM   17  C   UNK N   1      34.839  12.602  15.457  0.00  0.00     0.205 C 
HETATM   18  O   UNK N   1      33.910  12.095  14.849  0.00  0.00    -0.646 OA
BRANCH  17  19
HETATM   19  O   UNK N   1      34.886  12.489  16.798  0.00  0.00    -0.772 OA
HETATM   20  H   UNK N   1      35.387  11.809  17.207  0.00  0.00     0.167 HD
ENDBRANCH  17  19
ENDBRANCH   5  17
BRANCH   5  21
HETATM   21  O   UNK N   1      36.435  14.336  15.582  0.00  0.00    -0.357 OA
HETATM   22  H   UNK N   1      37.014  14.347  16.359  0.00  0.00     0.213 HD
ENDBRANCH   5  21
TORSDOF 9
ENDMDL
MODEL 4
REMARK VINA RESULT:      -5.4      3.049      4.923
REMARK  9 active torsions:
REMARK  status: ('A' for Active; 'I' for Inactive)
REMARK    1  A    between atoms: C_4  and  C_2 
REMARK    2  A    between atoms: O_9  and  C_2 
REMARK    3  A    between atoms: C_3  and  O_10 
REMARK    4  A    between atoms: C_6  and  C_4 
REMARK    5  A    between atoms: C_4  and  O_11 
REMARK    6  A    between atoms: C_5  and  O_12 
REMARK    7  A    between atoms: C_8  and  C_7 
REMARK    8  A    between atoms: O_14  and  C_7 
REMARK    9  A    between atoms: C_8  and  O_15 
ROOT
HETATM    1  C   UNK N   1      36.025  13.062  10.901  0.00  0.00     0.114 C 
HETATM    2  C   UNK N   1      37.452  12.597  11.218  0.00  0.00     0.155 C 
HETATM    3  C   UNK N   1      37.594  12.253  12.723  0.00  0.00     0.178 C 
HETATM    4  C   UNK N   1      36.500  12.973  13.554  0.00  0.00     0.187 C 
HETATM    5  C   UNK N   1      35.607  14.254  11.817  0.00  0.00     0.253 C 
HETATM    6  O   UNK N   1      36.336  14.288  13.048  0.00  0.00    -0.336 OA
ENDROOT
BRANCH   4   7
HETATM    7  C   UNK N   1      36.779  13.011  15.066  0.00  0.00     0.173 C 
BRANCH   7   8
HETATM    8  C   UNK N   1      35.481  13.117  15.861  0.00  0.00     0.198 C 
BRANCH   8   9
HETATM    9  O   UNK N   1      34.378  13.112  15.005  0.00  0.00    -0.398 OA
HETATM   10  H   UNK N   1      34.244  12.479  14.283  0.00  0.00     0.209 HD
ENDBRANCH   8   9
ENDBRANCH   7   8
BRANCH   7  11
HETATM   11  O   UNK N   1      37.573  14.125  15.354  0.00  0.00    -0.391 OA
HETATM   12  H   UNK N   1      37.158  14.981  15.541  0.00  0.00     0.210 HD
ENDBRANCH   7  11
ENDBRANCH   4   7
BRANCH   3  13
HETATM   13  O   UNK N   1      37.478  10.874  12.913  0.00  0.00    -0.390 OA
HETATM   14  H   UNK N   1      37.745  10.059  12.460  0.00  0.00     0.210 HD
ENDBRANCH   3  13
BRANCH   2  15
HETATM   15  O   UNK N   1      38.338  13.624  10.886  0.00  0.00    -0.393 OA
HETATM   16  H   UNK N   1      39.228  14.010  10.862  0.00  0.00     0.210 HD
ENDBRANCH   2  15
BRANCH   5  17
HETATM   17  C   UNK N   1      35.830  15.561  11.095  0.00  0.00     0.205 C 
HETATM   18  O   UNK N   1      34.887  16.181  10.630  0.00  0.00    -0.646 OA
BRANCH  17  19
HETATM   19  O   UNK N   1      37.076  16.048  10.941  0.00  0.00    -0.772 OA
HETATM   20  H   UNK N   1      37.239  16.788  10.389  0.00  0.00     0.167 HD
ENDBRANCH  17  19
ENDBRANCH   5  17
BRANCH   5  21
HETATM   21  O   UNK N   1      34.241  14.133  12.097  0.00  0.00    -0.357 OA
HETATM   22  H   UNK N   1      33.467  14.717  12.082  0.00  0.00     0.213 HD
ENDBRANCH   5  21
TORSDOF 9
ENDMDL
MODEL 5
REMARK VINA RESULT:      -5.2      2.909      5.848
REMARK  9 active torsions:
REMARK  status: ('A' for Active; 'I' for Inactive)
REMARK    1  A    between atoms: C_4  and  C_2 
REMARK    2  A    between atoms: O_9  and  C_2 
REMARK    3  A    between atoms: C_3  and  O_10 
REMARK    4  A    between atoms: C_6  and  C_4 
REMARK    5  A    between atoms: C_4  and  O_11 
REMARK    6  A    between atoms: C_5  and  O_12 
REMARK    7  A    between atoms: C_8  and  C_7 
REMARK    8  A    between atoms: O_14  and  C_7 
REMARK    9  A    between atoms: C_8  and  O_15 
ROOT
HETATM    1  C   UNK N   1      36.354  12.015  13.031  0.00  0.00     0.114 C 
HETATM    2  C   UNK N   1      35.256  11.438  12.128  0.00  0.00     0.155 C 
HETATM    3  C   UNK N   1      34.864  12.454  11.025  0.00  0.00     0.178 C 
HETATM    4  C   UNK N   1      35.242  13.897  11.452  0.00  0.00     0.187 C 
HETATM    5  C   UNK N   1      35.923  13.391  13.628  0.00  0.00     0.253 C 
HETATM    6  O   UNK N   1      34.942  14.058  12.828  0.00  0.00    -0.336 OA
ENDROOT
BRANCH   4   7
HETATM    7  C   UNK N   1      34.562  14.999  10.622  0.00  0.00     0.173 C 
BRANCH   7   8
HETATM    8  C   UNK N   1      35.293  16.330  10.773  0.00  0.00     0.198 C 
BRANCH   8   9
HETATM    9  O   UNK N   1      36.630  16.120  11.117  0.00  0.00    -0.398 OA
HETATM   10  H   UNK N   1      37.197  16.775  11.552  0.00  0.00     0.209 HD
ENDBRANCH   8   9
ENDBRANCH   7   8
BRANCH   7  11
HETATM   11  O   UNK N   1      33.247  15.157  11.067  0.00  0.00    -0.391 OA
HETATM   12  H   UNK N   1      32.540  14.605  10.697  0.00  0.00     0.210 HD
ENDBRANCH   7  11
ENDBRANCH   4   7
BRANCH   3  13
HETATM   13  O   UNK N   1      35.520  12.144   9.831  0.00  0.00    -0.390 OA
HETATM   14  H   UNK N   1      35.992  11.391   9.443  0.00  0.00     0.210 HD
ENDBRANCH   3  13
BRANCH   2  15
HETATM   15  O   UNK N   1      34.140  11.147  12.915  0.00  0.00    -0.393 OA
HETATM   16  H   UNK N   1      33.610  10.539  13.455  0.00  0.00     0.210 HD
ENDBRANCH   2  15
BRANCH   5  17
HETATM   17  C   UNK N   1      35.358  13.197  15.014  0.00  0.00     0.205 C 
HETATM   18  O   UNK N   1      34.178  12.923  15.170  0.00  0.00    -0.646 OA
BRANCH  17  19
HETATM   19  O   UNK N   1      36.148  13.339  16.095  0.00  0.00    -0.772 OA
HETATM   20  H   UNK N   1      35.789  13.586  16.925  0.00  0.00     0.167 HD
ENDBRANCH  17  19
ENDBRANCH   5  17
BRANCH   5  21
HETATM   21  O   UNK N   1      37.060  14.200  13.726  0.00  0.00    -0.357 OA
HETATM   22  H   UNK N   1      37.677  14.623  13.108  0.00  0.00     0.213 HD
ENDBRANCH   5  21
TORSDOF 9
ENDMDL
MODEL 6
REMARK VINA RESULT:      -5.2      1.058      4.505
REMARK  9 active torsions:
REMARK  status: ('A' for Active; 'I' for Inactive)
REMARK    1  A    between atoms: C_4  and  C_2 
REMARK    2  A    between atoms: O_9  and  C_2 
REMARK    3  A    between atoms: C_3  and  O_10 
REMARK    4  A    between atoms: C_6  and  C_4 
REMARK    5  A    between atoms: C_4  and  O_11 
REMARK    6  A    between atoms: C_5  and  O_12 
REMARK    7  A    between atoms: C_8  and  C_7 
REMARK    8  A    between atoms: O_14  and  C_7 
REMARK    9  A    between atoms: C_8  and  O_15 
ROOT
HETATM    1  C   UNK N   1      36.305  14.437   9.459  0.00  0.00     0.114 C 
HETATM    2  C   UNK N   1      35.257  14.055   8.405  0.00  0.00     0.155 C 
HETATM    3  C   UNK N   1      34.683  15.323   7.721  0.00  0.00     0.178 C 
HETATM    4  C   UNK N   1      34.879  16.568   8.625  0.00  0.00     0.187 C 
HETATM    5  C   UNK N   1      35.717  15.447  10.494  0.00  0.00     0.253 C 
HETATM    6  O   UNK N   1      34.620  16.201   9.970  0.00  0.00    -0.336 OA
ENDROOT
BRANCH   4   7
HETATM    7  C   UNK N   1      34.020  17.780   8.224  0.00  0.00     0.173 C 
BRANCH   7   8
HETATM    8  C   UNK N   1      32.564  17.374   8.016  0.00  0.00     0.198 C 
BRANCH   8   9
HETATM    9  O   UNK N   1      31.883  17.343   9.234  0.00  0.00    -0.398 OA
HETATM   10  H   UNK N   1      32.031  16.688   9.932  0.00  0.00     0.209 HD
ENDBRANCH   8   9
ENDBRANCH   7   8
BRANCH   7  11
HETATM   11  O   UNK N   1      34.513  18.311   7.029  0.00  0.00    -0.391 OA
HETATM   12  H   UNK N   1      34.025  18.178   6.202  0.00  0.00     0.210 HD
ENDBRANCH   7  11
ENDBRANCH   4   7
BRANCH   3  13
HETATM   13  O   UNK N   1      35.323  15.540   6.498  0.00  0.00    -0.390 OA
HETATM   14  H   UNK N   1      35.698  16.284   6.004  0.00  0.00     0.210 HD
ENDBRANCH   3  13
BRANCH   2  15
HETATM   15  O   UNK N   1      34.227  13.355   9.036  0.00  0.00    -0.393 OA
HETATM   16  H   UNK N   1      33.406  12.839   9.012  0.00  0.00     0.210 HD
ENDBRANCH   2  15
BRANCH   5  17
HETATM   17  C   UNK N   1      35.245  14.708  11.723  0.00  0.00     0.205 C 
HETATM   18  O   UNK N   1      35.986  14.561  12.682  0.00  0.00    -0.646 OA
BRANCH  17  19
HETATM   19  O   UNK N   1      34.003  14.188  11.767  0.00  0.00    -0.772 OA
HETATM   20  H   UNK N   1      33.282  14.690  12.094  0.00  0.00     0.167 HD
ENDBRANCH  17  19
ENDBRANCH   5  17
BRANCH   5  21
HETATM   21  O   UNK N   1      36.737  16.326  10.874  0.00  0.00    -0.357 OA
HETATM   22  H   UNK N   1      36.802  17.145  11.391  0.00  0.00     0.213 HD
ENDBRANCH   5  21
TORSDOF 9
ENDMDL
MODEL 7
REMARK VINA RESULT:      -5.1      1.697      4.391
REMARK  9 active torsions:
REMARK  status: ('A' for Active; 'I' for Inactive)
REMARK    1  A    between atoms: C_4  and  C_2 
REMARK    2  A    between atoms: O_9  and  C_2 
REMARK    3  A    between atoms: C_3  and  O_10 
REMARK    4  A    between atoms: C_6  and  C_4 
REMARK    5  A    between atoms: C_4  and  O_11 
REMARK    6  A    between atoms: C_5  and  O_12 
REMARK    7  A    between atoms: C_8  and  C_7 
REMARK    8  A    between atoms: O_14  and  C_7 
REMARK    9  A    between atoms: C_8  and  O_15 
ROOT
HETATM    1  C   UNK N   1      34.169  14.727  10.615  0.00  0.00     0.114 C 
HETATM    2  C   UNK N   1      35.516  15.255  10.105  0.00  0.00     0.155 C 
HETATM    3  C   UNK N   1      35.366  16.697   9.555  0.00  0.00     0.178 C 
HETATM    4  C   UNK N   1      33.892  16.981   9.162  0.00  0.00     0.187 C 
HETATM    5  C   UNK N   1      33.073  14.822   9.508  0.00  0.00     0.253 C 
HETATM    6  O   UNK N   1      33.359  15.828   8.532  0.00  0.00    -0.336 OA
ENDROOT
BRANCH   4   7
HETATM    7  C   UNK N   1      33.706  18.217   8.265  0.00  0.00     0.173 C 
BRANCH   7   8
HETATM    8  C   UNK N   1      33.405  17.809   6.825  0.00  0.00     0.198 C 
BRANCH   8   9
HETATM    9  O   UNK N   1      34.571  17.400   6.176  0.00  0.00    -0.398 OA
HETATM   10  H   UNK N   1      34.602  16.751   5.457  0.00  0.00     0.209 HD
ENDBRANCH   8   9
ENDBRANCH   7   8
BRANCH   7  11
HETATM   11  O   UNK N   1      34.884  18.970   8.280  0.00  0.00    -0.391 OA
HETATM   12  H   UNK N   1      35.566  18.790   8.946  0.00  0.00     0.210 HD
ENDBRANCH   7  11
ENDBRANCH   4   7
BRANCH   3  13
HETATM   13  O   UNK N   1      35.767  17.623  10.521  0.00  0.00    -0.390 OA
HETATM   14  H   UNK N   1      36.590  18.033  10.828  0.00  0.00     0.210 HD
ENDBRANCH   3  13
BRANCH   2  15
HETATM   15  O   UNK N   1      35.968  14.411   9.088  0.00  0.00    -0.393 OA
HETATM   16  H   UNK N   1      35.923  13.585   8.581  0.00  0.00     0.210 HD
ENDBRANCH   2  15
BRANCH   5  17
HETATM   17  C   UNK N   1      32.940  13.495   8.801  0.00  0.00     0.205 C 
HETATM   18  O   UNK N   1      33.463  13.317   7.712  0.00  0.00    -0.646 OA
BRANCH  17  19
HETATM   19  O   UNK N   1      32.228  12.497   9.359  0.00  0.00    -0.772 OA
HETATM   20  H   UNK N   1      32.502  12.101  10.164  0.00  0.00     0.167 HD
ENDBRANCH  17  19
ENDBRANCH   5  17
BRANCH   5  21
HETATM   21  O   UNK N   1      31.852  15.116  10.125  0.00  0.00    -0.357 OA
HETATM   22  H   UNK N   1      31.555  15.668  10.865  0.00  0.00     0.213 HD
ENDBRANCH   5  21
TORSDOF 9
ENDMDL
MODEL 8
REMARK VINA RESULT:      -4.8      2.085      5.103
REMARK  9 active torsions:
REMARK  status: ('A' for Active; 'I' for Inactive)
REMARK    1  A    between atoms: C_4  and  C_2 
REMARK    2  A    between atoms: O_9  and  C_2 
REMARK    3  A    between atoms: C_3  and  O_10 
REMARK    4  A    between atoms: C_6  and  C_4 
REMARK    5  A    between atoms: C_4  and  O_11 
REMARK    6  A    between atoms: C_5  and  O_12 
REMARK    7  A    between atoms: C_8  and  C_7 
REMARK    8  A    between atoms: O_14  and  C_7 
REMARK    9  A    between atoms: C_8  and  O_15 
ROOT
HETATM    1  C   UNK N   1      35.816  15.353  12.396  0.00  0.00     0.114 C 
HETATM    2  C   UNK N   1      36.148  16.122  11.111  0.00  0.00     0.155 C 
HETATM    3  C   UNK N   1      35.035  15.922  10.050  0.00  0.00     0.178 C 
HETATM    4  C   UNK N   1      34.232  14.626  10.339  0.00  0.00     0.187 C 
HETATM    5  C   UNK N   1      35.557  13.843  12.096  0.00  0.00     0.253 C 
HETATM    6  O   UNK N   1      35.135  13.613  10.748  0.00  0.00    -0.336 OA
ENDROOT
BRANCH   4   7
HETATM    7  C   UNK N   1      33.377  14.138   9.157  0.00  0.00     0.173 C 
BRANCH   7   8
HETATM    8  C   UNK N   1      32.052  14.892   9.090  0.00  0.00     0.198 C 
BRANCH   8   9
HETATM    9  O   UNK N   1      31.624  15.248  10.371  0.00  0.00    -0.398 OA
HETATM   10  H   UNK N   1      31.537  14.632  11.114  0.00  0.00     0.209 HD
ENDBRANCH   8   9
ENDBRANCH   7   8
BRANCH   7  11
HETATM   11  O   UNK N   1      33.110  12.776   9.322  0.00  0.00    -0.391 OA
HETATM   12  H   UNK N   1      33.819  12.172   9.593  0.00  0.00     0.210 HD
ENDBRANCH   7  11
ENDBRANCH   4   7
BRANCH   3  13
HETATM   13  O   UNK N   1      34.162  17.012  10.060  0.00  0.00    -0.390 OA
HETATM   14  H   UNK N   1      33.883  17.718   9.456  0.00  0.00     0.210 HD
ENDBRANCH   3  13
BRANCH   2  15
HETATM   15  O   UNK N   1      37.363  15.648  10.611  0.00  0.00    -0.393 OA
HETATM   16  H   UNK N   1      37.961  15.440   9.876  0.00  0.00     0.210 HD
ENDBRANCH   2  15
BRANCH   5  17
HETATM   17  C   UNK N   1      36.813  13.046  12.347  0.00  0.00     0.205 C 
HETATM   18  O   UNK N   1      37.502  12.663  11.414  0.00  0.00    -0.646 OA
BRANCH  17  19
HETATM   19  O   UNK N   1      37.180  12.734  13.605  0.00  0.00    -0.772 OA
HETATM   20  H   UNK N   1      36.604  12.255  14.169  0.00  0.00     0.167 HD
ENDBRANCH  17  19
ENDBRANCH   5  17
BRANCH   5  21
HETATM   21  O   UNK N   1      34.564  13.388  12.971  0.00  0.00    -0.357 OA
HETATM   22  H   UNK N   1      34.519  13.117  13.901  0.00  0.00     0.213 HD
ENDBRANCH   5  21
TORSDOF 9
ENDMDL
MODEL 9
REMARK VINA RESULT:      -4.8     13.318     15.446
REMARK  9 active torsions:
REMARK  status: ('A' for Active; 'I' for Inactive)
REMARK    1  A    between atoms: C_4  and  C_2 
REMARK    2  A    between atoms: O_9  and  C_2 
REMARK    3  A    between atoms: C_3  and  O_10 
REMARK    4  A    between atoms: C_6  and  C_4 
REMARK    5  A    between atoms: C_4  and  O_11 
REMARK    6  A    between atoms: C_5  and  O_12 
REMARK    7  A    between atoms: C_8  and  C_7 
REMARK    8  A    between atoms: O_14  and  C_7 
REMARK    9  A    between atoms: C_8  and  O_15 
ROOT
HETATM    1  C   UNK N   1      21.150  16.248   4.323  0.00  0.00     0.114 C 
HETATM    2  C   UNK N   1      22.187  17.323   4.674  0.00  0.00     0.155 C 
HETATM    3  C   UNK N   1      21.639  18.738   4.353  0.00  0.00     0.178 C 
HETATM    4  C   UNK N   1      20.501  18.657   3.300  0.00  0.00     0.187 C 
HETATM    5  C   UNK N   1      20.689  16.376   2.838  0.00  0.00     0.253 C 
HETATM    6  O   UNK N   1      20.857  17.699   2.318  0.00  0.00    -0.336 OA
ENDROOT
BRANCH   4   7
HETATM    7  C   UNK N   1      20.160  20.003   2.638  0.00  0.00     0.173 C 
BRANCH   7   8
HETATM    8  C   UNK N   1      21.128  20.316   1.500  0.00  0.00     0.198 C 
BRANCH   8   9
HETATM    9  O   UNK N   1      20.603  19.892   0.278  0.00  0.00    -0.398 OA
HETATM   10  H   UNK N   1      21.120  19.774  -0.533  0.00  0.00     0.209 HD
ENDBRANCH   8   9
ENDBRANCH   7   8
BRANCH   7  11
HETATM   11  O   UNK N   1      20.252  21.017   3.596  0.00  0.00    -0.391 OA
HETATM   12  H   UNK N   1      19.543  21.674   3.676  0.00  0.00     0.210 HD
ENDBRANCH   7  11
ENDBRANCH   4   7
BRANCH   3  13
HETATM   13  O   UNK N   1      21.144  19.335   5.515  0.00  0.00    -0.390 OA
HETATM   14  H   UNK N   1      20.966  20.229   5.846  0.00  0.00     0.210 HD
ENDBRANCH   3  13
BRANCH   2  15
HETATM   15  O   UNK N   1      23.341  17.087   3.924  0.00  0.00    -0.393 OA
HETATM   16  H   UNK N   1      23.864  17.172   3.112  0.00  0.00     0.210 HD
ENDBRANCH   2  15
BRANCH   5  17
HETATM   17  C   UNK N   1      21.472  15.419   1.972  0.00  0.00     0.205 C 
HETATM   18  O   UNK N   1      22.302  14.673   2.466  0.00  0.00    -0.646 OA
BRANCH  17  19
HETATM   19  O   UNK N   1      21.274  15.391   0.640  0.00  0.00    -0.772 OA
HETATM   20  H   UNK N   1      21.944  15.669   0.047  0.00  0.00     0.167 HD
ENDBRANCH  17  19
ENDBRANCH   5  17
BRANCH   5  21
HETATM   21  O   UNK N   1      19.336  16.026   2.768  0.00  0.00    -0.357 OA
HETATM   22  H   UNK N   1      18.533  16.399   2.370  0.00  0.00     0.213 HD
ENDBRANCH   5  21
TORSDOF 9
ENDMDL
