MODEL 1
REMARK VINA RESULT:      -4.9      0.000      0.000
REMARK  7 active torsions:
REMARK  status: ('A' for Active; 'I' for Inactive)
REMARK    1  A    between atoms: C_2  and  N_1 
REMARK    2  A    between atoms: C_2  and  C_3 
REMARK    3  A    between atoms: C_2  and  C_8 
REMARK    4  A    between atoms: C_3  and  O_4 
REMARK    5  A    between atoms: C_3  and  C_5 
REMARK    6  A    between atoms: C_5  and  O_6 
REMARK    7  A    between atoms: C_8  and  O_9 
ROOT
HETATM    1  C   UNK N   1      34.015  17.283   9.040  0.00  0.00     0.213 C 
ENDROOT
BRANCH   1   2
HETATM    2  N   UNK N   1      32.594  16.994   8.937  0.00  0.00    -0.415 N 
HETATM    3  H   UNK N   1      31.908  17.700   9.207  0.00  0.00     0.150 HD
HETATM    4  H   UNK N   1      32.282  16.085   8.595  0.00  0.00     0.150 HD
ENDBRANCH   1   2
BRANCH   1   5
HETATM    5  C   UNK N   1      34.841  16.564  10.110  0.00  0.00     0.248 C 
BRANCH   5   6
HETATM    6  O   UNK N   1      35.985  17.194  10.604  0.00  0.00    -0.382 OA
HETATM    7  H   UNK N   1      36.231  17.092  11.537  0.00  0.00     0.210 HD
ENDBRANCH   5   6
BRANCH   5   8
HETATM    8  C   UNK N   1      34.502  15.217  10.669  0.00  0.00     0.172 C 
HETATM    9  O   UNK N   1      35.333  14.326  10.688  0.00  0.00    -0.648 OA
BRANCH   8  10
HETATM   10  O   UNK N   1      33.268  14.986  11.156  0.00  0.00    -0.774 OA
HETATM   11  H   UNK N   1      33.036  14.131  11.458  0.00  0.00     0.167 HD
ENDBRANCH   8  10
ENDBRANCH   5   8
ENDBRANCH   1   5
BRANCH   1  12
HETATM   12  C   UNK N   1      34.590  18.279   8.081  0.00  0.00     0.166 C 
HETATM   13  O   UNK N   1      35.256  19.216   8.488  0.00  0.00    -0.648 OA
BRANCH  12  14
HETATM   14  O   UNK N   1      34.372  18.143   6.759  0.00  0.00    -0.775 OA
HETATM   15  H   UNK N   1      33.522  17.901   6.447  0.00  0.00     0.167 HD
ENDBRANCH  12  14
ENDBRANCH   1  12
TORSDOF 7
ENDMDL
MODEL 2
REMARK VINA RESULT:      -4.9     15.560     16.519
REMARK  7 active torsions:
REMARK  status: ('A' for Active; 'I' for Inactive)
REMARK    1  A    between atoms: C_2  and  N_1 
REMARK    2  A    between atoms: C_2  and  C_3 
REMARK    3  A    between atoms: C_2  and  C_8 
REMARK    4  A    between atoms: C_3  and  O_4 
REMARK    5  A    between atoms: C_3  and  C_5 
REMARK    6  A    between atoms: C_5  and  O_6 
REMARK    7  A    between atoms: C_8  and  O_9 
ROOT
HETATM    1  C   UNK N   1      20.070  18.338   1.772  0.00  0.00     0.213 C 
ENDROOT
BRANCH   1   2
HETATM    2  N   UNK N   1      19.377  17.988   3.001  0.00  0.00    -0.415 N 
HETATM    3  H   UNK N   1      19.447  17.042   3.376  0.00  0.00     0.150 HD
HETATM    4  H   UNK N   1      18.819  18.690   3.489  0.00  0.00     0.150 HD
ENDBRANCH   1   2
BRANCH   1   5
HETATM    5  C   UNK N   1      20.598  19.765   1.600  0.00  0.00     0.248 C 
BRANCH   5   6
HETATM    6  O   UNK N   1      20.787  20.254   0.305  0.00  0.00    -0.382 OA
HETATM    7  H   UNK N   1      20.559  19.703  -0.460  0.00  0.00     0.210 HD
ENDBRANCH   5   6
BRANCH   5   8
HETATM    8  C   UNK N   1      20.929  20.681   2.737  0.00  0.00     0.172 C 
HETATM    9  O   UNK N   1      20.301  20.626   3.780  0.00  0.00    -0.648 OA
BRANCH   8  10
HETATM   10  O   UNK N   1      21.928  21.574   2.607  0.00  0.00    -0.774 OA
HETATM   11  H   UNK N   1      22.685  21.361   2.099  0.00  0.00     0.167 HD
ENDBRANCH   8  10
ENDBRANCH   5   8
ENDBRANCH   1   5
BRANCH   1  12
HETATM   12  C   UNK N   1      20.227  17.266   0.738  0.00  0.00     0.166 C 
HETATM   13  O   UNK N   1      20.307  16.095   1.070  0.00  0.00    -0.648 OA
BRANCH  12  14
HETATM   14  O   UNK N   1      20.281  17.593  -0.567  0.00  0.00    -0.775 OA
HETATM   15  H   UNK N   1      19.507  17.880  -1.011  0.00  0.00     0.167 HD
ENDBRANCH  12  14
ENDBRANCH   1  12
TORSDOF 7
ENDMDL
MODEL 3
REMARK VINA RESULT:      -4.7     15.554     16.326
REMARK  7 active torsions:
REMARK  status: ('A' for Active; 'I' for Inactive)
REMARK    1  A    between atoms: C_2  and  N_1 
REMARK    2  A    between atoms: C_2  and  C_3 
REMARK    3  A    between atoms: C_2  and  C_8 
REMARK    4  A    between atoms: C_3  and  O_4 
REMARK    5  A    between atoms: C_3  and  C_5 
REMARK    6  A    between atoms: C_5  and  O_6 
REMARK    7  A    between atoms: C_8  and  O_9 
ROOT
HETATM    1  C   UNK N   1      20.450  19.764   1.845  0.00  0.00     0.213 C 
ENDROOT
BRANCH   1   2
HETATM    2  N   UNK N   1      20.548  20.375   0.530  0.00  0.00    -0.415 N 
HETATM    3  H   UNK N   1      20.562  19.790  -0.306  0.00  0.00     0.150 HD
HETATM    4  H   UNK N   1      20.605  21.391   0.442  0.00  0.00     0.150 HD
ENDBRANCH   1   2
BRANCH   1   5
HETATM    5  C   UNK N   1      19.870  18.352   1.963  0.00  0.00     0.248 C 
BRANCH   5   6
HETATM    6  O   UNK N   1      18.946  18.094   2.978  0.00  0.00    -0.382 OA
HETATM    7  H   UNK N   1      18.017  17.925   2.757  0.00  0.00     0.210 HD
ENDBRANCH   5   6
BRANCH   5   8
HETATM    8  C   UNK N   1      20.230  17.217   1.055  0.00  0.00     0.172 C 
HETATM    9  O   UNK N   1      20.516  16.124   1.512  0.00  0.00    -0.648 OA
BRANCH   8  10
HETATM   10  O   UNK N   1      20.238  17.403  -0.278  0.00  0.00    -0.774 OA
HETATM   11  H   UNK N   1      21.011  17.718  -0.702  0.00  0.00     0.167 HD
ENDBRANCH   8  10
ENDBRANCH   5   8
ENDBRANCH   1   5
BRANCH   1  12
HETATM   12  C   UNK N   1      20.928  20.564   3.017  0.00  0.00     0.166 C 
HETATM   13  O   UNK N   1      20.606  20.250   4.151  0.00  0.00    -0.648 OA
BRANCH  12  14
HETATM   14  O   UNK N   1      21.717  21.637   2.822  0.00  0.00    -0.775 OA
HETATM   15  H   UNK N   1      22.043  21.830   1.965  0.00  0.00     0.167 HD
ENDBRANCH  12  14
ENDBRANCH   1  12
TORSDOF 7
ENDMDL
MODEL 4
REMARK VINA RESULT:      -4.5      3.496      5.923
REMARK  7 active torsions:
REMARK  status: ('A' for Active; 'I' for Inactive)
REMARK    1  A    between atoms: C_2  and  N_1 
REMARK    2  A    between atoms: C_2  and  C_3 
REMARK    3  A    between atoms: C_2  and  C_8 
REMARK    4  A    between atoms: C_3  and  O_4 
REMARK    5  A    between atoms: C_3  and  C_5 
REMARK    6  A    between atoms: C_5  and  O_6 
REMARK    7  A    between atoms: C_8  and  O_9 
ROOT
HETATM    1  C   UNK N   1      36.339  13.900  12.696  0.00  0.00     0.213 C 
ENDROOT
BRANCH   1   2
HETATM    2  N   UNK N   1      37.490  13.276  12.064  0.00  0.00    -0.415 N 
HETATM    3  H   UNK N   1      38.115  12.683  12.611  0.00  0.00     0.150 HD
HETATM    4  H   UNK N   1      37.673  13.430  11.072  0.00  0.00     0.150 HD
ENDBRANCH   1   2
BRANCH   1   5
HETATM    5  C   UNK N   1      35.425  14.793  11.853  0.00  0.00     0.248 C 
BRANCH   5   6
HETATM    6  O   UNK N   1      34.074  14.456  11.752  0.00  0.00    -0.382 OA
HETATM    7  H   UNK N   1      33.674  14.311  10.880  0.00  0.00     0.210 HD
ENDBRANCH   5   6
BRANCH   5   8
HETATM    8  C   UNK N   1      35.886  16.016  11.122  0.00  0.00     0.172 C 
HETATM    9  O   UNK N   1      35.114  16.932  10.897  0.00  0.00    -0.648 OA
BRANCH   8  10
HETATM   10  O   UNK N   1      37.164  16.107  10.709  0.00  0.00    -0.774 OA
HETATM   11  H   UNK N   1      37.743  16.725  11.109  0.00  0.00     0.167 HD
ENDBRANCH   8  10
ENDBRANCH   5   8
ENDBRANCH   1   5
BRANCH   1  12
HETATM   12  C   UNK N   1      36.118  13.628  14.152  0.00  0.00     0.166 C 
HETATM   13  O   UNK N   1      34.993  13.424  14.578  0.00  0.00    -0.648 OA
BRANCH  12  14
HETATM   14  O   UNK N   1      37.164  13.606  15.000  0.00  0.00    -0.775 OA
HETATM   15  H   UNK N   1      37.744  12.870  15.009  0.00  0.00     0.167 HD
ENDBRANCH  12  14
ENDBRANCH   1  12
TORSDOF 7
ENDMDL
MODEL 5
REMARK VINA RESULT:      -4.5      2.362      4.716
REMARK  7 active torsions:
REMARK  status: ('A' for Active; 'I' for Inactive)
REMARK    1  A    between atoms: C_2  and  N_1 
REMARK    2  A    between atoms: C_2  and  C_3 
REMARK    3  A    between atoms: C_2  and  C_8 
REMARK    4  A    between atoms: C_3  and  O_4 
REMARK    5  A    between atoms: C_3  and  C_5 
REMARK    6  A    between atoms: C_5  and  O_6 
REMARK    7  A    between atoms: C_8  and  O_9 
ROOT
HETATM    1  C   UNK N   1      35.152  14.600  11.592  0.00  0.00     0.213 C 
ENDROOT
BRANCH   1   2
HETATM    2  N   UNK N   1      34.081  13.849  10.957  0.00  0.00    -0.415 N 
HETATM    3  H   UNK N   1      34.256  12.908  10.605  0.00  0.00     0.150 HD
HETATM    4  H   UNK N   1      33.153  14.263  10.864  0.00  0.00     0.150 HD
ENDBRANCH   1   2
BRANCH   1   5
HETATM    5  C   UNK N   1      35.768  15.786  10.845  0.00  0.00     0.248 C 
BRANCH   5   6
HETATM    6  O   UNK N   1      37.158  15.917  10.834  0.00  0.00    -0.382 OA
HETATM    7  H   UNK N   1      37.705  15.244  10.400  0.00  0.00     0.210 HD
ENDBRANCH   5   6
BRANCH   5   8
HETATM    8  C   UNK N   1      34.972  16.826  10.118  0.00  0.00     0.172 C 
HETATM    9  O   UNK N   1      35.472  17.900   9.831  0.00  0.00    -0.648 OA
BRANCH   8  10
HETATM   10  O   UNK N   1      33.694  16.574   9.778  0.00  0.00    -0.774 OA
HETATM   11  H   UNK N   1      33.033  17.218   9.932  0.00  0.00     0.167 HD
ENDBRANCH   8  10
ENDBRANCH   5   8
ENDBRANCH   1   5
BRANCH   1  12
HETATM   12  C   UNK N   1      35.591  14.160  12.955  0.00  0.00     0.166 C 
HETATM   13  O   UNK N   1      34.861  13.470  13.646  0.00  0.00    -0.648 OA
BRANCH  12  14
HETATM   14  O   UNK N   1      36.799  14.527  13.423  0.00  0.00    -0.775 OA
HETATM   15  H   UNK N   1      37.358  13.892  13.826  0.00  0.00     0.167 HD
ENDBRANCH  12  14
ENDBRANCH   1  12
TORSDOF 7
ENDMDL
MODEL 6
REMARK VINA RESULT:      -4.4     15.240     16.236
REMARK  7 active torsions:
REMARK  status: ('A' for Active; 'I' for Inactive)
REMARK    1  A    between atoms: C_2  and  N_1 
REMARK    2  A    between atoms: C_2  and  C_3 
REMARK    3  A    between atoms: C_2  and  C_8 
REMARK    4  A    between atoms: C_3  and  O_4 
REMARK    5  A    between atoms: C_3  and  C_5 
REMARK    6  A    between atoms: C_5  and  O_6 
REMARK    7  A    between atoms: C_8  and  O_9 
ROOT
HETATM    1  C   UNK N   1      20.305  18.327   1.590  0.00  0.00     0.213 C 
ENDROOT
BRANCH   1   2
HETATM    2  N   UNK N   1      19.991  17.601   0.370  0.00  0.00    -0.415 N 
HETATM    3  H   UNK N   1      20.728  17.108  -0.135  0.00  0.00     0.150 HD
HETATM    4  H   UNK N   1      19.033  17.583   0.019  0.00  0.00     0.150 HD
ENDBRANCH   1   2
BRANCH   1   5
HETATM    5  C   UNK N   1      20.731  19.795   1.488  0.00  0.00     0.248 C 
BRANCH   5   6
HETATM    6  O   UNK N   1      20.764  20.394   0.227  0.00  0.00    -0.382 OA
HETATM    7  H   UNK N   1      21.569  20.842  -0.076  0.00  0.00     0.210 HD
ENDBRANCH   5   6
BRANCH   5   8
HETATM    8  C   UNK N   1      21.117  20.641   2.662  0.00  0.00     0.172 C 
HETATM    9  O   UNK N   1      22.182  21.232   2.676  0.00  0.00    -0.648 OA
BRANCH   8  10
HETATM   10  O   UNK N   1      20.282  20.749   3.713  0.00  0.00    -0.774 OA
HETATM   11  H   UNK N   1      19.368  20.897   3.571  0.00  0.00     0.167 HD
ENDBRANCH   8  10
ENDBRANCH   5   8
ENDBRANCH   1   5
BRANCH   1  12
HETATM   12  C   UNK N   1      20.192  17.585   2.886  0.00  0.00     0.166 C 
HETATM   13  O   UNK N   1      21.191  17.161   3.443  0.00  0.00    -0.648 OA
BRANCH  12  14
HETATM   14  O   UNK N   1      18.983  17.383   3.442  0.00  0.00    -0.775 OA
HETATM   15  H   UNK N   1      18.646  17.996   4.066  0.00  0.00     0.167 HD
ENDBRANCH  12  14
ENDBRANCH   1  12
TORSDOF 7
ENDMDL
MODEL 7
REMARK VINA RESULT:      -4.4     12.141     13.726
REMARK  7 active torsions:
REMARK  status: ('A' for Active; 'I' for Inactive)
REMARK    1  A    between atoms: C_2  and  N_1 
REMARK    2  A    between atoms: C_2  and  C_3 
REMARK    3  A    between atoms: C_2  and  C_8 
REMARK    4  A    between atoms: C_3  and  O_4 
REMARK    5  A    between atoms: C_3  and  C_5 
REMARK    6  A    between atoms: C_5  and  O_6 
REMARK    7  A    between atoms: C_8  and  O_9 
ROOT
HETATM    1  C   UNK N   1      22.721  12.020  10.853  0.00  0.00     0.213 C 
ENDROOT
BRANCH   1   2
HETATM    2  N   UNK N   1      23.266  11.557   9.587  0.00  0.00    -0.415 N 
HETATM    3  H   UNK N   1      23.586  10.593   9.491  0.00  0.00     0.150 HD
HETATM    4  H   UNK N   1      23.327  12.196   8.794  0.00  0.00     0.150 HD
ENDBRANCH   1   2
BRANCH   1   5
HETATM    5  C   UNK N   1      21.266  12.493  10.905  0.00  0.00     0.248 C 
BRANCH   5   6
HETATM    6  O   UNK N   1      20.398  11.883  11.813  0.00  0.00    -0.382 OA
HETATM    7  H   UNK N   1      20.637  11.033  12.216  0.00  0.00     0.210 HD
ENDBRANCH   5   6
BRANCH   5   8
HETATM    8  C   UNK N   1      20.703  13.577  10.038  0.00  0.00     0.172 C 
HETATM    9  O   UNK N   1      19.499  13.751   9.965  0.00  0.00    -0.648 OA
BRANCH   8  10
HETATM   10  O   UNK N   1      21.534  14.367   9.332  0.00  0.00    -0.774 OA
HETATM   11  H   UNK N   1      22.453  14.358   9.509  0.00  0.00     0.167 HD
ENDBRANCH   8  10
ENDBRANCH   5   8
ENDBRANCH   1   5
BRANCH   1  12
HETATM   12  C   UNK N   1      23.630  12.005  12.044  0.00  0.00     0.166 C 
HETATM   13  O   UNK N   1      23.177  11.841  13.165  0.00  0.00    -0.648 OA
BRANCH  12  14
HETATM   14  O   UNK N   1      24.955  12.174  11.880  0.00  0.00    -0.775 OA
HETATM   15  H   UNK N   1      25.278  12.688  11.165  0.00  0.00     0.167 HD
ENDBRANCH  12  14
ENDBRANCH   1  12
TORSDOF 7
ENDMDL
MODEL 8
REMARK VINA RESULT:      -4.4      2.067      2.594
REMARK  7 active torsions:
REMARK  status: ('A' for Active; 'I' for Inactive)
REMARK    1  A    between atoms: C_2  and  N_1 
REMARK    2  A    between atoms: C_2  and  C_3 
REMARK    3  A    between atoms: C_2  and  C_8 
REMARK    4  A    between atoms: C_3  and  O_4 
REMARK    5  A    between atoms: C_3  and  C_5 
REMARK    6  A    between atoms: C_5  and  O_6 
REMARK    7  A    between atoms: C_8  and  O_9 
ROOT
HETATM    1  C   UNK N   1      34.617  15.733  10.606  0.00  0.00     0.213 C 
ENDROOT
BRANCH   1   2
HETATM    2  N   UNK N   1      33.440  14.892  10.757  0.00  0.00    -0.415 N 
HETATM    3  H   UNK N   1      32.750  14.839  10.007  0.00  0.00     0.150 HD
HETATM    4  H   UNK N   1      33.304  14.355  11.614  0.00  0.00     0.150 HD
ENDBRANCH   1   2
BRANCH   1   5
HETATM    5  C   UNK N   1      35.921  15.312  11.289  0.00  0.00     0.248 C 
BRANCH   5   6
HETATM    6  O   UNK N   1      37.109  15.931  10.896  0.00  0.00    -0.382 OA
HETATM    7  H   UNK N   1      37.955  15.467  10.999  0.00  0.00     0.210 HD
ENDBRANCH   5   6
BRANCH   5   8
HETATM    8  C   UNK N   1      36.009  14.270  12.361  0.00  0.00     0.172 C 
HETATM    9  O   UNK N   1      35.021  13.953  13.000  0.00  0.00    -0.648 OA
BRANCH   8  10
HETATM   10  O   UNK N   1      37.189  13.677  12.623  0.00  0.00    -0.774 OA
HETATM   11  H   UNK N   1      37.549  13.711  13.486  0.00  0.00     0.167 HD
ENDBRANCH   8  10
ENDBRANCH   5   8
ENDBRANCH   1   5
BRANCH   1  12
HETATM   12  C   UNK N   1      34.478  16.975   9.780  0.00  0.00     0.166 C 
HETATM   13  O   UNK N   1      35.400  17.769   9.699  0.00  0.00    -0.648 OA
BRANCH  12  14
HETATM   14  O   UNK N   1      33.329  17.220   9.121  0.00  0.00    -0.775 OA
HETATM   15  H   UNK N   1      32.510  16.964   9.498  0.00  0.00     0.167 HD
ENDBRANCH  12  14
ENDBRANCH   1  12
TORSDOF 7
ENDMDL
MODEL 9
REMARK VINA RESULT:      -4.3      2.565      3.798
REMARK  7 active torsions:
REMARK  status: ('A' for Active; 'I' for Inactive)
REMARK    1  A    between atoms: C_2  and  N_1 
REMARK    2  A    between atoms: C_2  and  C_3 
REMARK    3  A    between atoms: C_2  and  C_8 
REMARK    4  A    between atoms: C_3  and  O_4 
REMARK    5  A    between atoms: C_3  and  C_5 
REMARK    6  A    between atoms: C_5  and  O_6 
REMARK    7  A    between atoms: C_8  and  O_9 
ROOT
HETATM    1  C   UNK N   1      34.621  15.097  11.180  0.00  0.00     0.213 C 
ENDROOT
BRANCH   1   2
HETATM    2  N   UNK N   1      33.274  15.244  10.654  0.00  0.00    -0.415 N 
HETATM    3  H   UNK N   1      32.477  14.887  11.182  0.00  0.00     0.150 HD
HETATM    4  H   UNK N   1      33.124  15.706   9.756  0.00  0.00     0.150 HD
ENDBRANCH   1   2
BRANCH   1   5
HETATM    5  C   UNK N   1      34.973  13.835  11.972  0.00  0.00     0.248 C 
BRANCH   5   6
HETATM    6  O   UNK N   1      34.668  12.591  11.414  0.00  0.00    -0.382 OA
HETATM    7  H   UNK N   1      34.030  12.007  11.851  0.00  0.00     0.210 HD
ENDBRANCH   5   6
BRANCH   5   8
HETATM    8  C   UNK N   1      35.628  13.843  13.319  0.00  0.00     0.172 C 
HETATM    9  O   UNK N   1      35.004  13.518  14.314  0.00  0.00    -0.648 OA
BRANCH   8  10
HETATM   10  O   UNK N   1      36.918  14.212  13.433  0.00  0.00    -0.774 OA
HETATM   11  H   UNK N   1      37.304  14.771  12.789  0.00  0.00     0.167 HD
ENDBRANCH   8  10
ENDBRANCH   5   8
ENDBRANCH   1   5
BRANCH   1  12
HETATM   12  C   UNK N   1      35.593  16.204  10.911  0.00  0.00     0.166 C 
HETATM   13  O   UNK N   1      35.194  17.329  10.660  0.00  0.00    -0.648 OA
BRANCH  12  14
HETATM   14  O   UNK N   1      36.917  15.959  10.944  0.00  0.00    -0.775 OA
HETATM   15  H   UNK N   1      37.477  16.484  11.482  0.00  0.00     0.167 HD
ENDBRANCH  12  14
ENDBRANCH   1  12
TORSDOF 7
ENDMDL
