MODEL 1
REMARK VINA RESULT:      -4.8      0.000      0.000
REMARK  1 active torsions:
REMARK  status: ('A' for Active; 'I' for Inactive)
REMARK    1  A    between atoms: C_13  and  N_14 
ROOT
HETATM    1  C   UNK N   1      20.289  15.375   3.021  0.00  0.00     0.158 C 
HETATM    2  N   UNK N   1      20.295  16.568   2.192  0.00  0.00    -0.332 N 
HETATM    3  C   UNK N   1      20.055  16.592   0.857  0.00  0.00     0.184 A 
HETATM    4  N   UNK N   1      20.133  17.857   0.362  0.00  0.00    -0.346 N 
ATOM      5  HN  UNK N   1      19.997  18.159  -0.603  1.00  0.00     0.167 HD
HETATM    6  C   UNK N   1      20.428  18.618   1.431  0.00  0.00     0.122 A 
HETATM    7  C   UNK N   1      20.527  17.847   2.535  0.00  0.00     0.142 A 
HETATM    8  N   UNK N   1      20.823  18.378   3.759  0.00  0.00    -0.332 N 
HETATM    9  C   UNK N   1      20.940  17.571   4.962  0.00  0.00     0.158 C 
HETATM   10  C   UNK N   1      21.016  19.732   3.843  0.00  0.00     0.185 A 
HETATM   11  N   UNK N   1      20.919  20.523   2.725  0.00  0.00    -0.337 N 
ATOM     12  HN  UNK N   1      21.067  21.529   2.807  1.00  0.00     0.168 HD
HETATM   13  C   UNK N   1      20.625  19.984   1.505  0.00  0.00     0.131 A 
ENDROOT
BRANCH  13  14
HETATM   14  N   UNK N   1      20.531  20.798   0.361  0.00  0.00    -0.383 N 
HETATM   15  H   UNK N   1      20.066  20.468  -0.442  0.00  0.00     0.157 HD
HETATM   16  H   UNK N   1      20.930  21.698   0.363  0.00  0.00     0.157 HD
ENDBRANCH  13  14
TORSDOF 1
ENDMDL
MODEL 2
REMARK VINA RESULT:      -4.8     22.262     22.925
REMARK  1 active torsions:
REMARK  status: ('A' for Active; 'I' for Inactive)
REMARK    1  A    between atoms: C_13  and  N_14 
ROOT
HETATM    1  C   UNK N   1      40.487  20.635   1.934  0.00  0.00     0.158 C 
HETATM    2  N   UNK N   1      41.382  21.766   2.101  0.00  0.00    -0.332 N 
HETATM    3  C   UNK N   1      41.081  23.051   1.788  0.00  0.00     0.184 A 
HETATM    4  N   UNK N   1      42.124  23.884   2.056  0.00  0.00    -0.346 N 
ATOM      5  HN  UNK N   1      42.169  24.893   1.917  1.00  0.00     0.167 HD
HETATM    6  C   UNK N   1      43.081  23.076   2.547  0.00  0.00     0.122 A 
HETATM    7  C   UNK N   1      42.640  21.800   2.576  0.00  0.00     0.142 A 
HETATM    8  N   UNK N   1      43.424  20.778   3.031  0.00  0.00    -0.332 N 
HETATM    9  C   UNK N   1      42.975  19.396   3.069  0.00  0.00     0.158 C 
HETATM   10  C   UNK N   1      44.686  21.082   3.467  0.00  0.00     0.185 A 
HETATM   11  N   UNK N   1      45.144  22.376   3.440  0.00  0.00    -0.337 N 
ATOM     12  HN  UNK N   1      46.088  22.582   3.768  1.00  0.00     0.168 HD
HETATM   13  C   UNK N   1      44.354  23.391   2.981  0.00  0.00     0.131 A 
ENDROOT
BRANCH  13  14
HETATM   14  N   UNK N   1      44.829  24.716   2.950  0.00  0.00    -0.383 N 
HETATM   15  H   UNK N   1      45.492  25.017   3.613  0.00  0.00     0.157 HD
HETATM   16  H   UNK N   1      44.499  25.342   2.265  0.00  0.00     0.157 HD
ENDBRANCH  13  14
TORSDOF 1
ENDMDL
MODEL 3
REMARK VINA RESULT:      -4.5      7.410      9.731
REMARK  1 active torsions:
REMARK  status: ('A' for Active; 'I' for Inactive)
REMARK    1  A    between atoms: C_13  and  N_14 
ROOT
HETATM    1  C   UNK N   1      22.562  15.141   7.188  0.00  0.00     0.158 C 
HETATM    2  N   UNK N   1      21.897  14.492   8.304  0.00  0.00    -0.332 N 
HETATM    3  C   UNK N   1      20.652  14.794   8.751  0.00  0.00     0.184 A 
HETATM    4  N   UNK N   1      20.305  14.016   9.812  0.00  0.00    -0.346 N 
ATOM      5  HN  UNK N   1      19.432  14.031  10.339  1.00  0.00     0.167 HD
HETATM    6  C   UNK N   1      21.373  13.222  10.010  0.00  0.00     0.122 A 
HETATM    7  C   UNK N   1      22.334  13.504   9.104  0.00  0.00     0.142 A 
HETATM    8  N   UNK N   1      23.527  12.838   9.090  0.00  0.00    -0.332 N 
HETATM    9  C   UNK N   1      24.579  13.126   8.130  0.00  0.00     0.158 C 
HETATM   10  C   UNK N   1      23.727  11.859  10.026  0.00  0.00     0.185 A 
HETATM   11  N   UNK N   1      22.756  11.566  10.952  0.00  0.00    -0.337 N 
ATOM     12  HN  UNK N   1      22.925  10.834  11.642  1.00  0.00     0.168 HD
HETATM   13  C   UNK N   1      21.568  12.238  10.960  0.00  0.00     0.131 A 
ENDROOT
BRANCH  13  14
HETATM   14  N   UNK N   1      20.577  11.937  11.914  0.00  0.00    -0.383 N 
HETATM   15  H   UNK N   1      19.991  11.157  11.786  0.00  0.00     0.157 HD
HETATM   16  H   UNK N   1      20.469  12.508  12.709  0.00  0.00     0.157 HD
ENDBRANCH  13  14
TORSDOF 1
ENDMDL
MODEL 4
REMARK VINA RESULT:      -4.5     11.859     13.171
REMARK  1 active torsions:
REMARK  status: ('A' for Active; 'I' for Inactive)
REMARK    1  A    between atoms: C_13  and  N_14 
ROOT
HETATM    1  C   UNK N   1      29.291  17.275   6.253  0.00  0.00     0.158 C 
HETATM    2  N   UNK N   1      30.341  17.252   7.257  0.00  0.00    -0.332 N 
HETATM    3  C   UNK N   1      30.138  17.201   8.597  0.00  0.00     0.184 A 
HETATM    4  N   UNK N   1      31.317  17.193   9.277  0.00  0.00    -0.346 N 
ATOM      5  HN  UNK N   1      31.455  17.159  10.287  1.00  0.00     0.167 HD
HETATM    6  C   UNK N   1      32.258  17.241   8.317  0.00  0.00     0.122 A 
HETATM    7  C   UNK N   1      31.676  17.276   7.099  0.00  0.00     0.142 A 
HETATM    8  N   UNK N   1      32.415  17.330   5.950  0.00  0.00    -0.332 N 
HETATM    9  C   UNK N   1      31.814  17.374   4.628  0.00  0.00     0.158 C 
HETATM   10  C   UNK N   1      33.780  17.344   6.064  0.00  0.00     0.185 A 
HETATM   11  N   UNK N   1      34.380  17.309   7.299  0.00  0.00    -0.337 N 
ATOM     12  HN  UNK N   1      35.398  17.321   7.363  1.00  0.00     0.168 HD
HETATM   13  C   UNK N   1      33.634  17.258   8.441  0.00  0.00     0.131 A 
ENDROOT
BRANCH  13  14
HETATM   14  N   UNK N   1      34.253  17.227   9.705  0.00  0.00    -0.383 N 
HETATM   15  H   UNK N   1      33.706  17.172  10.521  0.00  0.00     0.157 HD
HETATM   16  H   UNK N   1      35.235  17.261   9.774  0.00  0.00     0.157 HD
ENDBRANCH  13  14
TORSDOF 1
ENDMDL
MODEL 5
REMARK VINA RESULT:      -4.4      8.593      9.962
REMARK  1 active torsions:
REMARK  status: ('A' for Active; 'I' for Inactive)
REMARK    1  A    between atoms: C_13  and  N_14 
ROOT
HETATM    1  C   UNK N   1      30.744  16.810   8.882  0.00  0.00     0.158 C 
HETATM    2  N   UNK N   1      29.605  17.608   8.465  0.00  0.00    -0.332 N 
HETATM    3  C   UNK N   1      28.715  18.195   9.304  0.00  0.00     0.184 A 
HETATM    4  N   UNK N   1      27.758  18.875   8.614  0.00  0.00    -0.346 N 
ATOM      5  HN  UNK N   1      26.973  19.404   8.993  1.00  0.00     0.167 HD
HETATM    6  C   UNK N   1      28.082  18.692   7.321  0.00  0.00     0.122 A 
HETATM    7  C   UNK N   1      29.194  17.930   7.226  0.00  0.00     0.142 A 
HETATM    8  N   UNK N   1      29.733  17.593   6.016  0.00  0.00    -0.332 N 
HETATM    9  C   UNK N   1      30.924  16.771   5.886  0.00  0.00     0.158 C 
HETATM   10  C   UNK N   1      29.114  18.056   4.886  0.00  0.00     0.185 A 
HETATM   11  N   UNK N   1      27.983  18.830   4.973  0.00  0.00    -0.337 N 
ATOM     12  HN  UNK N   1      27.535  19.164   4.120  1.00  0.00     0.168 HD
HETATM   13  C   UNK N   1      27.450  19.160   6.186  0.00  0.00     0.131 A 
ENDROOT
BRANCH  13  14
HETATM   14  N   UNK N   1      26.287  19.950   6.271  0.00  0.00    -0.383 N 
HETATM   15  H   UNK N   1      25.401  19.536   6.156  0.00  0.00     0.157 HD
HETATM   16  H   UNK N   1      26.360  20.916   6.447  0.00  0.00     0.157 HD
ENDBRANCH  13  14
TORSDOF 1
ENDMDL
MODEL 6
REMARK VINA RESULT:      -4.4     22.309     22.922
REMARK  1 active torsions:
REMARK  status: ('A' for Active; 'I' for Inactive)
REMARK    1  A    between atoms: C_13  and  N_14 
ROOT
HETATM    1  C   UNK N   1      42.756  18.497   2.707  0.00  0.00     0.158 C 
HETATM    2  N   UNK N   1      43.421  19.781   2.843  0.00  0.00    -0.332 N 
HETATM    3  C   UNK N   1      44.712  19.954   3.221  0.00  0.00     0.184 A 
HETATM    4  N   UNK N   1      45.046  21.273   3.258  0.00  0.00    -0.346 N 
ATOM      5  HN  UNK N   1      45.945  21.683   3.507  1.00  0.00     0.167 HD
HETATM    6  C   UNK N   1      43.921  21.914   2.891  0.00  0.00     0.122 A 
HETATM    7  C   UNK N   1      42.940  21.020   2.640  0.00  0.00     0.142 A 
HETATM    8  N   UNK N   1      41.690  21.414   2.251  0.00  0.00    -0.332 N 
HETATM    9  C   UNK N   1      40.616  20.474   1.979  0.00  0.00     0.158 C 
HETATM   10  C   UNK N   1      41.453  22.756   2.114  0.00  0.00     0.185 A 
HETATM   11  N   UNK N   1      42.445  23.672   2.368  0.00  0.00    -0.337 N 
ATOM     12  HN  UNK N   1      42.249  24.667   2.262  1.00  0.00     0.168 HD
HETATM   13  C   UNK N   1      43.689  23.269   2.759  0.00  0.00     0.131 A 
ENDROOT
BRANCH  13  14
HETATM   14  N   UNK N   1      44.702  24.211   3.023  0.00  0.00    -0.383 N 
HETATM   15  H   UNK N   1      45.033  24.794   2.302  0.00  0.00     0.157 HD
HETATM   16  H   UNK N   1      45.079  24.288   3.930  0.00  0.00     0.157 HD
ENDBRANCH  13  14
TORSDOF 1
ENDMDL
MODEL 7
REMARK VINA RESULT:      -4.3      9.699     11.199
REMARK  1 active torsions:
REMARK  status: ('A' for Active; 'I' for Inactive)
REMARK    1  A    between atoms: C_13  and  N_14 
ROOT
HETATM    1  C   UNK N   1      32.587  16.120   6.577  0.00  0.00     0.158 C 
HETATM    2  N   UNK N   1      31.553  16.777   7.357  0.00  0.00    -0.332 N 
HETATM    3  C   UNK N   1      31.770  17.519   8.472  0.00  0.00     0.184 A 
HETATM    4  N   UNK N   1      30.604  18.003   8.980  0.00  0.00    -0.346 N 
ATOM      5  HN  UNK N   1      30.478  18.586   9.807  1.00  0.00     0.167 HD
HETATM    6  C   UNK N   1      29.656  17.538   8.147  0.00  0.00     0.122 A 
HETATM    7  C   UNK N   1      30.222  16.800   7.168  0.00  0.00     0.142 A 
HETATM    8  N   UNK N   1      29.474  16.209   6.189  0.00  0.00    -0.332 N 
HETATM    9  C   UNK N   1      30.057  15.406   5.127  0.00  0.00     0.158 C 
HETATM   10  C   UNK N   1      28.116  16.388   6.221  0.00  0.00     0.185 A 
HETATM   11  N   UNK N   1      27.532  17.136   7.213  0.00  0.00    -0.337 N 
ATOM     12  HN  UNK N   1      26.519  17.258   7.221  1.00  0.00     0.168 HD
HETATM   13  C   UNK N   1      28.288  17.721   8.189  0.00  0.00     0.131 A 
ENDROOT
BRANCH  13  14
HETATM   14  N   UNK N   1      27.684  18.484   9.207  0.00  0.00    -0.383 N 
HETATM   15  H   UNK N   1      28.072  19.349   9.470  0.00  0.00     0.157 HD
HETATM   16  H   UNK N   1      26.873  18.151   9.656  0.00  0.00     0.157 HD
ENDBRANCH  13  14
TORSDOF 1
ENDMDL
MODEL 8
REMARK VINA RESULT:      -4.3      1.728      3.500
REMARK  1 active torsions:
REMARK  status: ('A' for Active; 'I' for Inactive)
REMARK    1  A    between atoms: C_13  and  N_14 
ROOT
HETATM    1  C   UNK N   1      21.708  18.615   4.520  0.00  0.00     0.158 C 
HETATM    2  N   UNK N   1      20.825  18.282   3.416  0.00  0.00    -0.332 N 
HETATM    3  C   UNK N   1      19.779  19.038   3.000  0.00  0.00     0.184 A 
HETATM    4  N   UNK N   1      19.140  18.463   1.944  0.00  0.00    -0.346 N 
ATOM      5  HN  UNK N   1      18.328  18.814   1.438  1.00  0.00     0.167 HD
HETATM    6  C   UNK N   1      19.823  17.325   1.719  0.00  0.00     0.122 A 
HETATM    7  C   UNK N   1      20.838  17.212   2.602  0.00  0.00     0.142 A 
HETATM    8  N   UNK N   1      21.687  16.141   2.590  0.00  0.00    -0.332 N 
HETATM    9  C   UNK N   1      22.783  15.992   3.531  0.00  0.00     0.158 C 
HETATM   10  C   UNK N   1      21.483  15.171   1.643  0.00  0.00     0.185 A 
HETATM   11  N   UNK N   1      20.453  15.278   0.742  0.00  0.00    -0.337 N 
ATOM     12  HN  UNK N   1      20.317  14.545   0.046  1.00  0.00     0.168 HD
HETATM   13  C   UNK N   1      19.609  16.351   0.763  0.00  0.00     0.131 A 
ENDROOT
BRANCH  13  14
HETATM   14  N   UNK N   1      18.550  16.454  -0.160  0.00  0.00    -0.383 N 
HETATM   15  H   UNK N   1      17.619  16.453   0.157  0.00  0.00     0.157 HD
HETATM   16  H   UNK N   1      18.742  16.527  -1.123  0.00  0.00     0.157 HD
ENDBRANCH  13  14
TORSDOF 1
ENDMDL
MODEL 9
REMARK VINA RESULT:      -4.2     19.194     20.064
REMARK  1 active torsions:
REMARK  status: ('A' for Active; 'I' for Inactive)
REMARK    1  A    between atoms: C_13  and  N_14 
ROOT
HETATM    1  C   UNK N   1      35.035  10.616  11.661  0.00  0.00     0.158 C 
HETATM    2  N   UNK N   1      35.718  11.722  12.307  0.00  0.00    -0.332 N 
HETATM    3  C   UNK N   1      36.695  12.473  11.740  0.00  0.00     0.184 A 
HETATM    4  N   UNK N   1      37.141  13.434  12.594  0.00  0.00    -0.346 N 
ATOM      5  HN  UNK N   1      37.865  14.132  12.426  1.00  0.00     0.167 HD
HETATM    6  C   UNK N   1      36.410  13.257  13.710  0.00  0.00     0.122 A 
HETATM    7  C   UNK N   1      35.552  12.227  13.542  0.00  0.00     0.142 A 
HETATM    8  N   UNK N   1      34.695  11.837  14.532  0.00  0.00    -0.332 N 
HETATM    9  C   UNK N   1      33.765  10.730  14.379  0.00  0.00     0.158 C 
HETATM   10  C   UNK N   1      34.723  12.527  15.715  0.00  0.00     0.185 A 
HETATM   11  N   UNK N   1      35.593  13.574  15.895  0.00  0.00    -0.337 N 
ATOM     12  HN  UNK N   1      35.599  14.075  16.783  1.00  0.00     0.168 HD
HETATM   13  C   UNK N   1      36.447  13.956  14.901  0.00  0.00     0.131 A 
ENDROOT
BRANCH  13  14
HETATM   14  N   UNK N   1      37.341  15.027  15.091  0.00  0.00    -0.383 N 
HETATM   15  H   UNK N   1      37.210  15.870  14.601  0.00  0.00     0.157 HD
HETATM   16  H   UNK N   1      38.097  14.933  15.715  0.00  0.00     0.157 HD
ENDBRANCH  13  14
TORSDOF 1
ENDMDL
