MODEL 1
REMARK VINA RESULT:      -7.8      0.000      0.000
REMARK  12 active torsions:
REMARK  status: ('A' for Active; 'I' for Inactive)
REMARK    1  A    between atoms: C_4  and  C_1 
REMARK    2  A    between atoms: O_28  and  C_1 
REMARK    3  A    between atoms: P_30  and  C_3 
REMARK    4  A    between atoms: P_31  and  C_3 
REMARK    5  A    between atoms: C_6  and  O_20 
REMARK    6  A    between atoms: C_7  and  O_21 
REMARK    7  A    between atoms: O_22  and  C_9 
REMARK    8  A    between atoms: C_10  and  N_19 
REMARK       I    between atoms: N_12  and  C_11 
REMARK    9  A    between atoms: P_30  and  O_23 
REMARK   10  A    between atoms: P_30  and  O_24 
REMARK   11  A    between atoms: P_31  and  O_26 
REMARK   12  A    between atoms: P_31  and  O_28 
ROOT
HETATM    1  C   UNK N   1      35.111  13.318  12.919  0.00  0.00     0.179 C 
HETATM    2  C   UNK N   1      36.351  12.504  12.521  0.00  0.00     0.182 C 
HETATM    3  C   UNK N   1      36.484  11.550  13.712  0.00  0.00     0.198 C 
HETATM    4  C   UNK N   1      35.198  11.824  14.486  0.00  0.00     0.262 C 
HETATM    5  O   UNK N   1      34.996  13.212  14.314  0.00  0.00    -0.353 OA
ENDROOT
BRANCH   4   6
HETATM    6  N   UNK N   1      35.189  11.473  15.906  0.00  0.00    -0.297 N 
HETATM    7  C   UNK N   1      35.153  10.194  16.361  0.00  0.00     0.188 A 
HETATM    8  N   UNK N   1      35.163  10.144  17.720  0.00  0.00    -0.346 N 
HETATM    9  C   UNK N   1      35.220  11.430  18.096  0.00  0.00     0.130 A 
ATOM     10  HN  UNK N   1      35.134   9.317  18.317  1.00  0.00     0.167 HD
HETATM   11  C   UNK N   1      35.237  12.233  17.012  0.00  0.00     0.157 A 
HETATM   12  C   UNK N   1      35.270  11.976  19.366  0.00  0.00     0.186 A 
HETATM   13  N   UNK N   1      35.318  13.580  17.108  0.00  0.00    -0.174 N 
HETATM   14  C   UNK N   1      35.377  14.136  18.359  0.00  0.00     0.679 A 
HETATM   15  H   UNK N   1      35.335  14.144  16.302  0.00  0.00     0.186 HD
HETATM   16  N   UNK N   1      35.463  15.403  18.489  0.00  0.00    -0.234 N 
HETATM   17  N   UNK N   1      35.349  13.333  19.477  0.00  0.00    -0.168 N 
HETATM   18  H   UNK N   1      35.385  15.988  17.701  0.00  0.00     0.174 HD
ATOM     19  HN  UNK N   1      35.614  15.810  19.411  1.00  0.00     0.174 HD
ATOM     20  HN  UNK N   1      35.388  13.761  20.402  1.00  0.00     0.186 HD
BRANCH  12  21
HETATM   21  O   UNK N   1      35.248  11.195  20.459  0.00  0.00    -0.344 OA
HETATM   22  H   UNK N   1      34.453  10.770  20.715  0.00  0.00     0.219 HD
ENDBRANCH  12  21
ENDBRANCH   4   6
BRANCH   3  23
HETATM   23  O   UNK N   1      36.620  10.214  13.329  0.00  0.00    -0.388 OA
HETATM   24  H   UNK N   1      36.344   9.582  12.646  0.00  0.00     0.210 HD
ENDBRANCH   3  23
BRANCH   2  25
HETATM   25  O   UNK N   1      37.491  13.312  12.447  0.00  0.00    -0.390 OA
HETATM   26  H   UNK N   1      38.372  13.564  12.127  0.00  0.00     0.210 HD
ENDBRANCH   2  25
BRANCH   1  27
HETATM   27  C   UNK N   1      35.032  14.754  12.399  0.00  0.00     0.213 C 
BRANCH  27  28
HETATM   28  O   UNK N   1      34.459  14.798  11.117  0.00  0.00    -0.316 OA
BRANCH  28  29
HETATM   29  P   UNK N   1      35.418  15.865  10.103  0.00  0.00     0.249 P 
HETATM   30  O   UNK N   1      35.183  17.281  10.695  0.00  0.00    -0.653 OA
BRANCH  29  31
HETATM   31  C   UNK N   1      34.863  16.029   8.344  0.00  0.00     0.249 C 
BRANCH  31  32
HETATM   32  P   UNK N   1      34.306  17.776   8.015  0.00  0.00     0.247 P 
HETATM   33  O   UNK N   1      32.841  18.098   8.429  0.00  0.00    -0.653 OA
BRANCH  32  34
HETATM   34  O   UNK N   1      35.271  19.126   8.535  0.00  0.00    -0.329 OA
HETATM   35  H   UNK N   1      35.007  20.038   8.726  0.00  0.00     0.220 HD
ENDBRANCH  32  34
BRANCH  32  36
HETATM   36  O   UNK N   1      34.245  17.934   6.299  0.00  0.00    -0.329 OA
HETATM   37  H   UNK N   1      34.604  18.242   5.453  0.00  0.00     0.220 HD
ENDBRANCH  32  36
ENDBRANCH  31  32
ENDBRANCH  29  31
BRANCH  29  38
HETATM   38  O   UNK N   1      37.115  15.583  10.361  0.00  0.00    -0.329 OA
HETATM   39  H   UNK N   1      37.772  16.107   9.876  0.00  0.00     0.220 HD
ENDBRANCH  29  38
ENDBRANCH  28  29
ENDBRANCH  27  28
ENDBRANCH   1  27
TORSDOF 12
ENDMDL
MODEL 2
REMARK VINA RESULT:      -7.7      8.731     12.829
REMARK  12 active torsions:
REMARK  status: ('A' for Active; 'I' for Inactive)
REMARK    1  A    between atoms: C_4  and  C_1 
REMARK    2  A    between atoms: O_28  and  C_1 
REMARK    3  A    between atoms: P_30  and  C_3 
REMARK    4  A    between atoms: P_31  and  C_3 
REMARK    5  A    between atoms: C_6  and  O_20 
REMARK    6  A    between atoms: C_7  and  O_21 
REMARK    7  A    between atoms: O_22  and  C_9 
REMARK    8  A    between atoms: C_10  and  N_19 
REMARK       I    between atoms: N_12  and  C_11 
REMARK    9  A    between atoms: P_30  and  O_23 
REMARK   10  A    between atoms: P_30  and  O_24 
REMARK   11  A    between atoms: P_31  and  O_26 
REMARK   12  A    between atoms: P_31  and  O_28 
ROOT
HETATM    1  C   UNK N   1      30.266  17.210   7.867  0.00  0.00     0.179 C 
HETATM    2  C   UNK N   1      29.605  18.055   8.967  0.00  0.00     0.182 C 
HETATM    3  C   UNK N   1      28.482  18.745   8.187  0.00  0.00     0.198 C 
HETATM    4  C   UNK N   1      28.546  18.036   6.838  0.00  0.00     0.262 C 
HETATM    5  O   UNK N   1      29.929  17.814   6.645  0.00  0.00    -0.353 OA
ENDROOT
BRANCH   4   6
HETATM    6  N   UNK N   1      27.971  18.736   5.690  0.00  0.00    -0.297 N 
HETATM    7  C   UNK N   1      28.694  19.529   4.858  0.00  0.00     0.188 A 
HETATM    8  N   UNK N   1      27.923  20.052   3.867  0.00  0.00    -0.346 N 
HETATM    9  C   UNK N   1      26.702  19.548   4.100  0.00  0.00     0.130 A 
ATOM     10  HN  UNK N   1      28.208  20.682   3.118  1.00  0.00     0.167 HD
HETATM   11  C   UNK N   1      26.724  18.757   5.192  0.00  0.00     0.157 A 
HETATM   12  C   UNK N   1      25.525  19.728   3.396  0.00  0.00     0.186 A 
HETATM   13  N   UNK N   1      25.627  18.101   5.635  0.00  0.00    -0.174 N 
HETATM   14  C   UNK N   1      24.455  18.262   4.944  0.00  0.00     0.679 A 
HETATM   15  H   UNK N   1      25.670  17.525   6.431  0.00  0.00     0.186 HD
HETATM   16  N   UNK N   1      23.401  17.652   5.327  0.00  0.00    -0.234 N 
HETATM   17  N   UNK N   1      24.411  19.075   3.834  0.00  0.00    -0.168 N 
HETATM   18  H   UNK N   1      23.400  17.149   6.174  0.00  0.00     0.174 HD
ATOM     19  HN  UNK N   1      22.558  17.686   4.755  1.00  0.00     0.174 HD
ATOM     20  HN  UNK N   1      23.530  19.190   3.331  1.00  0.00     0.186 HD
BRANCH  12  21
HETATM   21  O   UNK N   1      25.480  20.517   2.309  0.00  0.00    -0.344 OA
HETATM   22  H   UNK N   1      25.189  21.405   2.387  0.00  0.00     0.219 HD
ENDBRANCH  12  21
ENDBRANCH   4   6
BRANCH   3  23
HETATM   23  O   UNK N   1      27.236  18.631   8.808  0.00  0.00    -0.388 OA
HETATM   24  H   UNK N   1      26.573  17.975   9.077  0.00  0.00     0.210 HD
ENDBRANCH   3  23
BRANCH   2  25
HETATM   25  O   UNK N   1      30.484  19.024   9.465  0.00  0.00    -0.390 OA
HETATM   26  H   UNK N   1      30.803  19.674  10.110  0.00  0.00     0.210 HD
ENDBRANCH   2  25
BRANCH   1  27
HETATM   27  C   UNK N   1      31.760  16.920   8.023  0.00  0.00     0.213 C 
BRANCH  27  28
HETATM   28  O   UNK N   1      32.514  18.104   7.960  0.00  0.00    -0.316 OA
BRANCH  28  29
HETATM   29  P   UNK N   1      34.216  17.684   7.836  0.00  0.00     0.249 P 
HETATM   30  O   UNK N   1      34.514  17.711   6.313  0.00  0.00    -0.653 OA
BRANCH  29  31
HETATM   31  C   UNK N   1      34.664  15.959   8.339  0.00  0.00     0.249 C 
BRANCH  31  32
HETATM   32  P   UNK N   1      34.892  15.876  10.187  0.00  0.00     0.247 P 
HETATM   33  O   UNK N   1      35.229  17.228  10.878  0.00  0.00    -0.653 OA
BRANCH  32  34
HETATM   34  O   UNK N   1      33.708  15.093  11.190  0.00  0.00    -0.329 OA
HETATM   35  H   UNK N   1      33.568  14.150  11.363  0.00  0.00     0.220 HD
ENDBRANCH  32  34
BRANCH  32  36
HETATM   36  O   UNK N   1      36.333  14.964  10.442  0.00  0.00    -0.329 OA
HETATM   37  H   UNK N   1      37.254  14.879  10.732  0.00  0.00     0.220 HD
ENDBRANCH  32  36
ENDBRANCH  31  32
ENDBRANCH  29  31
BRANCH  29  38
HETATM   38  O   UNK N   1      35.205  18.963   8.477  0.00  0.00    -0.329 OA
HETATM   39  H   UNK N   1      35.403  18.994   9.426  0.00  0.00     0.220 HD
ENDBRANCH  29  38
ENDBRANCH  28  29
ENDBRANCH  27  28
ENDBRANCH   1  27
TORSDOF 12
ENDMDL
MODEL 3
REMARK VINA RESULT:      -7.7      1.066      2.050
REMARK  12 active torsions:
REMARK  status: ('A' for Active; 'I' for Inactive)
REMARK    1  A    between atoms: C_4  and  C_1 
REMARK    2  A    between atoms: O_28  and  C_1 
REMARK    3  A    between atoms: P_30  and  C_3 
REMARK    4  A    between atoms: P_31  and  C_3 
REMARK    5  A    between atoms: C_6  and  O_20 
REMARK    6  A    between atoms: C_7  and  O_21 
REMARK    7  A    between atoms: O_22  and  C_9 
REMARK    8  A    between atoms: C_10  and  N_19 
REMARK       I    between atoms: N_12  and  C_11 
REMARK    9  A    between atoms: P_30  and  O_23 
REMARK   10  A    between atoms: P_30  and  O_24 
REMARK   11  A    between atoms: P_31  and  O_26 
REMARK   12  A    between atoms: P_31  and  O_28 
ROOT
HETATM    1  C   UNK N   1      35.270  12.646  12.377  0.00  0.00     0.179 C 
HETATM    2  C   UNK N   1      36.767  12.305  12.440  0.00  0.00     0.182 C 
HETATM    3  C   UNK N   1      36.968  12.093  13.943  0.00  0.00     0.198 C 
HETATM    4  C   UNK N   1      35.537  12.137  14.467  0.00  0.00     0.262 C 
HETATM    5  O   UNK N   1      34.915  13.111  13.653  0.00  0.00    -0.353 OA
ENDROOT
BRANCH   4   6
HETATM    6  N   UNK N   1      35.356  12.457  15.883  0.00  0.00    -0.297 N 
HETATM    7  C   UNK N   1      34.771  13.600  16.324  0.00  0.00     0.188 A 
HETATM    8  N   UNK N   1      34.718  13.646  17.682  0.00  0.00    -0.346 N 
HETATM    9  C   UNK N   1      35.276  12.490  18.073  0.00  0.00     0.130 A 
ATOM     10  HN  UNK N   1      34.340  14.389  18.270  1.00  0.00     0.167 HD
HETATM   11  C   UNK N   1      35.660  11.771  16.997  0.00  0.00     0.157 A 
HETATM   12  C   UNK N   1      35.474  11.993  19.348  0.00  0.00     0.186 A 
HETATM   13  N   UNK N   1      36.230  10.550  17.108  0.00  0.00    -0.174 N 
HETATM   14  C   UNK N   1      36.426  10.038  18.364  0.00  0.00     0.679 A 
HETATM   15  H   UNK N   1      36.497  10.042  16.308  0.00  0.00     0.186 HD
HETATM   16  N   UNK N   1      36.953   8.885  18.508  0.00  0.00    -0.234 N 
HETATM   17  N   UNK N   1      36.050  10.763  19.473  0.00  0.00    -0.168 N 
HETATM   18  H   UNK N   1      37.313   8.404  17.727  0.00  0.00     0.174 HD
ATOM     19  HN  UNK N   1      37.001   8.460  19.432  1.00  0.00     0.174 HD
ATOM     20  HN  UNK N   1      36.206  10.373  20.403  1.00  0.00     0.186 HD
BRANCH  12  21
HETATM   21  O   UNK N   1      35.104  12.695  20.432  0.00  0.00    -0.344 OA
HETATM   22  H   UNK N   1      35.691  13.324  20.805  0.00  0.00     0.219 HD
ENDBRANCH  12  21
ENDBRANCH   4   6
BRANCH   3  23
HETATM   23  O   UNK N   1      37.626  10.898  14.243  0.00  0.00    -0.388 OA
HETATM   24  H   UNK N   1      37.705  10.220  14.933  0.00  0.00     0.210 HD
ENDBRANCH   3  23
BRANCH   2  25
HETATM   25  O   UNK N   1      37.554  13.382  12.015  0.00  0.00    -0.390 OA
HETATM   26  H   UNK N   1      38.378  13.885  11.918  0.00  0.00     0.210 HD
ENDBRANCH   2  25
BRANCH   1  27
HETATM   27  C   UNK N   1      34.817  13.558  11.237  0.00  0.00     0.213 C 
BRANCH  27  28
HETATM   28  O   UNK N   1      34.700  14.890  11.670  0.00  0.00    -0.316 OA
BRANCH  28  29
HETATM   29  P   UNK N   1      35.491  15.936  10.500  0.00  0.00     0.249 P 
HETATM   30  O   UNK N   1      35.200  17.375  11.005  0.00  0.00    -0.653 OA
BRANCH  29  31
HETATM   31  C   UNK N   1      34.782  15.921   8.790  0.00  0.00     0.249 C 
BRANCH  31  32
HETATM   32  P   UNK N   1      34.365  17.658   8.260  0.00  0.00     0.247 P 
HETATM   33  O   UNK N   1      32.882  18.080   8.469  0.00  0.00    -0.653 OA
BRANCH  32  34
HETATM   34  O   UNK N   1      35.336  19.001   8.786  0.00  0.00    -0.329 OA
HETATM   35  H   UNK N   1      36.110  19.015   9.369  0.00  0.00     0.220 HD
ENDBRANCH  32  34
BRANCH  32  36
HETATM   36  O   UNK N   1      34.513  17.675   6.543  0.00  0.00    -0.329 OA
HETATM   37  H   UNK N   1      34.555  18.133   5.689  0.00  0.00     0.220 HD
ENDBRANCH  32  36
ENDBRANCH  31  32
ENDBRANCH  29  31
BRANCH  29  38
HETATM   38  O   UNK N   1      37.219  15.792  10.628  0.00  0.00    -0.329 OA
HETATM   39  H   UNK N   1      37.625  14.920  10.756  0.00  0.00     0.220 HD
ENDBRANCH  29  38
ENDBRANCH  28  29
ENDBRANCH  27  28
ENDBRANCH   1  27
TORSDOF 12
ENDMDL
MODEL 4
REMARK VINA RESULT:      -7.6      8.198     11.753
REMARK  12 active torsions:
REMARK  status: ('A' for Active; 'I' for Inactive)
REMARK    1  A    between atoms: C_4  and  C_1 
REMARK    2  A    between atoms: O_28  and  C_1 
REMARK    3  A    between atoms: P_30  and  C_3 
REMARK    4  A    between atoms: P_31  and  C_3 
REMARK    5  A    between atoms: C_6  and  O_20 
REMARK    6  A    between atoms: C_7  and  O_21 
REMARK    7  A    between atoms: O_22  and  C_9 
REMARK    8  A    between atoms: C_10  and  N_19 
REMARK       I    between atoms: N_12  and  C_11 
REMARK    9  A    between atoms: P_30  and  O_23 
REMARK   10  A    between atoms: P_30  and  O_24 
REMARK   11  A    between atoms: P_31  and  O_26 
REMARK   12  A    between atoms: P_31  and  O_28 
ROOT
HETATM    1  C   UNK N   1      31.041  15.958   7.951  0.00  0.00     0.179 C 
HETATM    2  C   UNK N   1      31.110  17.115   8.960  0.00  0.00     0.182 C 
HETATM    3  C   UNK N   1      30.114  18.108   8.354  0.00  0.00     0.198 C 
HETATM    4  C   UNK N   1      29.488  17.287   7.230  0.00  0.00     0.262 C 
HETATM    5  O   UNK N   1      30.563  16.507   6.750  0.00  0.00    -0.353 OA
ENDROOT
BRANCH   4   6
HETATM    6  N   UNK N   1      28.859  18.028   6.137  0.00  0.00    -0.297 N 
HETATM    7  C   UNK N   1      29.088  17.763   4.825  0.00  0.00     0.188 A 
HETATM    8  N   UNK N   1      28.373  18.588   4.014  0.00  0.00    -0.346 N 
HETATM    9  C   UNK N   1      27.681  19.364   4.862  0.00  0.00     0.130 A 
ATOM     10  HN  UNK N   1      28.364  18.611   2.995  1.00  0.00     0.167 HD
HETATM   11  C   UNK N   1      27.968  19.032   6.138  0.00  0.00     0.157 A 
HETATM   12  C   UNK N   1      26.775  20.374   4.593  0.00  0.00     0.186 A 
HETATM   13  N   UNK N   1      27.386  19.644   7.194  0.00  0.00    -0.174 N 
HETATM   14  C   UNK N   1      26.479  20.641   6.946  0.00  0.00     0.679 A 
HETATM   15  H   UNK N   1      27.607  19.380   8.116  0.00  0.00     0.186 HD
HETATM   16  N   UNK N   1      25.904  21.236   7.917  0.00  0.00    -0.234 N 
HETATM   17  N   UNK N   1      26.184  21.001   5.650  0.00  0.00    -0.168 N 
HETATM   18  H   UNK N   1      26.182  21.053   8.845  0.00  0.00     0.174 HD
ATOM     19  HN  UNK N   1      25.154  21.901   7.734  1.00  0.00     0.174 HD
ATOM     20  HN  UNK N   1      25.511  21.749   5.479  1.00  0.00     0.186 HD
BRANCH  12  21
HETATM   21  O   UNK N   1      26.481  20.725   3.330  0.00  0.00    -0.344 OA
HETATM   22  H   UNK N   1      27.086  21.241   2.834  0.00  0.00     0.219 HD
ENDBRANCH  12  21
ENDBRANCH   4   6
BRANCH   3  23
HETATM   23  O   UNK N   1      29.178  18.576   9.279  0.00  0.00    -0.388 OA
HETATM   24  H   UNK N   1      28.442  18.281   9.838  0.00  0.00     0.210 HD
ENDBRANCH   3  23
BRANCH   2  25
HETATM   25  O   UNK N   1      32.383  17.695   8.985  0.00  0.00    -0.390 OA
HETATM   26  H   UNK N   1      33.292  17.808   9.305  0.00  0.00     0.210 HD
ENDBRANCH   2  25
BRANCH   1  27
HETATM   27  C   UNK N   1      32.302  15.109   7.786  0.00  0.00     0.213 C 
BRANCH  27  28
HETATM   28  O   UNK N   1      32.995  15.454   6.613  0.00  0.00    -0.316 OA
BRANCH  28  29
HETATM   29  P   UNK N   1      34.608  15.997   7.048  0.00  0.00     0.249 P 
HETATM   30  O   UNK N   1      35.481  15.655   5.811  0.00  0.00    -0.653 OA
BRANCH  29  31
HETATM   31  C   UNK N   1      35.429  15.076   8.429  0.00  0.00     0.249 C 
BRANCH  31  32
HETATM   32  P   UNK N   1      35.333  16.072  10.001  0.00  0.00     0.247 P 
HETATM   33  O   UNK N   1      35.206  17.610   9.808  0.00  0.00    -0.653 OA
BRANCH  32  34
HETATM   34  O   UNK N   1      34.208  15.641  11.255  0.00  0.00    -0.329 OA
HETATM   35  H   UNK N   1      33.928  16.143  12.035  0.00  0.00     0.220 HD
ENDBRANCH  32  34
BRANCH  32  36
HETATM   36  O   UNK N   1      36.879  15.922  10.748  0.00  0.00    -0.329 OA
HETATM   37  H   UNK N   1      37.845  16.008  10.746  0.00  0.00     0.220 HD
ENDBRANCH  32  36
ENDBRANCH  31  32
ENDBRANCH  29  31
BRANCH  29  38
HETATM   38  O   UNK N   1      34.664  17.733   7.130  0.00  0.00    -0.329 OA
HETATM   39  H   UNK N   1      33.965  18.261   6.711  0.00  0.00     0.220 HD
ENDBRANCH  29  38
ENDBRANCH  28  29
ENDBRANCH  27  28
ENDBRANCH   1  27
TORSDOF 12
ENDMDL
MODEL 5
REMARK VINA RESULT:      -7.5      7.347     10.863
REMARK  12 active torsions:
REMARK  status: ('A' for Active; 'I' for Inactive)
REMARK    1  A    between atoms: C_4  and  C_1 
REMARK    2  A    between atoms: O_28  and  C_1 
REMARK    3  A    between atoms: P_30  and  C_3 
REMARK    4  A    between atoms: P_31  and  C_3 
REMARK    5  A    between atoms: C_6  and  O_20 
REMARK    6  A    between atoms: C_7  and  O_21 
REMARK    7  A    between atoms: O_22  and  C_9 
REMARK    8  A    between atoms: C_10  and  N_19 
REMARK       I    between atoms: N_12  and  C_11 
REMARK    9  A    between atoms: P_30  and  O_23 
REMARK   10  A    between atoms: P_30  and  O_24 
REMARK   11  A    between atoms: P_31  and  O_26 
REMARK   12  A    between atoms: P_31  and  O_28 
ROOT
HETATM    1  C   UNK N   1      32.776  16.009   5.404  0.00  0.00     0.179 C 
HETATM    2  C   UNK N   1      32.017  14.674   5.430  0.00  0.00     0.182 C 
HETATM    3  C   UNK N   1      30.568  15.143   5.275  0.00  0.00     0.198 C 
HETATM    4  C   UNK N   1      30.743  16.629   4.978  0.00  0.00     0.262 C 
HETATM    5  O   UNK N   1      31.850  16.998   5.774  0.00  0.00    -0.353 OA
ENDROOT
BRANCH   4   6
HETATM    6  N   UNK N   1      29.600  17.501   5.248  0.00  0.00    -0.297 N 
HETATM    7  C   UNK N   1      28.742  17.929   4.286  0.00  0.00     0.188 A 
HETATM    8  N   UNK N   1      27.762  18.718   4.803  0.00  0.00    -0.346 N 
HETATM    9  C   UNK N   1      28.029  18.756   6.118  0.00  0.00     0.130 A 
ATOM     10  HN  UNK N   1      26.999  19.177   4.306  1.00  0.00     0.167 HD
HETATM   11  C   UNK N   1      29.130  18.026   6.391  0.00  0.00     0.157 A 
HETATM   12  C   UNK N   1      27.350  19.398   7.137  0.00  0.00     0.186 A 
HETATM   13  N   UNK N   1      29.606  17.875   7.648  0.00  0.00    -0.174 N 
HETATM   14  C   UNK N   1      28.940  18.497   8.671  0.00  0.00     0.679 A 
HETATM   15  H   UNK N   1      30.408  17.332   7.822  0.00  0.00     0.186 HD
HETATM   16  N   UNK N   1      29.354  18.370   9.871  0.00  0.00    -0.234 N 
HETATM   17  N   UNK N   1      27.821  19.256   8.409  0.00  0.00    -0.168 N 
HETATM   18  H   UNK N   1      30.207  17.912  10.055  0.00  0.00     0.174 HD
ATOM     19  HN  UNK N   1      28.802  18.743  10.642  1.00  0.00     0.174 HD
ATOM     20  HN  UNK N   1      27.338  19.718   9.179  1.00  0.00     0.186 HD
BRANCH  12  21
HETATM   21  O   UNK N   1      26.255  20.135   6.885  0.00  0.00    -0.344 OA
HETATM   22  H   UNK N   1      25.541  20.136   7.493  0.00  0.00     0.219 HD
ENDBRANCH  12  21
ENDBRANCH   4   6
BRANCH   3  23
HETATM   23  O   UNK N   1      29.877  14.460   4.271  0.00  0.00    -0.388 OA
HETATM   24  H   UNK N   1      29.445  13.613   4.081  0.00  0.00     0.210 HD
ENDBRANCH   3  23
BRANCH   2  25
HETATM   25  O   UNK N   1      32.164  14.026   6.662  0.00  0.00    -0.390 OA
HETATM   26  H   UNK N   1      32.391  13.967   7.604  0.00  0.00     0.210 HD
ENDBRANCH   2  25
BRANCH   1  27
HETATM   27  C   UNK N   1      34.092  16.071   6.180  0.00  0.00     0.213 C 
BRANCH  27  28
HETATM   28  O   UNK N   1      34.481  17.401   6.413  0.00  0.00    -0.316 OA
BRANCH  28  29
HETATM   29  P   UNK N   1      34.176  17.793   8.098  0.00  0.00     0.249 P 
HETATM   30  O   UNK N   1      35.005  19.080   8.356  0.00  0.00    -0.653 OA
BRANCH  29  31
HETATM   31  C   UNK N   1      34.837  16.591   9.343  0.00  0.00     0.249 C 
BRANCH  31  32
HETATM   32  P   UNK N   1      33.616  15.206   9.597  0.00  0.00     0.247 P 
HETATM   33  O   UNK N   1      32.148  15.530   9.198  0.00  0.00    -0.653 OA
BRANCH  32  34
HETATM   34  O   UNK N   1      33.949  13.611   8.991  0.00  0.00    -0.329 OA
HETATM   35  H   UNK N   1      33.336  12.899   8.751  0.00  0.00     0.220 HD
ENDBRANCH  32  34
BRANCH  32  36
HETATM   36  O   UNK N   1      33.495  14.995  11.304  0.00  0.00    -0.329 OA
HETATM   37  H   UNK N   1      33.677  15.265  12.217  0.00  0.00     0.220 HD
ENDBRANCH  32  36
ENDBRANCH  31  32
ENDBRANCH  29  31
BRANCH  29  38
HETATM   38  O   UNK N   1      32.529  18.309   8.314  0.00  0.00    -0.329 OA
HETATM   39  H   UNK N   1      31.825  17.650   8.420  0.00  0.00     0.220 HD
ENDBRANCH  29  38
ENDBRANCH  28  29
ENDBRANCH  27  28
ENDBRANCH   1  27
TORSDOF 12
ENDMDL
MODEL 6
REMARK VINA RESULT:      -7.3      2.959      4.948
REMARK  12 active torsions:
REMARK  status: ('A' for Active; 'I' for Inactive)
REMARK    1  A    between atoms: C_4  and  C_1 
REMARK    2  A    between atoms: O_28  and  C_1 
REMARK    3  A    between atoms: P_30  and  C_3 
REMARK    4  A    between atoms: P_31  and  C_3 
REMARK    5  A    between atoms: C_6  and  O_20 
REMARK    6  A    between atoms: C_7  and  O_21 
REMARK    7  A    between atoms: O_22  and  C_9 
REMARK    8  A    between atoms: C_10  and  N_19 
REMARK       I    between atoms: N_12  and  C_11 
REMARK    9  A    between atoms: P_30  and  O_23 
REMARK   10  A    between atoms: P_30  and  O_24 
REMARK   11  A    between atoms: P_31  and  O_26 
REMARK   12  A    between atoms: P_31  and  O_28 
ROOT
HETATM    1  C   UNK N   1      34.448  15.104   8.855  0.00  0.00     0.179 C 
HETATM    2  C   UNK N   1      35.133  16.331   9.476  0.00  0.00     0.182 C 
HETATM    3  C   UNK N   1      35.616  15.764  10.815  0.00  0.00     0.198 C 
HETATM    4  C   UNK N   1      35.322  14.276  10.658  0.00  0.00     0.262 C 
HETATM    5  O   UNK N   1      34.116  14.253   9.920  0.00  0.00    -0.353 OA
ENDROOT
BRANCH   4   6
HETATM    6  N   UNK N   1      35.192  13.490  11.884  0.00  0.00    -0.297 N 
HETATM    7  C   UNK N   1      34.527  12.308  11.949  0.00  0.00     0.188 A 
HETATM    8  N   UNK N   1      34.564  11.780  13.201  0.00  0.00    -0.346 N 
HETATM    9  C   UNK N   1      35.284  12.662  13.910  0.00  0.00     0.130 A 
ATOM     10  HN  UNK N   1      34.141  10.910  13.528  1.00  0.00     0.167 HD
HETATM   11  C   UNK N   1      35.665  13.691  13.125  0.00  0.00     0.157 A 
HETATM   12  C   UNK N   1      35.656  12.629  15.242  0.00  0.00     0.186 A 
HETATM   13  N   UNK N   1      36.426  14.710  13.584  0.00  0.00    -0.174 N 
HETATM   14  C   UNK N   1      36.810  14.689  14.900  0.00  0.00     0.679 A 
HETATM   15  H   UNK N   1      36.695  15.447  12.990  0.00  0.00     0.186 HD
HETATM   16  N   UNK N   1      37.535  15.630  15.366  0.00  0.00    -0.234 N 
HETATM   17  N   UNK N   1      36.421  13.653  15.718  0.00  0.00    -0.168 N 
HETATM   18  H   UNK N   1      37.735  16.421  14.815  0.00  0.00     0.174 HD
ATOM     19  HN  UNK N   1      37.909  15.561  16.312  1.00  0.00     0.174 HD
ATOM     20  HN  UNK N   1      36.710  13.652  16.697  1.00  0.00     0.186 HD
BRANCH  12  21
HETATM   21  O   UNK N   1      35.282  11.617  16.042  0.00  0.00    -0.344 OA
HETATM   22  H   UNK N   1      34.386  11.344  16.065  0.00  0.00     0.219 HD
ENDBRANCH  12  21
ENDBRANCH   4   6
BRANCH   3  23
HETATM   23  O   UNK N   1      36.963  16.034  11.067  0.00  0.00    -0.388 OA
HETATM   24  H   UNK N   1      37.549  16.471  11.706  0.00  0.00     0.210 HD
ENDBRANCH   3  23
BRANCH   2  25
HETATM   25  O   UNK N   1      34.217  17.362   9.714  0.00  0.00    -0.390 OA
HETATM   26  H   UNK N   1      33.818  18.235   9.572  0.00  0.00     0.210 HD
ENDBRANCH   2  25
BRANCH   1  27
HETATM   27  C   UNK N   1      33.290  15.374   7.893  0.00  0.00     0.213 C 
BRANCH  27  28
HETATM   28  O   UNK N   1      32.133  15.760   8.589  0.00  0.00    -0.316 OA
BRANCH  28  29
HETATM   29  P   UNK N   1      31.365  17.081   7.722  0.00  0.00     0.249 P 
HETATM   30  O   UNK N   1      31.817  18.359   8.479  0.00  0.00    -0.653 OA
BRANCH  29  31
HETATM   31  C   UNK N   1      29.517  17.147   7.818  0.00  0.00     0.249 C 
BRANCH  31  32
HETATM   32  P   UNK N   1      28.987  17.675   9.524  0.00  0.00     0.247 P 
HETATM   33  O   UNK N   1      28.811  16.522  10.554  0.00  0.00    -0.653 OA
BRANCH  32  34
HETATM   34  O   UNK N   1      29.826  18.951  10.356  0.00  0.00    -0.329 OA
HETATM   35  H   UNK N   1      29.708  19.911  10.297  0.00  0.00     0.220 HD
ENDBRANCH  32  34
BRANCH  32  36
HETATM   36  O   UNK N   1      27.377  18.266   9.355  0.00  0.00    -0.329 OA
HETATM   37  H   UNK N   1      26.462  18.363   9.661  0.00  0.00     0.220 HD
ENDBRANCH  32  36
ENDBRANCH  31  32
ENDBRANCH  29  31
BRANCH  29  38
HETATM   38  O   UNK N   1      32.070  17.261   6.143  0.00  0.00    -0.329 OA
HETATM   39  H   UNK N   1      32.807  16.691   5.873  0.00  0.00     0.220 HD
ENDBRANCH  29  38
ENDBRANCH  28  29
ENDBRANCH  27  28
ENDBRANCH   1  27
TORSDOF 12
ENDMDL
MODEL 7
REMARK VINA RESULT:      -7.1      6.196     10.356
REMARK  12 active torsions:
REMARK  status: ('A' for Active; 'I' for Inactive)
REMARK    1  A    between atoms: C_4  and  C_1 
REMARK    2  A    between atoms: O_28  and  C_1 
REMARK    3  A    between atoms: P_30  and  C_3 
REMARK    4  A    between atoms: P_31  and  C_3 
REMARK    5  A    between atoms: C_6  and  O_20 
REMARK    6  A    between atoms: C_7  and  O_21 
REMARK    7  A    between atoms: O_22  and  C_9 
REMARK    8  A    between atoms: C_10  and  N_19 
REMARK       I    between atoms: N_12  and  C_11 
REMARK    9  A    between atoms: P_30  and  O_23 
REMARK   10  A    between atoms: P_30  and  O_24 
REMARK   11  A    between atoms: P_31  and  O_26 
REMARK   12  A    between atoms: P_31  and  O_28 
ROOT
HETATM    1  C   UNK N   1      33.596  15.857   9.312  0.00  0.00     0.179 C 
HETATM    2  C   UNK N   1      34.738  16.201   8.343  0.00  0.00     0.182 C 
HETATM    3  C   UNK N   1      33.973  16.873   7.199  0.00  0.00     0.198 C 
HETATM    4  C   UNK N   1      32.568  16.994   7.780  0.00  0.00     0.262 C 
HETATM    5  O   UNK N   1      32.422  15.814   8.543  0.00  0.00    -0.353 OA
ENDROOT
BRANCH   4   6
HETATM    6  N   UNK N   1      31.465  17.134   6.829  0.00  0.00    -0.297 N 
HETATM    7  C   UNK N   1      31.581  16.866   5.503  0.00  0.00     0.188 A 
HETATM    8  N   UNK N   1      30.408  17.066   4.846  0.00  0.00    -0.346 N 
HETATM    9  C   UNK N   1      29.554  17.453   5.806  0.00  0.00     0.130 A 
ATOM     10  HN  UNK N   1      30.219  16.949   3.850  1.00  0.00     0.167 HD
HETATM   11  C   UNK N   1      30.183  17.495   6.999  0.00  0.00     0.157 A 
HETATM   12  C   UNK N   1      28.213  17.776   5.715  0.00  0.00     0.186 A 
HETATM   13  N   UNK N   1      29.544  17.830   8.143  0.00  0.00    -0.174 N 
HETATM   14  C   UNK N   1      28.212  18.145   8.072  0.00  0.00     0.679 A 
HETATM   15  H   UNK N   1      30.024  17.848   9.003  0.00  0.00     0.186 HD
HETATM   16  N   UNK N   1      27.575  18.458   9.132  0.00  0.00    -0.234 N 
HETATM   17  N   UNK N   1      27.558  18.119   6.862  0.00  0.00    -0.168 N 
HETATM   18  H   UNK N   1      28.056  18.574   9.984  0.00  0.00     0.174 HD
ATOM     19  HN  UNK N   1      26.565  18.588   9.098  1.00  0.00     0.174 HD
ATOM     20  HN  UNK N   1      26.568  18.360   6.822  1.00  0.00     0.186 HD
BRANCH  12  21
HETATM   21  O   UNK N   1      27.570  17.747   4.536  0.00  0.00    -0.344 OA
HETATM   22  H   UNK N   1      26.947  18.415   4.325  0.00  0.00     0.219 HD
ENDBRANCH  12  21
ENDBRANCH   4   6
BRANCH   3  23
HETATM   23  O   UNK N   1      34.520  18.103   6.825  0.00  0.00    -0.388 OA
HETATM   24  H   UNK N   1      34.981  18.877   7.187  0.00  0.00     0.210 HD
ENDBRANCH   3  23
BRANCH   2  25
HETATM   25  O   UNK N   1      35.367  15.047   7.864  0.00  0.00    -0.390 OA
HETATM   26  H   UNK N   1      35.858  14.517   7.216  0.00  0.00     0.210 HD
ENDBRANCH   2  25
BRANCH   1  27
HETATM   27  C   UNK N   1      33.796  14.633  10.207  0.00  0.00     0.213 C 
BRANCH  27  28
HETATM   28  O   UNK N   1      34.160  15.013  11.510  0.00  0.00    -0.316 OA
BRANCH  28  29
HETATM   29  P   UNK N   1      35.888  14.766  11.709  0.00  0.00     0.249 P 
HETATM   30  O   UNK N   1      36.224  13.581  10.765  0.00  0.00    -0.653 OA
BRANCH  29  31
HETATM   31  C   UNK N   1      36.435  14.167  13.374  0.00  0.00     0.249 C 
BRANCH  31  32
HETATM   32  P   UNK N   1      35.388  12.719  13.903  0.00  0.00     0.247 P 
HETATM   33  O   UNK N   1      36.171  11.414  14.227  0.00  0.00    -0.653 OA
BRANCH  32  34
HETATM   34  O   UNK N   1      34.195  12.899  15.155  0.00  0.00    -0.329 OA
HETATM   35  H   UNK N   1      33.304  12.524  15.220  0.00  0.00     0.220 HD
ENDBRANCH  32  34
BRANCH  32  36
HETATM   36  O   UNK N   1      34.477  12.264  12.512  0.00  0.00    -0.329 OA
HETATM   37  H   UNK N   1      33.704  12.336  11.931  0.00  0.00     0.220 HD
ENDBRANCH  32  36
ENDBRANCH  31  32
ENDBRANCH  29  31
BRANCH  29  38
HETATM   38  O   UNK N   1      36.774  16.101  11.033  0.00  0.00    -0.329 OA
HETATM   39  H   UNK N   1      36.765  16.963  11.478  0.00  0.00     0.220 HD
ENDBRANCH  29  38
ENDBRANCH  28  29
ENDBRANCH  27  28
ENDBRANCH   1  27
TORSDOF 12
ENDMDL
MODEL 8
REMARK VINA RESULT:      -7.1      6.738     10.835
REMARK  12 active torsions:
REMARK  status: ('A' for Active; 'I' for Inactive)
REMARK    1  A    between atoms: C_4  and  C_1 
REMARK    2  A    between atoms: O_28  and  C_1 
REMARK    3  A    between atoms: P_30  and  C_3 
REMARK    4  A    between atoms: P_31  and  C_3 
REMARK    5  A    between atoms: C_6  and  O_20 
REMARK    6  A    between atoms: C_7  and  O_21 
REMARK    7  A    between atoms: O_22  and  C_9 
REMARK    8  A    between atoms: C_10  and  N_19 
REMARK       I    between atoms: N_12  and  C_11 
REMARK    9  A    between atoms: P_30  and  O_23 
REMARK   10  A    between atoms: P_30  and  O_24 
REMARK   11  A    between atoms: P_31  and  O_26 
REMARK   12  A    between atoms: P_31  and  O_28 
ROOT
HETATM    1  C   UNK N   1      33.278  15.824   7.473  0.00  0.00     0.179 C 
HETATM    2  C   UNK N   1      32.574  14.459   7.506  0.00  0.00     0.182 C 
HETATM    3  C   UNK N   1      31.362  14.720   6.606  0.00  0.00     0.198 C 
HETATM    4  C   UNK N   1      31.674  16.102   6.042  0.00  0.00     0.262 C 
HETATM    5  O   UNK N   1      32.299  16.768   7.120  0.00  0.00    -0.353 OA
ENDROOT
BRANCH   4   6
HETATM    6  N   UNK N   1      30.545  16.885   5.538  0.00  0.00    -0.297 N 
HETATM    7  C   UNK N   1      30.303  17.083   4.216  0.00  0.00     0.188 A 
HETATM    8  N   UNK N   1      29.189  17.836   4.018  0.00  0.00    -0.346 N 
HETATM    9  C   UNK N   1      28.737  18.088   5.255  0.00  0.00     0.130 A 
ATOM     10  HN  UNK N   1      28.787  18.140   3.131  1.00  0.00     0.167 HD
HETATM   11  C   UNK N   1      29.547  17.519   6.172  0.00  0.00     0.157 A 
HETATM   12  C   UNK N   1      27.621  18.799   5.659  0.00  0.00     0.186 A 
HETATM   13  N   UNK N   1      29.305  17.598   7.501  0.00  0.00    -0.174 N 
HETATM   14  C   UNK N   1      28.199  18.291   7.918  0.00  0.00     0.679 A 
HETATM   15  H   UNK N   1      29.908  17.169   8.150  0.00  0.00     0.186 HD
HETATM   16  N   UNK N   1      27.935  18.379   9.163  0.00  0.00    -0.234 N 
HETATM   17  N   UNK N   1      27.368  18.888   6.997  0.00  0.00    -0.168 N 
HETATM   18  H   UNK N   1      28.575  18.040   9.831  0.00  0.00     0.174 HD
ATOM     19  HN  UNK N   1      27.059  18.801   9.467  1.00  0.00     0.174 HD
ATOM     20  HN  UNK N   1      26.551  19.405   7.320  1.00  0.00     0.186 HD
BRANCH  12  21
HETATM   21  O   UNK N   1      26.805  19.378   4.763  0.00  0.00    -0.344 OA
HETATM   22  H   UNK N   1      26.035  18.931   4.472  0.00  0.00     0.219 HD
ENDBRANCH  12  21
ENDBRANCH   4   6
BRANCH   3  23
HETATM   23  O   UNK N   1      31.198  13.748   5.617  0.00  0.00    -0.388 OA
HETATM   24  H   UNK N   1      31.614  13.396   4.814  0.00  0.00     0.210 HD
ENDBRANCH   3  23
BRANCH   2  25
HETATM   25  O   UNK N   1      32.132  14.144   8.796  0.00  0.00    -0.390 OA
HETATM   26  H   UNK N   1      31.468  14.008   9.490  0.00  0.00     0.210 HD
ENDBRANCH   2  25
BRANCH   1  27
HETATM   27  C   UNK N   1      34.094  16.210   8.707  0.00  0.00     0.213 C 
BRANCH  27  28
HETATM   28  O   UNK N   1      35.059  15.232   9.002  0.00  0.00    -0.316 OA
BRANCH  28  29
HETATM   29  P   UNK N   1      35.032  14.914  10.730  0.00  0.00     0.249 P 
HETATM   30  O   UNK N   1      35.605  16.206  11.373  0.00  0.00    -0.653 OA
BRANCH  29  31
HETATM   31  C   UNK N   1      36.174  13.584  11.328  0.00  0.00     0.249 C 
BRANCH  31  32
HETATM   32  P   UNK N   1      36.289  13.635  13.187  0.00  0.00     0.247 P 
HETATM   33  O   UNK N   1      37.053  12.447  13.839  0.00  0.00    -0.653 OA
BRANCH  32  34
HETATM   34  O   UNK N   1      36.828  15.072  14.001  0.00  0.00    -0.329 OA
HETATM   35  H   UNK N   1      36.793  15.301  14.942  0.00  0.00     0.220 HD
ENDBRANCH  32  34
BRANCH  32  36
HETATM   36  O   UNK N   1      34.681  13.398  13.763  0.00  0.00    -0.329 OA
HETATM   37  H   UNK N   1      33.718  13.449  13.665  0.00  0.00     0.220 HD
ENDBRANCH  32  36
ENDBRANCH  31  32
ENDBRANCH  29  31
BRANCH  29  38
HETATM   38  O   UNK N   1      33.394  14.852  11.310  0.00  0.00    -0.329 OA
HETATM   39  H   UNK N   1      32.715  14.385  10.798  0.00  0.00     0.220 HD
ENDBRANCH  29  38
ENDBRANCH  28  29
ENDBRANCH  27  28
ENDBRANCH   1  27
TORSDOF 12
ENDMDL
MODEL 9
REMARK VINA RESULT:      -6.9      5.508      9.688
REMARK  12 active torsions:
REMARK  status: ('A' for Active; 'I' for Inactive)
REMARK    1  A    between atoms: C_4  and  C_1 
REMARK    2  A    between atoms: O_28  and  C_1 
REMARK    3  A    between atoms: P_30  and  C_3 
REMARK    4  A    between atoms: P_31  and  C_3 
REMARK    5  A    between atoms: C_6  and  O_20 
REMARK    6  A    between atoms: C_7  and  O_21 
REMARK    7  A    between atoms: O_22  and  C_9 
REMARK    8  A    between atoms: C_10  and  N_19 
REMARK       I    between atoms: N_12  and  C_11 
REMARK    9  A    between atoms: P_30  and  O_23 
REMARK   10  A    between atoms: P_30  and  O_24 
REMARK   11  A    between atoms: P_31  and  O_26 
REMARK   12  A    between atoms: P_31  and  O_28 
ROOT
HETATM    1  C   UNK N   1      34.398  14.956  10.939  0.00  0.00     0.179 C 
HETATM    2  C   UNK N   1      35.589  15.817  10.493  0.00  0.00     0.182 C 
HETATM    3  C   UNK N   1      34.970  16.624   9.348  0.00  0.00     0.198 C 
HETATM    4  C   UNK N   1      33.494  16.255   9.459  0.00  0.00     0.262 C 
HETATM    5  O   UNK N   1      33.520  14.896   9.845  0.00  0.00    -0.353 OA
ENDROOT
BRANCH   4   6
HETATM    6  N   UNK N   1      32.672  16.436   8.263  0.00  0.00    -0.297 N 
HETATM    7  C   UNK N   1      33.046  16.016   7.027  0.00  0.00     0.188 A 
HETATM    8  N   UNK N   1      32.099  16.297   6.093  0.00  0.00    -0.346 N 
HETATM    9  C   UNK N   1      31.118  16.893   6.787  0.00  0.00     0.130 A 
ATOM     10  HN  UNK N   1      32.127  16.100   5.092  1.00  0.00     0.167 HD
HETATM   11  C   UNK N   1      31.456  16.979   8.091  0.00  0.00     0.157 A 
HETATM   12  C   UNK N   1      29.898  17.378   6.352  0.00  0.00     0.186 A 
HETATM   13  N   UNK N   1      30.632  17.516   9.019  0.00  0.00    -0.174 N 
HETATM   14  C   UNK N   1      29.416  17.993   8.606  0.00  0.00     0.679 A 
HETATM   15  H   UNK N   1      30.899  17.562   9.965  0.00  0.00     0.186 HD
HETATM   16  N   UNK N   1      28.608  18.499   9.455  0.00  0.00    -0.234 N 
HETATM   17  N   UNK N   1      29.059  17.925   7.278  0.00  0.00    -0.168 N 
HETATM   18  H   UNK N   1      28.894  18.641  10.387  0.00  0.00     0.174 HD
ATOM     19  HN  UNK N   1      27.665  18.756   9.168  1.00  0.00     0.174 HD
ATOM     20  HN  UNK N   1      28.153  18.289   6.983  1.00  0.00     0.186 HD
BRANCH  12  21
HETATM   21  O   UNK N   1      29.546  17.308   5.057  0.00  0.00    -0.344 OA
HETATM   22  H   UNK N   1      28.647  17.185   4.823  0.00  0.00     0.219 HD
ENDBRANCH  12  21
ENDBRANCH   4   6
BRANCH   3  23
HETATM   23  O   UNK N   1      35.203  17.997   9.460  0.00  0.00    -0.388 OA
HETATM   24  H   UNK N   1      34.916  18.853   9.104  0.00  0.00     0.210 HD
ENDBRANCH   3  23
BRANCH   2  25
HETATM   25  O   UNK N   1      36.631  15.028   9.992  0.00  0.00    -0.390 OA
HETATM   26  H   UNK N   1      37.480  14.869   9.550  0.00  0.00     0.210 HD
ENDBRANCH   2  25
BRANCH   1  27
HETATM   27  C   UNK N   1      34.723  13.590  11.548  0.00  0.00     0.213 C 
BRANCH  27  28
HETATM   28  O   UNK N   1      34.734  13.652  12.951  0.00  0.00    -0.316 OA
BRANCH  28  29
HETATM   29  P   UNK N   1      36.314  13.143  13.527  0.00  0.00     0.249 P 
HETATM   30  O   UNK N   1      36.202  11.601  13.662  0.00  0.00    -0.653 OA
BRANCH  29  31
HETATM   31  C   UNK N   1      36.772  13.699  15.233  0.00  0.00     0.249 C 
BRANCH  31  32
HETATM   32  P   UNK N   1      35.537  13.048  16.467  0.00  0.00     0.247 P 
HETATM   33  O   UNK N   1      35.799  11.599  16.970  0.00  0.00    -0.653 OA
BRANCH  32  34
HETATM   34  O   UNK N   1      35.107  13.984  17.867  0.00  0.00    -0.329 OA
HETATM   35  H   UNK N   1      35.674  14.473  18.483  0.00  0.00     0.220 HD
ENDBRANCH  32  34
BRANCH  32  36
HETATM   36  O   UNK N   1      34.056  12.874  15.602  0.00  0.00    -0.329 OA
HETATM   37  H   UNK N   1      33.129  13.102  15.433  0.00  0.00     0.220 HD
ENDBRANCH  32  36
ENDBRANCH  31  32
ENDBRANCH  29  31
BRANCH  29  38
HETATM   38  O   UNK N   1      37.513  13.367  12.288  0.00  0.00    -0.329 OA
HETATM   39  H   UNK N   1      38.329  12.842  12.302  0.00  0.00     0.220 HD
ENDBRANCH  29  38
ENDBRANCH  28  29
ENDBRANCH  27  28
ENDBRANCH   1  27
TORSDOF 12
ENDMDL
