MODEL 1
REMARK VINA RESULT:      -8.6      0.000      0.000
REMARK  10 active torsions:
REMARK  status: ('A' for Active; 'I' for Inactive)
REMARK    1  A    between atoms: C_17  and  C_14 
REMARK    2  A    between atoms: C_20  and  C_14 
REMARK    3  A    between atoms: C_19  and  N_29 
REMARK    4  A    between atoms: C_25  and  C_20 
REMARK    5  A    between atoms: C_20  and  N_31 
REMARK    6  A    between atoms: C_26  and  C_23 
REMARK    7  A    between atoms: S_40  and  C_24 
REMARK    8  A    between atoms: C_25  and  O_35 
REMARK    9  A    between atoms: C_26  and  O_36 
REMARK   10  A    between atoms: S_40  and  N_33 
ROOT
HETATM    1  C   UNK N   1      33.795  15.033  10.313  0.00  0.00     0.135 C 
HETATM    2  N   UNK N   1      34.301  14.560  11.421  0.00  0.00    -0.361 N 
ATOM      3  HN  UNK N   1      33.640  14.256  12.136  1.00  0.00     0.162 HD
ENDROOT
BRANCH   1   4
HETATM    4  C   UNK N   1      34.684  15.534   9.181  0.00  0.00     0.158 C 
BRANCH   4   5
HETATM    5  C   UNK N   1      35.231  14.797   7.965  0.00  0.00     0.037 C 
BRANCH   5   6
HETATM    6  C   UNK N   1      34.296  14.181   6.967  0.00  0.00    -0.020 C 
HETATM    7  C   UNK N   1      34.932  14.299   5.589  0.00  0.00     0.009 C 
HETATM    8  C   UNK N   1      34.273  12.714   7.326  0.00  0.00     0.009 C 
ENDBRANCH   5   6
ENDBRANCH   4   5
BRANCH   4   9
HETATM    9  N   UNK N   1      34.949  16.946   9.247  0.00  0.00    -0.357 N 
HETATM   10  C   UNK N   1      34.682  17.912   8.423  0.00  0.00     0.171 C 
ATOM     11  HN  UNK N   1      35.434  17.241  10.094  1.00  0.00     0.162 HD
BRANCH  10  12
HETATM   12  C   UNK N   1      33.796  17.829   7.238  0.00  0.00     0.127 A 
HETATM   13  C   UNK N   1      32.450  17.458   7.363  0.00  0.00     0.056 A 
HETATM   14  C   UNK N   1      32.035  17.242   6.080  0.00  0.00     0.001 A 
HETATM   15  C   UNK N   1      30.801  16.801   5.604  0.00  0.00     0.014 A 
HETATM   16  C   UNK N   1      33.101  17.468   5.253  0.00  0.00     0.086 A 
HETATM   17  C   UNK N   1      30.679  16.576   4.222  0.00  0.00     0.001 A 
HETATM   18  C   UNK N   1      31.783  16.792   3.364  0.00  0.00     0.003 A 
HETATM   19  C   UNK N   1      33.014  17.249   3.881  0.00  0.00     0.038 A 
HETATM   20  O   UNK N   1      34.150  17.830   5.967  0.00  0.00    -0.306 OA
ENDBRANCH  10  12
BRANCH  10  21
HETATM   21  O   UNK N   1      35.233  19.108   8.683  0.00  0.00    -0.344 OA
HETATM   22  H   UNK N   1      36.050  19.475   8.959  0.00  0.00     0.219 HD
ENDBRANCH  10  21
ENDBRANCH   4   9
ENDBRANCH   1   4
BRANCH   1  23
HETATM   23  O   UNK N   1      32.456  15.085  10.180  0.00  0.00    -0.348 OA
HETATM   24  H   UNK N   1      31.621  14.662  10.138  0.00  0.00     0.219 HD
ENDBRANCH   1  23
BRANCH   2  25
HETATM   25  C   UNK N   1      35.732  14.423  11.736  0.00  0.00     0.155 C 
HETATM   26  C   UNK N   1      36.395  13.211  11.057  0.00  0.00     0.034 C 
HETATM   27  C   UNK N   1      35.625  11.887  11.051  0.00  0.00     0.023 C 
HETATM   28  C   UNK N   1      34.834  11.589  12.315  0.00  0.00     0.136 C 
HETATM   29  N   UNK N   1      35.561  11.979  13.513  0.00  0.00    -0.299 N 
HETATM   30  C   UNK N   1      35.262  13.318  14.038  0.00  0.00     0.216 C 
HETATM   31  C   UNK N   1      35.935  14.364  13.219  0.00  0.00     0.167 C 
HETATM   32  O   UNK N   1      36.657  15.183  13.768  0.00  0.00    -0.294 OA
BRANCH  29  33
HETATM   33  S   UNK N   1      36.926  10.941  14.041  0.00  0.00     0.276 S 
HETATM   34  O   UNK N   1      37.188  12.073  15.049  0.00  0.00    -0.199 OA
HETATM   35  O   UNK N   1      35.599  10.277  14.447  0.00  0.00    -0.199 OA
BRANCH  33  36
HETATM   36  C   UNK N   1      36.987   9.994  15.628  0.00  0.00     0.149 A 
HETATM   37  C   UNK N   1      37.669   8.747  15.792  0.00  0.00     0.043 A 
HETATM   38  C   UNK N   1      37.709   8.137  17.040  0.00  0.00     0.004 A 
HETATM   39  C   UNK N   1      37.079   8.743  18.121  0.00  0.00     0.017 A 
HETATM   40  C   UNK N   1      36.404   9.952  17.937  0.00  0.00     0.089 A 
HETATM   41  N   UNK N   1      36.372  10.544  16.714  0.00  0.00    -0.355 N 
ATOM     42  HN  UNK N   1      35.874  11.426  16.605  1.00  0.00     0.166 HD
ENDBRANCH  33  36
ENDBRANCH  29  33
ENDBRANCH   2  25
TORSDOF 10
ENDMDL
MODEL 2
REMARK VINA RESULT:      -8.6      1.575      1.966
REMARK  10 active torsions:
REMARK  status: ('A' for Active; 'I' for Inactive)
REMARK    1  A    between atoms: C_17  and  C_14 
REMARK    2  A    between atoms: C_20  and  C_14 
REMARK    3  A    between atoms: C_19  and  N_29 
REMARK    4  A    between atoms: C_25  and  C_20 
REMARK    5  A    between atoms: C_20  and  N_31 
REMARK    6  A    between atoms: C_26  and  C_23 
REMARK    7  A    between atoms: S_40  and  C_24 
REMARK    8  A    between atoms: C_25  and  O_35 
REMARK    9  A    between atoms: C_26  and  O_36 
REMARK   10  A    between atoms: S_40  and  N_33 
ROOT
HETATM    1  C   UNK N   1      33.917  13.168   9.628  0.00  0.00     0.135 C 
HETATM    2  N   UNK N   1      34.253  12.319  10.564  0.00  0.00    -0.361 N 
ATOM      3  HN  UNK N   1      33.501  11.767  10.976  1.00  0.00     0.162 HD
ENDROOT
BRANCH   1   4
HETATM    4  C   UNK N   1      34.952  14.059   8.953  0.00  0.00     0.158 C 
BRANCH   4   5
HETATM    5  C   UNK N   1      35.679  13.884   7.625  0.00  0.00     0.037 C 
BRANCH   5   6
HETATM    6  C   UNK N   1      34.905  13.789   6.344  0.00  0.00    -0.020 C 
HETATM    7  C   UNK N   1      35.740  14.423   5.239  0.00  0.00     0.009 C 
HETATM    8  C   UNK N   1      34.831  12.308   6.056  0.00  0.00     0.009 C 
ENDBRANCH   5   6
ENDBRANCH   4   5
BRANCH   4   9
HETATM    9  N   UNK N   1      35.184  15.294   9.653  0.00  0.00    -0.357 N 
HETATM   10  C   UNK N   1      34.940  16.527   9.330  0.00  0.00     0.171 C 
ATOM     11  HN  UNK N   1      35.619  15.180  10.569  1.00  0.00     0.162 HD
BRANCH  10  12
HETATM   12  C   UNK N   1      34.119  16.982   8.184  0.00  0.00     0.127 A 
HETATM   13  C   UNK N   1      32.721  16.886   8.209  0.00  0.00     0.056 A 
HETATM   14  C   UNK N   1      32.337  17.146   6.925  0.00  0.00     0.001 A 
HETATM   15  C   UNK N   1      31.066  17.137   6.354  0.00  0.00     0.014 A 
HETATM   16  C   UNK N   1      33.469  17.371   6.188  0.00  0.00     0.086 A 
HETATM   17  C   UNK N   1      30.971  17.355   4.970  0.00  0.00     0.001 A 
HETATM   18  C   UNK N   1      32.138  17.571   4.201  0.00  0.00     0.003 A 
HETATM   19  C   UNK N   1      33.410  17.585   4.815  0.00  0.00     0.038 A 
HETATM   20  O   UNK N   1      34.531  17.278   6.965  0.00  0.00    -0.306 OA
ENDBRANCH  10  12
BRANCH  10  21
HETATM   21  O   UNK N   1      35.453  17.480  10.123  0.00  0.00    -0.344 OA
HETATM   22  H   UNK N   1      35.401  17.776  11.011  0.00  0.00     0.219 HD
ENDBRANCH  10  21
ENDBRANCH   4   9
ENDBRANCH   1   4
BRANCH   1  23
HETATM   23  O   UNK N   1      32.623  13.257   9.265  0.00  0.00    -0.348 OA
HETATM   24  H   UNK N   1      31.776  13.648   9.348  0.00  0.00     0.219 HD
ENDBRANCH   1  23
BRANCH   2  25
HETATM   25  C   UNK N   1      35.610  12.083  11.080  0.00  0.00     0.155 C 
HETATM   26  C   UNK N   1      35.854  10.628  11.520  0.00  0.00     0.034 C 
HETATM   27  C   UNK N   1      34.749   9.931  12.321  0.00  0.00     0.023 C 
HETATM   28  C   UNK N   1      34.013  10.812  13.318  0.00  0.00     0.136 C 
HETATM   29  N   UNK N   1      34.917  11.724  14.004  0.00  0.00    -0.299 N 
HETATM   30  C   UNK N   1      35.044  13.064  13.416  0.00  0.00     0.216 C 
HETATM   31  C   UNK N   1      35.910  13.025  12.205  0.00  0.00     0.167 C 
HETATM   32  O   UNK N   1      36.874  13.773  12.133  0.00  0.00    -0.294 OA
BRANCH  29  33
HETATM   33  S   UNK N   1      35.979  11.047  15.281  0.00  0.00     0.276 S 
HETATM   34  O   UNK N   1      36.479  12.496  15.410  0.00  0.00    -0.199 OA
HETATM   35  O   UNK N   1      34.521  11.030  15.774  0.00  0.00    -0.199 OA
BRANCH  33  36
HETATM   36  C   UNK N   1      35.770  11.334  17.097  0.00  0.00     0.149 A 
HETATM   37  C   UNK N   1      36.127  10.382  18.104  0.00  0.00     0.043 A 
HETATM   38  C   UNK N   1      35.987  10.710  19.448  0.00  0.00     0.004 A 
HETATM   39  C   UNK N   1      35.496  11.963  19.802  0.00  0.00     0.017 A 
HETATM   40  C   UNK N   1      35.138  12.871  18.803  0.00  0.00     0.089 A 
HETATM   41  N   UNK N   1      35.281  12.543  17.491  0.00  0.00    -0.355 N 
ATOM     42  HN  UNK N   1      35.013  13.224  16.781  1.00  0.00     0.166 HD
ENDBRANCH  33  36
ENDBRANCH  29  33
ENDBRANCH   2  25
TORSDOF 10
ENDMDL
MODEL 3
REMARK VINA RESULT:      -8.2      2.178      3.240
REMARK  10 active torsions:
REMARK  status: ('A' for Active; 'I' for Inactive)
REMARK    1  A    between atoms: C_17  and  C_14 
REMARK    2  A    between atoms: C_20  and  C_14 
REMARK    3  A    between atoms: C_19  and  N_29 
REMARK    4  A    between atoms: C_25  and  C_20 
REMARK    5  A    between atoms: C_20  and  N_31 
REMARK    6  A    between atoms: C_26  and  C_23 
REMARK    7  A    between atoms: S_40  and  C_24 
REMARK    8  A    between atoms: C_25  and  O_35 
REMARK    9  A    between atoms: C_26  and  O_36 
REMARK   10  A    between atoms: S_40  and  N_33 
ROOT
HETATM    1  C   UNK N   1      33.337  14.453   7.345  0.00  0.00     0.135 C 
HETATM    2  N   UNK N   1      33.883  13.923   8.407  0.00  0.00    -0.361 N 
ATOM      3  HN  UNK N   1      33.292  13.314   8.973  1.00  0.00     0.162 HD
ENDROOT
BRANCH   1   4
HETATM    4  C   UNK N   1      34.117  15.392   6.433  0.00  0.00     0.158 C 
BRANCH   4   5
HETATM    5  C   UNK N   1      34.378  15.309   4.934  0.00  0.00     0.037 C 
BRANCH   5   6
HETATM    6  C   UNK N   1      33.251  15.470   3.958  0.00  0.00    -0.020 C 
HETATM    7  C   UNK N   1      33.046  16.958   3.712  0.00  0.00     0.009 C 
HETATM    8  C   UNK N   1      33.775  14.872   2.673  0.00  0.00     0.009 C 
ENDBRANCH   5   6
ENDBRANCH   4   5
BRANCH   4   9
HETATM    9  N   UNK N   1      34.582  16.579   7.100  0.00  0.00    -0.357 N 
HETATM   10  C   UNK N   1      33.953  17.631   7.524  0.00  0.00     0.171 C 
ATOM     11  HN  UNK N   1      35.588  16.595   7.270  1.00  0.00     0.162 HD
BRANCH  10  12
HETATM   12  C   UNK N   1      32.483  17.788   7.625  0.00  0.00     0.127 A 
HETATM   13  C   UNK N   1      31.886  18.302   8.783  0.00  0.00     0.056 A 
HETATM   14  C   UNK N   1      30.552  18.061   8.616  0.00  0.00     0.001 A 
HETATM   15  C   UNK N   1      29.485  18.311   9.478  0.00  0.00     0.014 A 
HETATM   16  C   UNK N   1      30.391  17.423   7.417  0.00  0.00     0.086 A 
HETATM   17  C   UNK N   1      28.212  17.870   9.082  0.00  0.00     0.001 A 
HETATM   18  C   UNK N   1      28.041  17.196   7.851  0.00  0.00     0.003 A 
HETATM   19  C   UNK N   1      29.143  16.970   6.998  0.00  0.00     0.038 A 
HETATM   20  O   UNK N   1      31.563  17.277   6.829  0.00  0.00    -0.306 OA
ENDBRANCH  10  12
BRANCH  10  21
HETATM   21  O   UNK N   1      34.701  18.665   7.940  0.00  0.00    -0.344 OA
HETATM   22  H   UNK N   1      35.601  18.887   8.080  0.00  0.00     0.219 HD
ENDBRANCH  10  21
ENDBRANCH   4   9
ENDBRANCH   1   4
BRANCH   1  23
HETATM   23  O   UNK N   1      32.051  14.168   7.063  0.00  0.00    -0.348 OA
HETATM   24  H   UNK N   1      31.253  14.352   6.609  0.00  0.00     0.219 HD
ENDBRANCH   1  23
BRANCH   2  25
HETATM   25  C   UNK N   1      35.269  14.116   8.863  0.00  0.00     0.155 C 
HETATM   26  C   UNK N   1      36.014  12.797   9.135  0.00  0.00     0.034 C 
HETATM   27  C   UNK N   1      35.258  11.691   9.878  0.00  0.00     0.023 C 
HETATM   28  C   UNK N   1      34.328  12.168  10.983  0.00  0.00     0.136 C 
HETATM   29  N   UNK N   1      34.910  13.263  11.744  0.00  0.00    -0.299 N 
HETATM   30  C   UNK N   1      34.543  14.615  11.305  0.00  0.00     0.216 C 
HETATM   31  C   UNK N   1      35.299  14.991  10.078  0.00  0.00     0.167 C 
HETATM   32  O   UNK N   1      35.947  16.027  10.067  0.00  0.00    -0.294 OA
BRANCH  29  33
HETATM   33  S   UNK N   1      36.210  12.871  12.915  0.00  0.00     0.276 S 
HETATM   34  O   UNK N   1      35.843  14.229  13.535  0.00  0.00    -0.199 OA
HETATM   35  O   UNK N   1      35.016  11.930  13.153  0.00  0.00    -0.199 OA
BRANCH  33  36
HETATM   36  C   UNK N   1      35.940  12.392  14.681  0.00  0.00     0.149 A 
HETATM   37  C   UNK N   1      36.564  11.269  15.311  0.00  0.00     0.043 A 
HETATM   38  C   UNK N   1      36.345  11.021  16.661  0.00  0.00     0.004 A 
HETATM   39  C   UNK N   1      35.514  11.868  17.389  0.00  0.00     0.017 A 
HETATM   40  C   UNK N   1      34.902  12.948  16.751  0.00  0.00     0.089 A 
HETATM   41  N   UNK N   1      35.124  13.185  15.431  0.00  0.00    -0.355 N 
ATOM     42  HN  UNK N   1      34.666  13.982  14.988  1.00  0.00     0.166 HD
ENDBRANCH  33  36
ENDBRANCH  29  33
ENDBRANCH   2  25
TORSDOF 10
ENDMDL
MODEL 4
REMARK VINA RESULT:      -8.1      2.775     10.537
REMARK  10 active torsions:
REMARK  status: ('A' for Active; 'I' for Inactive)
REMARK    1  A    between atoms: C_17  and  C_14 
REMARK    2  A    between atoms: C_20  and  C_14 
REMARK    3  A    between atoms: C_19  and  N_29 
REMARK    4  A    between atoms: C_25  and  C_20 
REMARK    5  A    between atoms: C_20  and  N_31 
REMARK    6  A    between atoms: C_26  and  C_23 
REMARK    7  A    between atoms: S_40  and  C_24 
REMARK    8  A    between atoms: C_25  and  O_35 
REMARK    9  A    between atoms: C_26  and  O_36 
REMARK   10  A    between atoms: S_40  and  N_33 
ROOT
HETATM    1  C   UNK N   1      35.250  12.766  12.524  0.00  0.00     0.135 C 
HETATM    2  N   UNK N   1      35.021  13.246  11.331  0.00  0.00    -0.361 N 
ATOM      3  HN  UNK N   1      34.049  13.268  11.022  1.00  0.00     0.162 HD
ENDROOT
BRANCH   1   4
HETATM    4  C   UNK N   1      36.663  12.668  13.085  0.00  0.00     0.158 C 
BRANCH   4   5
HETATM    5  C   UNK N   1      37.729  11.600  12.875  0.00  0.00     0.037 C 
BRANCH   5   6
HETATM    6  C   UNK N   1      37.552  10.228  13.454  0.00  0.00    -0.020 C 
HETATM    7  C   UNK N   1      38.085   9.218  12.447  0.00  0.00     0.009 C 
HETATM    8  C   UNK N   1      38.476  10.200  14.649  0.00  0.00     0.009 C 
ENDBRANCH   5   6
ENDBRANCH   4   5
BRANCH   4   9
HETATM    9  N   UNK N   1      37.056  13.825  13.844  0.00  0.00    -0.357 N 
HETATM   10  C   UNK N   1      36.761  14.206  15.049  0.00  0.00     0.171 C 
ATOM     11  HN  UNK N   1      37.679  14.461  13.345  1.00  0.00     0.162 HD
BRANCH  10  12
HETATM   12  C   UNK N   1      36.078  13.389  16.080  0.00  0.00     0.127 A 
HETATM   13  C   UNK N   1      35.833  13.897  17.363  0.00  0.00     0.056 A 
HETATM   14  C   UNK N   1      35.440  12.811  18.091  0.00  0.00     0.001 A 
HETATM   15  C   UNK N   1      35.119  12.712  19.444  0.00  0.00     0.014 A 
HETATM   16  C   UNK N   1      35.470  11.721  17.264  0.00  0.00     0.086 A 
HETATM   17  C   UNK N   1      34.834  11.434  19.954  0.00  0.00     0.001 A 
HETATM   18  C   UNK N   1      34.879  10.302  19.107  0.00  0.00     0.003 A 
HETATM   19  C   UNK N   1      35.197  10.442  17.739  0.00  0.00     0.038 A 
HETATM   20  O   UNK N   1      35.846  12.090  16.054  0.00  0.00    -0.306 OA
ENDBRANCH  10  12
BRANCH  10  21
HETATM   21  O   UNK N   1      37.137  15.443  15.409  0.00  0.00    -0.344 OA
HETATM   22  H   UNK N   1      36.947  16.338  15.201  0.00  0.00     0.219 HD
ENDBRANCH  10  21
ENDBRANCH   4   9
ENDBRANCH   1   4
BRANCH   1  23
HETATM   23  O   UNK N   1      34.209  12.341  13.265  0.00  0.00    -0.348 OA
HETATM   24  H   UNK N   1      33.292  12.333  13.459  0.00  0.00     0.219 HD
ENDBRANCH   1  23
BRANCH   2  25
HETATM   25  C   UNK N   1      36.029  13.760  10.389  0.00  0.00     0.155 C 
HETATM   26  C   UNK N   1      36.182  15.291  10.432  0.00  0.00     0.034 C 
HETATM   27  C   UNK N   1      34.905  16.134  10.504  0.00  0.00     0.023 C 
HETATM   28  C   UNK N   1      33.731  15.607   9.694  0.00  0.00     0.136 C 
HETATM   29  N   UNK N   1      34.156  15.074   8.409  0.00  0.00    -0.299 N 
HETATM   30  C   UNK N   1      34.409  13.628   8.365  0.00  0.00     0.216 C 
HETATM   31  C   UNK N   1      35.719  13.306   8.996  0.00  0.00     0.167 C 
HETATM   32  O   UNK N   1      36.545  12.662   8.367  0.00  0.00    -0.294 OA
BRANCH  29  33
HETATM   33  S   UNK N   1      34.604  16.244   7.125  0.00  0.00     0.276 S 
HETATM   34  O   UNK N   1      35.165  15.002   6.411  0.00  0.00    -0.199 OA
HETATM   35  O   UNK N   1      33.073  16.091   7.156  0.00  0.00    -0.199 OA
BRANCH  33  36
HETATM   36  C   UNK N   1      33.776  16.379   5.476  0.00  0.00     0.149 A 
HETATM   37  C   UNK N   1      33.142  17.568   4.993  0.00  0.00     0.043 A 
HETATM   38  C   UNK N   1      32.596  17.592   3.715  0.00  0.00     0.004 A 
HETATM   39  C   UNK N   1      32.667  16.455   2.916  0.00  0.00     0.017 A 
HETATM   40  C   UNK N   1      33.276  15.300   3.412  0.00  0.00     0.089 A 
HETATM   41  N   UNK N   1      33.810  15.286   4.663  0.00  0.00    -0.355 N 
ATOM     42  HN  UNK N   1      34.250  14.431   5.002  1.00  0.00     0.166 HD
ENDBRANCH  33  36
ENDBRANCH  29  33
ENDBRANCH   2  25
TORSDOF 10
ENDMDL
MODEL 5
REMARK VINA RESULT:      -8.1      2.994     10.411
REMARK  10 active torsions:
REMARK  status: ('A' for Active; 'I' for Inactive)
REMARK    1  A    between atoms: C_17  and  C_14 
REMARK    2  A    between atoms: C_20  and  C_14 
REMARK    3  A    between atoms: C_19  and  N_29 
REMARK    4  A    between atoms: C_25  and  C_20 
REMARK    5  A    between atoms: C_20  and  N_31 
REMARK    6  A    between atoms: C_26  and  C_23 
REMARK    7  A    between atoms: S_40  and  C_24 
REMARK    8  A    between atoms: C_25  and  O_35 
REMARK    9  A    between atoms: C_26  and  O_36 
REMARK   10  A    between atoms: S_40  and  N_33 
ROOT
HETATM    1  C   UNK N   1      35.174  14.334  11.630  0.00  0.00     0.135 C 
HETATM    2  N   UNK N   1      34.661  14.982  10.618  0.00  0.00    -0.361 N 
ATOM      3  HN  UNK N   1      34.370  15.945  10.788  1.00  0.00     0.162 HD
ENDROOT
BRANCH   1   4
HETATM    4  C   UNK N   1      35.629  12.885  11.500  0.00  0.00     0.158 C 
BRANCH   4   5
HETATM    5  C   UNK N   1      37.017  12.314  11.237  0.00  0.00     0.037 C 
BRANCH   5   6
HETATM    6  C   UNK N   1      37.640  12.428   9.878  0.00  0.00    -0.020 C 
HETATM    7  C   UNK N   1      38.403  13.744   9.817  0.00  0.00     0.009 C 
HETATM    8  C   UNK N   1      38.661  11.315   9.836  0.00  0.00     0.009 C 
ENDBRANCH   5   6
ENDBRANCH   4   5
BRANCH   4   9
HETATM    9  N   UNK N   1      34.584  11.934  11.768  0.00  0.00    -0.357 N 
HETATM   10  C   UNK N   1      34.225  11.334  12.861  0.00  0.00     0.171 C 
ATOM     11  HN  UNK N   1      34.024  11.686  10.952  1.00  0.00     0.162 HD
BRANCH  10  12
HETATM   12  C   UNK N   1      34.692  11.660  14.229  0.00  0.00     0.127 A 
HETATM   13  C   UNK N   1      34.932  10.652  15.173  0.00  0.00     0.056 A 
HETATM   14  C   UNK N   1      35.089  11.320  16.354  0.00  0.00     0.001 A 
HETATM   15  C   UNK N   1      35.297  10.823  17.639  0.00  0.00     0.014 A 
HETATM   16  C   UNK N   1      34.934  12.656  16.101  0.00  0.00     0.086 A 
HETATM   17  C   UNK N   1      35.331  11.747  18.697  0.00  0.00     0.001 A 
HETATM   18  C   UNK N   1      35.155  13.127  18.444  0.00  0.00     0.003 A 
HETATM   19  C   UNK N   1      34.957  13.596  17.127  0.00  0.00     0.038 A 
HETATM   20  O   UNK N   1      34.706  12.842  14.815  0.00  0.00    -0.306 OA
ENDBRANCH  10  12
BRANCH  10  21
HETATM   21  O   UNK N   1      33.323  10.346  12.749  0.00  0.00    -0.344 OA
HETATM   22  H   UNK N   1      32.899   9.700  13.280  0.00  0.00     0.219 HD
ENDBRANCH  10  21
ENDBRANCH   4   9
ENDBRANCH   1   4
BRANCH   1  23
HETATM   23  O   UNK N   1      35.291  14.964  12.814  0.00  0.00    -0.348 OA
HETATM   24  H   UNK N   1      34.930  15.493  13.498  0.00  0.00     0.219 HD
ENDBRANCH   1  23
BRANCH   2  25
HETATM   25  C   UNK N   1      34.465  14.459   9.257  0.00  0.00     0.155 C 
HETATM   26  C   UNK N   1      35.017  15.386   8.158  0.00  0.00     0.034 C 
HETATM   27  C   UNK N   1      34.754  16.889   8.296  0.00  0.00     0.023 C 
HETATM   28  C   UNK N   1      33.391  17.263   8.857  0.00  0.00     0.136 C 
HETATM   29  N   UNK N   1      32.338  16.405   8.336  0.00  0.00    -0.299 N 
HETATM   30  C   UNK N   1      31.991  15.241   9.162  0.00  0.00     0.216 C 
HETATM   31  C   UNK N   1      33.016  14.170   9.015  0.00  0.00     0.167 C 
HETATM   32  O   UNK N   1      32.664  13.044   8.695  0.00  0.00    -0.294 OA
BRANCH  29  33
HETATM   33  S   UNK N   1      31.794  16.677   6.649  0.00  0.00     0.276 S 
HETATM   34  O   UNK N   1      31.042  15.349   6.846  0.00  0.00    -0.199 OA
HETATM   35  O   UNK N   1      31.124  17.713   7.569  0.00  0.00    -0.199 OA
BRANCH  33  36
HETATM   36  C   UNK N   1      30.079  17.164   6.152  0.00  0.00     0.149 A 
HETATM   37  C   UNK N   1      29.747  17.751   4.891  0.00  0.00     0.043 A 
HETATM   38  C   UNK N   1      28.420  18.030   4.584  0.00  0.00     0.004 A 
HETATM   39  C   UNK N   1      27.425  17.739   5.511  0.00  0.00     0.017 A 
HETATM   40  C   UNK N   1      27.772  17.181   6.743  0.00  0.00     0.089 A 
HETATM   41  N   UNK N   1      29.072  16.908   7.034  0.00  0.00    -0.355 N 
ATOM     42  HN  UNK N   1      29.300  16.500   7.940  1.00  0.00     0.166 HD
ENDBRANCH  33  36
ENDBRANCH  29  33
ENDBRANCH   2  25
TORSDOF 10
ENDMDL
MODEL 6
REMARK VINA RESULT:      -8.0      4.146     10.939
REMARK  10 active torsions:
REMARK  status: ('A' for Active; 'I' for Inactive)
REMARK    1  A    between atoms: C_17  and  C_14 
REMARK    2  A    between atoms: C_20  and  C_14 
REMARK    3  A    between atoms: C_19  and  N_29 
REMARK    4  A    between atoms: C_25  and  C_20 
REMARK    5  A    between atoms: C_20  and  N_31 
REMARK    6  A    between atoms: C_26  and  C_23 
REMARK    7  A    between atoms: S_40  and  C_24 
REMARK    8  A    between atoms: C_25  and  O_35 
REMARK    9  A    between atoms: C_26  and  O_36 
REMARK   10  A    between atoms: S_40  and  N_33 
ROOT
HETATM    1  C   UNK N   1      32.881  14.015   8.462  0.00  0.00     0.135 C 
HETATM    2  N   UNK N   1      32.094  14.479   7.527  0.00  0.00    -0.361 N 
ATOM      3  HN  UNK N   1      31.112  14.206   7.575  1.00  0.00     0.162 HD
ENDROOT
BRANCH   1   4
HETATM    4  C   UNK N   1      34.369  14.342   8.484  0.00  0.00     0.158 C 
BRANCH   4   5
HETATM    5  C   UNK N   1      35.546  13.594   7.869  0.00  0.00     0.037 C 
BRANCH   5   6
HETATM    6  C   UNK N   1      36.868  13.549   8.575  0.00  0.00    -0.020 C 
HETATM    7  C   UNK N   1      36.837  12.391   9.563  0.00  0.00     0.009 C 
HETATM    8  C   UNK N   1      37.861  13.189   7.495  0.00  0.00     0.009 C 
ENDBRANCH   5   6
ENDBRANCH   4   5
BRANCH   4   9
HETATM    9  N   UNK N   1      34.666  15.607   9.101  0.00  0.00    -0.357 N 
HETATM   10  C   UNK N   1      34.824  15.943  10.345  0.00  0.00     0.171 C 
ATOM     11  HN  UNK N   1      34.770  16.379   8.443  1.00  0.00     0.162 HD
BRANCH  10  12
HETATM   12  C   UNK N   1      34.959  15.012  11.490  0.00  0.00     0.127 A 
HETATM   13  C   UNK N   1      35.965  15.184  12.450  0.00  0.00     0.056 A 
HETATM   14  C   UNK N   1      35.944  14.029  13.178  0.00  0.00     0.001 A 
HETATM   15  C   UNK N   1      36.762  13.622  14.231  0.00  0.00     0.014 A 
HETATM   16  C   UNK N   1      34.973  13.221  12.650  0.00  0.00     0.086 A 
HETATM   17  C   UNK N   1      36.571  12.327  14.740  0.00  0.00     0.001 A 
HETATM   18  C   UNK N   1      35.581  11.482  14.188  0.00  0.00     0.003 A 
HETATM   19  C   UNK N   1      34.763  11.932  13.129  0.00  0.00     0.038 A 
HETATM   20  O   UNK N   1      34.384  13.834  11.641  0.00  0.00    -0.306 OA
ENDBRANCH  10  12
BRANCH  10  21
HETATM   21  O   UNK N   1      34.906  17.254  10.618  0.00  0.00    -0.344 OA
HETATM   22  H   UNK N   1      35.505  17.969  10.527  0.00  0.00     0.219 HD
ENDBRANCH  10  21
ENDBRANCH   4   9
ENDBRANCH   1   4
BRANCH   1  23
HETATM   23  O   UNK N   1      32.359  13.224   9.418  0.00  0.00    -0.348 OA
HETATM   24  H   UNK N   1      32.416  12.480   9.985  0.00  0.00     0.219 HD
ENDBRANCH   1  23
BRANCH   2  25
HETATM   25  C   UNK N   1      32.486  15.358   6.414  0.00  0.00     0.155 C 
HETATM   26  C   UNK N   1      32.441  16.855   6.770  0.00  0.00     0.034 C 
HETATM   27  C   UNK N   1      31.239  17.360   7.574  0.00  0.00     0.023 C 
HETATM   28  C   UNK N   1      29.905  16.721   7.221  0.00  0.00     0.136 C 
HETATM   29  N   UNK N   1      29.764  16.520   5.787  0.00  0.00    -0.299 N 
HETATM   30  C   UNK N   1      30.156  15.198   5.282  0.00  0.00     0.216 C 
HETATM   31  C   UNK N   1      31.639  15.082   5.211  0.00  0.00     0.167 C 
HETATM   32  O   UNK N   1      32.164  14.757   4.156  0.00  0.00    -0.294 OA
BRANCH  29  33
HETATM   33  S   UNK N   1      29.422  17.957   4.770  0.00  0.00     0.276 S 
HETATM   34  O   UNK N   1      29.041  16.915   3.705  0.00  0.00    -0.199 OA
HETATM   35  O   UNK N   1      28.366  17.866   5.885  0.00  0.00    -0.199 OA
BRANCH  33  36
HETATM   36  C   UNK N   1      27.732  18.541   4.291  0.00  0.00     0.149 A 
HETATM   37  C   UNK N   1      27.419  19.896   3.952  0.00  0.00     0.043 A 
HETATM   38  C   UNK N   1      26.132  20.229   3.548  0.00  0.00     0.004 A 
HETATM   39  C   UNK N   1      25.155  19.240   3.481  0.00  0.00     0.017 A 
HETATM   40  C   UNK N   1      25.477  17.928   3.832  0.00  0.00     0.089 A 
HETATM   41  N   UNK N   1      26.740  17.609   4.223  0.00  0.00    -0.355 N 
ATOM     42  HN  UNK N   1      26.951  16.644   4.473  1.00  0.00     0.166 HD
ENDBRANCH  33  36
ENDBRANCH  29  33
ENDBRANCH   2  25
TORSDOF 10
ENDMDL
MODEL 7
REMARK VINA RESULT:      -7.9      2.563      4.430
REMARK  10 active torsions:
REMARK  status: ('A' for Active; 'I' for Inactive)
REMARK    1  A    between atoms: C_17  and  C_14 
REMARK    2  A    between atoms: C_20  and  C_14 
REMARK    3  A    between atoms: C_19  and  N_29 
REMARK    4  A    between atoms: C_25  and  C_20 
REMARK    5  A    between atoms: C_20  and  N_31 
REMARK    6  A    between atoms: C_26  and  C_23 
REMARK    7  A    between atoms: S_40  and  C_24 
REMARK    8  A    between atoms: C_25  and  O_35 
REMARK    9  A    between atoms: C_26  and  O_36 
REMARK   10  A    between atoms: S_40  and  N_33 
ROOT
HETATM    1  C   UNK N   1      34.456  16.548   6.431  0.00  0.00     0.135 C 
HETATM    2  N   UNK N   1      34.848  15.895   7.493  0.00  0.00    -0.361 N 
ATOM      3  HN  UNK N   1      35.199  16.452   8.272  1.00  0.00     0.162 HD
ENDROOT
BRANCH   1   4
HETATM    4  C   UNK N   1      33.929  15.822   5.200  0.00  0.00     0.158 C 
BRANCH   4   5
HETATM    5  C   UNK N   1      34.073  14.362   4.786  0.00  0.00     0.037 C 
BRANCH   5   6
HETATM    6  C   UNK N   1      32.916  13.629   4.176  0.00  0.00    -0.020 C 
HETATM    7  C   UNK N   1      33.390  12.235   3.790  0.00  0.00     0.009 C 
HETATM    8  C   UNK N   1      31.929  13.469   5.309  0.00  0.00     0.009 C 
ENDBRANCH   5   6
ENDBRANCH   4   5
BRANCH   4   9
HETATM    9  N   UNK N   1      33.086  16.643   4.371  0.00  0.00    -0.357 N 
HETATM   10  C   UNK N   1      31.893  17.116   4.557  0.00  0.00     0.171 C 
ATOM     11  HN  UNK N   1      33.503  16.899   3.476  1.00  0.00     0.162 HD
BRANCH  10  12
HETATM   12  C   UNK N   1      31.139  17.106   5.833  0.00  0.00     0.127 A 
HETATM   13  C   UNK N   1      29.756  16.880   5.857  0.00  0.00     0.056 A 
HETATM   14  C   UNK N   1      29.381  17.195   7.132  0.00  0.00     0.001 A 
HETATM   15  C   UNK N   1      28.113  17.208   7.711  0.00  0.00     0.014 A 
HETATM   16  C   UNK N   1      30.500  17.598   7.809  0.00  0.00     0.086 A 
HETATM   17  C   UNK N   1      28.006  17.669   9.034  0.00  0.00     0.001 A 
HETATM   18  C   UNK N   1      29.157  18.103   9.733  0.00  0.00     0.003 A 
HETATM   19  C   UNK N   1      30.427  18.065   9.118  0.00  0.00     0.038 A 
HETATM   20  O   UNK N   1      31.550  17.528   7.014  0.00  0.00    -0.306 OA
ENDBRANCH  10  12
BRANCH  10  21
HETATM   21  O   UNK N   1      31.294  17.697   3.506  0.00  0.00    -0.344 OA
HETATM   22  H   UNK N   1      30.436  17.932   3.210  0.00  0.00     0.219 HD
ENDBRANCH  10  21
ENDBRANCH   4   9
ENDBRANCH   1   4
BRANCH   1  23
HETATM   23  O   UNK N   1      34.534  17.892   6.429  0.00  0.00    -0.348 OA
HETATM   24  H   UNK N   1      34.544  18.712   6.883  0.00  0.00     0.219 HD
ENDBRANCH   1  23
BRANCH   2  25
HETATM   25  C   UNK N   1      34.829  14.435   7.675  0.00  0.00     0.155 C 
HETATM   26  C   UNK N   1      33.588  13.928   8.433  0.00  0.00     0.034 C 
HETATM   27  C   UNK N   1      33.132  14.719   9.664  0.00  0.00     0.023 C 
HETATM   28  C   UNK N   1      34.251  15.286  10.524  0.00  0.00     0.136 C 
HETATM   29  N   UNK N   1      35.360  14.352  10.653  0.00  0.00    -0.299 N 
HETATM   30  C   UNK N   1      36.458  14.524   9.694  0.00  0.00     0.216 C 
HETATM   31  C   UNK N   1      36.080  13.980   8.360  0.00  0.00     0.167 C 
HETATM   32  O   UNK N   1      36.803  13.154   7.823  0.00  0.00    -0.294 OA
BRANCH  29  33
HETATM   33  S   UNK N   1      35.145  12.942  11.740  0.00  0.00     0.276 S 
HETATM   34  O   UNK N   1      36.679  12.991  11.844  0.00  0.00    -0.199 OA
HETATM   35  O   UNK N   1      34.608  14.204  12.438  0.00  0.00    -0.199 OA
BRANCH  33  36
HETATM   36  C   UNK N   1      35.376  12.972  13.576  0.00  0.00     0.149 A 
HETATM   37  C   UNK N   1      34.653  12.139  14.488  0.00  0.00     0.043 A 
HETATM   38  C   UNK N   1      34.937  12.191  15.847  0.00  0.00     0.004 A 
HETATM   39  C   UNK N   1      35.920  13.059  16.311  0.00  0.00     0.017 A 
HETATM   40  C   UNK N   1      36.602  13.876  15.407  0.00  0.00     0.089 A 
HETATM   41  N   UNK N   1      36.321  13.816  14.078  0.00  0.00    -0.355 N 
ATOM     42  HN  UNK N   1      36.833  14.422  13.437  1.00  0.00     0.166 HD
ENDBRANCH  33  36
ENDBRANCH  29  33
ENDBRANCH   2  25
TORSDOF 10
ENDMDL
MODEL 8
REMARK VINA RESULT:      -7.8      3.630     10.461
REMARK  10 active torsions:
REMARK  status: ('A' for Active; 'I' for Inactive)
REMARK    1  A    between atoms: C_17  and  C_14 
REMARK    2  A    between atoms: C_20  and  C_14 
REMARK    3  A    between atoms: C_19  and  N_29 
REMARK    4  A    between atoms: C_25  and  C_20 
REMARK    5  A    between atoms: C_20  and  N_31 
REMARK    6  A    between atoms: C_26  and  C_23 
REMARK    7  A    between atoms: S_40  and  C_24 
REMARK    8  A    between atoms: C_25  and  O_35 
REMARK    9  A    between atoms: C_26  and  O_36 
REMARK   10  A    between atoms: S_40  and  N_33 
ROOT
HETATM    1  C   UNK N   1      33.904  14.790  10.117  0.00  0.00     0.135 C 
HETATM    2  N   UNK N   1      33.389  15.764   9.414  0.00  0.00    -0.361 N 
ATOM      3  HN  UNK N   1      32.769  16.409   9.904  1.00  0.00     0.162 HD
ENDROOT
BRANCH   1   4
HETATM    4  C   UNK N   1      34.830  13.757   9.488  0.00  0.00     0.158 C 
BRANCH   4   5
HETATM    5  C   UNK N   1      34.505  12.421   8.831  0.00  0.00     0.037 C 
BRANCH   5   6
HETATM    6  C   UNK N   1      33.665  11.407   9.549  0.00  0.00    -0.020 C 
HETATM    7  C   UNK N   1      33.652  10.131   8.718  0.00  0.00     0.009 C 
HETATM    8  C   UNK N   1      34.432  11.109  10.816  0.00  0.00     0.009 C 
ENDBRANCH   5   6
ENDBRANCH   4   5
BRANCH   4   9
HETATM    9  N   UNK N   1      36.204  14.181   9.433  0.00  0.00    -0.357 N 
HETATM   10  C   UNK N   1      37.115  14.269  10.353  0.00  0.00     0.171 C 
ATOM     11  HN  UNK N   1      36.517  14.463   8.505  1.00  0.00     0.162 HD
BRANCH  10  12
HETATM   12  C   UNK N   1      37.026  13.720  11.726  0.00  0.00     0.127 A 
HETATM   13  C   UNK N   1      37.555  12.461  12.040  0.00  0.00     0.056 A 
HETATM   14  C   UNK N   1      37.070  12.188  13.287  0.00  0.00     0.001 A 
HETATM   15  C   UNK N   1      37.227  11.050  14.076  0.00  0.00     0.014 A 
HETATM   16  C   UNK N   1      36.285  13.241  13.669  0.00  0.00     0.086 A 
HETATM   17  C   UNK N   1      36.531  11.002  15.296  0.00  0.00     0.001 A 
HETATM   18  C   UNK N   1      35.705  12.080  15.688  0.00  0.00     0.003 A 
HETATM   19  C   UNK N   1      35.579  13.223  14.868  0.00  0.00     0.038 A 
HETATM   20  O   UNK N   1      36.278  14.159  12.721  0.00  0.00    -0.306 OA
ENDBRANCH  10  12
BRANCH  10  21
HETATM   21  O   UNK N   1      38.260  14.887  10.021  0.00  0.00    -0.344 OA
HETATM   22  H   UNK N   1      38.625  15.750   9.991  0.00  0.00     0.219 HD
ENDBRANCH  10  21
ENDBRANCH   4   9
ENDBRANCH   1   4
BRANCH   1  23
HETATM   23  O   UNK N   1      33.596  14.700  11.425  0.00  0.00    -0.348 OA
HETATM   24  H   UNK N   1      33.601  15.054  12.293  0.00  0.00     0.219 HD
ENDBRANCH   1  23
BRANCH   2  25
HETATM   25  C   UNK N   1      33.618  16.021   7.983  0.00  0.00     0.155 C 
HETATM   26  C   UNK N   1      33.495  17.507   7.600  0.00  0.00     0.034 C 
HETATM   27  C   UNK N   1      32.334  18.305   8.202  0.00  0.00     0.023 C 
HETATM   28  C   UNK N   1      31.024  17.544   8.340  0.00  0.00     0.136 C 
HETATM   29  N   UNK N   1      30.773  16.686   7.192  0.00  0.00    -0.299 N 
HETATM   30  C   UNK N   1      31.215  15.292   7.324  0.00  0.00     0.216 C 
HETATM   31  C   UNK N   1      32.690  15.190   7.151  0.00  0.00     0.167 C 
HETATM   32  O   UNK N   1      33.144  14.417   6.320  0.00  0.00    -0.294 OA
BRANCH  29  33
HETATM   33  S   UNK N   1      30.240  17.464   5.666  0.00  0.00     0.276 S 
HETATM   34  O   UNK N   1      29.861  16.031   5.255  0.00  0.00    -0.199 OA
HETATM   35  O   UNK N   1      29.286  17.873   6.802  0.00  0.00    -0.199 OA
BRANCH  33  36
HETATM   36  C   UNK N   1      28.478  17.697   5.153  0.00  0.00     0.149 A 
HETATM   37  C   UNK N   1      28.019  18.776   4.333  0.00  0.00     0.043 A 
HETATM   38  C   UNK N   1      26.684  18.836   3.951  0.00  0.00     0.004 A 
HETATM   39  C   UNK N   1      25.803  17.847   4.374  0.00  0.00     0.017 A 
HETATM   40  C   UNK N   1      26.268  16.811   5.187  0.00  0.00     0.089 A 
HETATM   41  N   UNK N   1      27.576  16.758   5.554  0.00  0.00    -0.355 N 
ATOM     42  HN  UNK N   1      27.891  15.991   6.148  1.00  0.00     0.166 HD
ENDBRANCH  33  36
ENDBRANCH  29  33
ENDBRANCH   2  25
TORSDOF 10
ENDMDL
MODEL 9
REMARK VINA RESULT:      -7.7      7.532     11.337
REMARK  10 active torsions:
REMARK  status: ('A' for Active; 'I' for Inactive)
REMARK    1  A    between atoms: C_17  and  C_14 
REMARK    2  A    between atoms: C_20  and  C_14 
REMARK    3  A    between atoms: C_19  and  N_29 
REMARK    4  A    between atoms: C_25  and  C_20 
REMARK    5  A    between atoms: C_20  and  N_31 
REMARK    6  A    between atoms: C_26  and  C_23 
REMARK    7  A    between atoms: S_40  and  C_24 
REMARK    8  A    between atoms: C_25  and  O_35 
REMARK    9  A    between atoms: C_26  and  O_36 
REMARK   10  A    between atoms: S_40  and  N_33 
ROOT
HETATM    1  C   UNK N   1      25.420  16.528   5.114  0.00  0.00     0.135 C 
HETATM    2  N   UNK N   1      26.692  16.586   5.406  0.00  0.00    -0.361 N 
ATOM      3  HN  UNK N   1      27.154  15.704   5.631  1.00  0.00     0.162 HD
ENDROOT
BRANCH   1   4
HETATM    4  C   UNK N   1      24.623  17.783   4.779  0.00  0.00     0.158 C 
BRANCH   4   5
HETATM    5  C   UNK N   1      24.692  18.691   3.557  0.00  0.00     0.037 C 
BRANCH   5   6
HETATM    6  C   UNK N   1      24.862  20.172   3.722  0.00  0.00    -0.020 C 
HETATM    7  C   UNK N   1      26.215  20.560   3.142  0.00  0.00     0.009 C 
HETATM    8  C   UNK N   1      23.803  20.775   2.830  0.00  0.00     0.009 C 
ENDBRANCH   5   6
ENDBRANCH   4   5
BRANCH   4   9
HETATM    9  N   UNK N   1      23.586  18.071   5.734  0.00  0.00    -0.357 N 
HETATM   10  C   UNK N   1      22.293  18.099   5.620  0.00  0.00     0.171 C 
ATOM     11  HN  UNK N   1      23.929  18.294   6.668  1.00  0.00     0.162 HD
BRANCH  10  12
HETATM   12  C   UNK N   1      21.508  17.602   4.466  0.00  0.00     0.127 A 
HETATM   13  C   UNK N   1      21.360  16.229   4.226  0.00  0.00     0.056 A 
HETATM   14  C   UNK N   1      20.816  16.158   2.975  0.00  0.00     0.001 A 
HETATM   15  C   UNK N   1      20.503  15.042   2.201  0.00  0.00     0.014 A 
HETATM   16  C   UNK N   1      20.668  17.437   2.511  0.00  0.00     0.086 A 
HETATM   17  C   UNK N   1      20.033  15.266   0.896  0.00  0.00     0.001 A 
HETATM   18  C   UNK N   1      19.894  16.585   0.405  0.00  0.00     0.003 A 
HETATM   19  C   UNK N   1      20.211  17.692   1.222  0.00  0.00     0.038 A 
HETATM   20  O   UNK N   1      21.080  18.293   3.426  0.00  0.00    -0.306 OA
ENDBRANCH  10  12
BRANCH  10  21
HETATM   21  O   UNK N   1      21.599  18.594   6.656  0.00  0.00    -0.344 OA
HETATM   22  H   UNK N   1      21.625  19.312   7.258  0.00  0.00     0.219 HD
ENDBRANCH  10  21
ENDBRANCH   4   9
ENDBRANCH   1   4
BRANCH   1  23
HETATM   23  O   UNK N   1      24.804  15.331   5.123  0.00  0.00    -0.348 OA
HETATM   24  H   UNK N   1      24.619  14.509   5.534  0.00  0.00     0.219 HD
ENDBRANCH   1  23
BRANCH   2  25
HETATM   25  C   UNK N   1      27.525  17.799   5.439  0.00  0.00     0.155 C 
HETATM   26  C   UNK N   1      28.810  17.683   4.599  0.00  0.00     0.034 C 
HETATM   27  C   UNK N   1      29.604  16.376   4.686  0.00  0.00     0.023 C 
HETATM   28  C   UNK N   1      29.651  15.734   6.065  0.00  0.00     0.136 C 
HETATM   29  N   UNK N   1      29.803  16.726   7.118  0.00  0.00    -0.299 N 
HETATM   30  C   UNK N   1      28.559  17.195   7.742  0.00  0.00     0.216 C 
HETATM   31  C   UNK N   1      27.858  18.162   6.853  0.00  0.00     0.167 C 
HETATM   32  O   UNK N   1      27.552  19.263   7.288  0.00  0.00    -0.294 OA
BRANCH  29  33
HETATM   33  S   UNK N   1      31.418  17.476   7.336  0.00  0.00     0.276 S 
HETATM   34  O   UNK N   1      30.864  17.889   8.710  0.00  0.00    -0.199 OA
HETATM   35  O   UNK N   1      31.566  15.944   7.354  0.00  0.00    -0.199 OA
BRANCH  33  36
HETATM   36  C   UNK N   1      32.742  16.836   8.458  0.00  0.00     0.149 A 
HETATM   37  C   UNK N   1      34.023  17.454   8.620  0.00  0.00     0.043 A 
HETATM   38  C   UNK N   1      34.933  16.934   9.532  0.00  0.00     0.004 A 
HETATM   39  C   UNK N   1      34.592  15.809  10.277  0.00  0.00     0.017 A 
HETATM   40  C   UNK N   1      33.344  15.211  10.092  0.00  0.00     0.089 A 
HETATM   41  N   UNK N   1      32.458  15.729   9.201  0.00  0.00    -0.355 N 
ATOM     42  HN  UNK N   1      31.552  15.275   9.084  1.00  0.00     0.166 HD
ENDBRANCH  33  36
ENDBRANCH  29  33
ENDBRANCH   2  25
TORSDOF 10
ENDMDL
