MODEL 1
REMARK VINA RESULT:      -4.5      0.000      0.000
REMARK  4 active torsions:
REMARK  status: ('A' for Active; 'I' for Inactive)
REMARK    1  A    between atoms: O_1  and  C_2 
REMARK    2  A    between atoms: C_2  and  C_4 
REMARK    3  A    between atoms: C_4  and  C_6 
REMARK    4  A    between atoms: C_6  and  O_7 
ROOT
HETATM    1  C   UNK N   1      21.236  20.920   2.319  0.00  0.00     0.317 C 
HETATM    2  O   UNK N   1      22.278  21.340   2.796  0.00  0.00    -0.274 OA
ENDROOT
BRANCH   1   3
HETATM    3  C   UNK N   1      20.379  20.036   3.147  0.00  0.00     0.225 C 
HETATM    4  O   UNK N   1      20.586  19.901   4.343  0.00  0.00    -0.643 OA
BRANCH   3   5
HETATM    5  O   UNK N   1      19.358  19.371   2.573  0.00  0.00    -0.770 OA
HETATM    6  H   UNK N   1      18.975  19.695   1.782  0.00  0.00     0.168 HD
ENDBRANCH   3   5
ENDBRANCH   1   3
BRANCH   1   7
HETATM    7  C   UNK N   1      20.878  21.315   0.935  0.00  0.00     0.225 C 
HETATM    8  O   UNK N   1      21.007  20.535   0.004  0.00  0.00    -0.643 OA
BRANCH   7   9
HETATM    9  O   UNK N   1      20.403  22.555   0.698  0.00  0.00    -0.770 OA
HETATM   10  H   UNK N   1      20.934  23.181   0.245  0.00  0.00     0.168 HD
ENDBRANCH   7   9
ENDBRANCH   1   7
TORSDOF 4
ENDMDL
MODEL 2
REMARK VINA RESULT:      -4.5      0.274      3.201
REMARK  4 active torsions:
REMARK  status: ('A' for Active; 'I' for Inactive)
REMARK    1  A    between atoms: O_1  and  C_2 
REMARK    2  A    between atoms: C_2  and  C_4 
REMARK    3  A    between atoms: C_4  and  C_6 
REMARK    4  A    between atoms: C_6  and  O_7 
ROOT
HETATM    1  C   UNK N   1      21.254  20.804   2.375  0.00  0.00     0.317 C 
HETATM    2  O   UNK N   1      22.237  21.383   2.808  0.00  0.00    -0.274 OA
ENDROOT
BRANCH   1   3
HETATM    3  C   UNK N   1      20.841  21.055   0.972  0.00  0.00     0.225 C 
HETATM    4  O   UNK N   1      20.901  20.171   0.132  0.00  0.00    -0.643 OA
BRANCH   3   5
HETATM    5  O   UNK N   1      20.392  22.275   0.618  0.00  0.00    -0.770 OA
HETATM    6  H   UNK N   1      20.127  22.439  -0.265  0.00  0.00     0.168 HD
ENDBRANCH   3   5
ENDBRANCH   1   3
BRANCH   1   7
HETATM    7  C   UNK N   1      20.521  19.879   3.273  0.00  0.00     0.225 C 
HETATM    8  O   UNK N   1      20.843  19.751   4.444  0.00  0.00    -0.643 OA
BRANCH   7   9
HETATM    9  O   UNK N   1      19.483  19.166   2.792  0.00  0.00    -0.770 OA
HETATM   10  H   UNK N   1      19.214  18.379   3.224  0.00  0.00     0.168 HD
ENDBRANCH   7   9
ENDBRANCH   1   7
TORSDOF 4
ENDMDL
MODEL 3
REMARK VINA RESULT:      -4.4     14.804     15.842
REMARK  4 active torsions:
REMARK  status: ('A' for Active; 'I' for Inactive)
REMARK    1  A    between atoms: O_1  and  C_2 
REMARK    2  A    between atoms: C_2  and  C_4 
REMARK    3  A    between atoms: C_4  and  C_6 
REMARK    4  A    between atoms: C_6  and  O_7 
ROOT
HETATM    1  C   UNK N   1      34.003  17.222   8.958  0.00  0.00     0.317 C 
HETATM    2  O   UNK N   1      32.888  16.782   8.730  0.00  0.00    -0.274 OA
ENDROOT
BRANCH   1   3
HETATM    3  C   UNK N   1      34.735  16.723  10.149  0.00  0.00     0.225 C 
HETATM    4  O   UNK N   1      35.808  17.206  10.476  0.00  0.00    -0.643 OA
BRANCH   3   5
HETATM    5  O   UNK N   1      34.209  15.722  10.882  0.00  0.00    -0.770 OA
HETATM    6  H   UNK N   1      34.534  15.553  11.744  0.00  0.00     0.168 HD
ENDBRANCH   3   5
ENDBRANCH   1   3
BRANCH   1   7
HETATM    7  C   UNK N   1      34.572  18.232   8.033  0.00  0.00     0.225 C 
HETATM    8  O   UNK N   1      34.398  18.150   6.827  0.00  0.00    -0.643 OA
BRANCH   7   9
HETATM    9  O   UNK N   1      35.292  19.259   8.529  0.00  0.00    -0.770 OA
HETATM   10  H   UNK N   1      36.107  19.495   8.131  0.00  0.00     0.168 HD
ENDBRANCH   7   9
ENDBRANCH   1   7
TORSDOF 4
ENDMDL
MODEL 4
REMARK VINA RESULT:      -4.4      1.101      3.254
REMARK  4 active torsions:
REMARK  status: ('A' for Active; 'I' for Inactive)
REMARK    1  A    between atoms: O_1  and  C_2 
REMARK    2  A    between atoms: C_2  and  C_4 
REMARK    3  A    between atoms: C_4  and  C_6 
REMARK    4  A    between atoms: C_6  and  O_7 
ROOT
HETATM    1  C   UNK N   1      20.422  20.240   2.374  0.00  0.00     0.317 C 
HETATM    2  O   UNK N   1      20.738  20.835   3.392  0.00  0.00    -0.274 OA
ENDROOT
BRANCH   1   3
HETATM    3  C   UNK N   1      20.654  20.898   1.064  0.00  0.00     0.225 C 
HETATM    4  O   UNK N   1      20.958  20.246   0.078  0.00  0.00    -0.643 OA
BRANCH   3   5
HETATM    5  O   UNK N   1      20.529  22.236   0.961  0.00  0.00    -0.770 OA
HETATM    6  H   UNK N   1      19.685  22.635   1.039  0.00  0.00     0.168 HD
ENDBRANCH   3   5
ENDBRANCH   1   3
BRANCH   1   7
HETATM    7  C   UNK N   1      19.822  18.889   2.497  0.00  0.00     0.225 C 
HETATM    8  O   UNK N   1      20.524  17.899   2.631  0.00  0.00    -0.643 OA
BRANCH   7   9
HETATM    9  O   UNK N   1      18.482  18.750   2.459  0.00  0.00    -0.770 OA
HETATM   10  H   UNK N   1      18.102  17.919   2.251  0.00  0.00     0.168 HD
ENDBRANCH   7   9
ENDBRANCH   1   7
TORSDOF 4
ENDMDL
MODEL 5
REMARK VINA RESULT:      -4.4     14.807     16.148
REMARK  4 active torsions:
REMARK  status: ('A' for Active; 'I' for Inactive)
REMARK    1  A    between atoms: O_1  and  C_2 
REMARK    2  A    between atoms: C_2  and  C_4 
REMARK    3  A    between atoms: C_4  and  C_6 
REMARK    4  A    between atoms: C_6  and  O_7 
ROOT
HETATM    1  C   UNK N   1      34.010  17.208   8.949  0.00  0.00     0.317 C 
HETATM    2  O   UNK N   1      32.905  16.748   8.709  0.00  0.00    -0.274 OA
ENDROOT
BRANCH   1   3
HETATM    3  C   UNK N   1      34.570  18.229   8.028  0.00  0.00     0.225 C 
HETATM    4  O   UNK N   1      34.390  18.155   6.823  0.00  0.00    -0.643 OA
BRANCH   3   5
HETATM    5  O   UNK N   1      35.289  19.253   8.529  0.00  0.00    -0.770 OA
HETATM    6  H   UNK N   1      36.007  19.083   9.106  0.00  0.00     0.168 HD
ENDBRANCH   3   5
ENDBRANCH   1   3
BRANCH   1   7
HETATM    7  C   UNK N   1      34.737  16.725  10.148  0.00  0.00     0.225 C 
HETATM    8  O   UNK N   1      35.808  17.212  10.474  0.00  0.00    -0.643 OA
BRANCH   7   9
HETATM    9  O   UNK N   1      34.209  15.731  10.891  0.00  0.00    -0.770 OA
HETATM   10  H   UNK N   1      34.770  15.096  11.290  0.00  0.00     0.168 HD
ENDBRANCH   7   9
ENDBRANCH   1   7
TORSDOF 4
ENDMDL
MODEL 6
REMARK VINA RESULT:      -4.4     14.270     15.550
REMARK  4 active torsions:
REMARK  status: ('A' for Active; 'I' for Inactive)
REMARK    1  A    between atoms: O_1  and  C_2 
REMARK    2  A    between atoms: C_2  and  C_4 
REMARK    3  A    between atoms: C_4  and  C_6 
REMARK    4  A    between atoms: C_6  and  O_7 
ROOT
HETATM    1  C   UNK N   1      34.613  18.149   8.414  0.00  0.00     0.317 C 
HETATM    2  O   UNK N   1      35.261  19.184   8.439  0.00  0.00    -0.274 OA
ENDROOT
BRANCH   1   3
HETATM    3  C   UNK N   1      33.757  17.874   7.234  0.00  0.00     0.225 C 
HETATM    4  O   UNK N   1      34.224  17.868   6.106  0.00  0.00    -0.643 OA
BRANCH   3   5
HETATM    5  O   UNK N   1      32.444  17.625   7.408  0.00  0.00    -0.770 OA
HETATM    6  H   UNK N   1      32.087  17.579   8.273  0.00  0.00     0.168 HD
ENDBRANCH   3   5
ENDBRANCH   1   3
BRANCH   1   7
HETATM    7  C   UNK N   1      34.715  17.220   9.565  0.00  0.00     0.225 C 
HETATM    8  O   UNK N   1      35.644  17.294  10.354  0.00  0.00    -0.643 OA
BRANCH   7   9
HETATM    9  O   UNK N   1      33.767  16.277   9.745  0.00  0.00    -0.770 OA
HETATM   10  H   UNK N   1      32.865  16.526   9.808  0.00  0.00     0.168 HD
ENDBRANCH   7   9
ENDBRANCH   1   7
TORSDOF 4
ENDMDL
MODEL 7
REMARK VINA RESULT:      -4.4      1.376      2.942
REMARK  4 active torsions:
REMARK  status: ('A' for Active; 'I' for Inactive)
REMARK    1  A    between atoms: O_1  and  C_2 
REMARK    2  A    between atoms: C_2  and  C_4 
REMARK    3  A    between atoms: C_4  and  C_6 
REMARK    4  A    between atoms: C_6  and  O_7 
ROOT
HETATM    1  C   UNK N   1      20.608  19.751   1.768  0.00  0.00     0.317 C 
HETATM    2  O   UNK N   1      20.988  20.012   0.638  0.00  0.00    -0.274 OA
ENDROOT
BRANCH   1   3
HETATM    3  C   UNK N   1      20.906  20.711   2.860  0.00  0.00     0.225 C 
HETATM    4  O   UNK N   1      20.303  20.665   3.920  0.00  0.00    -0.643 OA
BRANCH   3   5
HETATM    5  O   UNK N   1      21.857  21.649   2.679  0.00  0.00    -0.770 OA
HETATM    6  H   UNK N   1      22.331  21.685   1.872  0.00  0.00     0.168 HD
ENDBRANCH   3   5
ENDBRANCH   1   3
BRANCH   1   7
HETATM    7  C   UNK N   1      19.865  18.486   1.994  0.00  0.00     0.225 C 
HETATM    8  O   UNK N   1      20.370  17.405   1.734  0.00  0.00    -0.643 OA
BRANCH   7   9
HETATM    9  O   UNK N   1      18.614  18.529   2.494  0.00  0.00    -0.770 OA
HETATM   10  H   UNK N   1      18.418  18.102   3.305  0.00  0.00     0.168 HD
ENDBRANCH   7   9
ENDBRANCH   1   7
TORSDOF 4
ENDMDL
MODEL 8
REMARK VINA RESULT:      -4.1     11.734     12.987
REMARK  4 active torsions:
REMARK  status: ('A' for Active; 'I' for Inactive)
REMARK    1  A    between atoms: O_1  and  C_2 
REMARK    2  A    between atoms: C_2  and  C_4 
REMARK    3  A    between atoms: C_4  and  C_6 
REMARK    4  A    between atoms: C_6  and  O_7 
ROOT
HETATM    1  C   UNK N   1      22.679  11.892  10.799  0.00  0.00     0.317 C 
HETATM    2  O   UNK N   1      23.119  11.496   9.731  0.00  0.00    -0.274 OA
ENDROOT
BRANCH   1   3
HETATM    3  C   UNK N   1      23.610  12.022  11.947  0.00  0.00     0.225 C 
HETATM    4  O   UNK N   1      23.213  11.900  13.095  0.00  0.00    -0.643 OA
BRANCH   3   5
HETATM    5  O   UNK N   1      24.913  12.280  11.722  0.00  0.00    -0.770 OA
HETATM    6  H   UNK N   1      25.571  11.836  12.219  0.00  0.00     0.168 HD
ENDBRANCH   3   5
ENDBRANCH   1   3
BRANCH   1   7
HETATM    7  C   UNK N   1      21.236  12.222  10.895  0.00  0.00     0.225 C 
HETATM    8  O   UNK N   1      20.674  12.849  10.011  0.00  0.00    -0.643 OA
BRANCH   7   9
HETATM    9  O   UNK N   1      20.533  11.824  11.974  0.00  0.00    -0.770 OA
HETATM   10  H   UNK N   1      20.564  10.929  12.250  0.00  0.00     0.168 HD
ENDBRANCH   7   9
ENDBRANCH   1   7
TORSDOF 4
ENDMDL
MODEL 9
REMARK VINA RESULT:      -4.1     17.643     18.702
REMARK  4 active torsions:
REMARK  status: ('A' for Active; 'I' for Inactive)
REMARK    1  A    between atoms: O_1  and  C_2 
REMARK    2  A    between atoms: C_2  and  C_4 
REMARK    3  A    between atoms: C_4  and  C_6 
REMARK    4  A    between atoms: C_6  and  O_7 
ROOT
HETATM    1  C   UNK N   1      35.087  15.147  11.640  0.00  0.00     0.317 C 
HETATM    2  O   UNK N   1      33.941  14.988  11.253  0.00  0.00    -0.274 OA
ENDROOT
BRANCH   1   3
HETATM    3  C   UNK N   1      35.567  14.345  12.792  0.00  0.00     0.225 C 
HETATM    4  O   UNK N   1      34.857  13.494  13.305  0.00  0.00    -0.643 OA
BRANCH   3   5
HETATM    5  O   UNK N   1      36.805  14.557  13.281  0.00  0.00    -0.770 OA
HETATM    6  H   UNK N   1      37.056  15.414  13.562  0.00  0.00     0.168 HD
ENDBRANCH   3   5
ENDBRANCH   1   3
BRANCH   1   7
HETATM    7  C   UNK N   1      35.943  16.135  10.939  0.00  0.00     0.225 C 
HETATM    8  O   UNK N   1      35.488  17.199  10.550  0.00  0.00    -0.643 OA
BRANCH   7   9
HETATM    9  O   UNK N   1      37.246  15.856  10.728  0.00  0.00    -0.770 OA
HETATM   10  H   UNK N   1      37.908  16.432  11.058  0.00  0.00     0.168 HD
ENDBRANCH   7   9
ENDBRANCH   1   7
TORSDOF 4
ENDMDL
