MODEL 1
REMARK VINA RESULT:      -8.7      0.000      0.000
REMARK  23 active torsions:
REMARK  status: ('A' for Active; 'I' for Inactive)
REMARK    1  A    between atoms: C_15  and  C_6 
REMARK    2  A    between atoms: N_43  and  C_6 
REMARK    3  A    between atoms: C_16  and  C_7 
REMARK    4  A    between atoms: O_56  and  C_7 
REMARK    5  A    between atoms: C_17  and  C_8 
REMARK    6  A    between atoms: O_57  and  C_8 
REMARK    7  A    between atoms: N_42  and  C_13 
REMARK    8  A    between atoms: C_20  and  C_15 
REMARK    9  A    between atoms: C_15  and  O_45 
REMARK   10  A    between atoms: C_20  and  C_16 
REMARK   11  A    between atoms: C_16  and  O_46 
REMARK   12  A    between atoms: C_20  and  O_47 
REMARK   13  A    between atoms: C_21  and  O_48 
REMARK   14  A    between atoms: C_22  and  O_49 
REMARK   15  A    between atoms: N_29  and  C_23 
REMARK   16  A    between atoms: O_50  and  C_26 
REMARK   17  A    between atoms: C_27  and  N_44 
REMARK   18  A    between atoms: P_60  and  O_52 
REMARK   19  A    between atoms: P_61  and  O_54 
REMARK   20  A    between atoms: P_60  and  O_56 
REMARK   21  A    between atoms: P_61  and  O_57 
REMARK   22  A    between atoms: P_60  and  O_59 
REMARK   23  A    between atoms: P_61  and  O_59 
ROOT
HETATM    1  O   UNK N   1      33.327  16.635   8.743  0.00  0.00    -0.294 OA
ENDROOT
BRANCH   1   2
HETATM    2  C   UNK N   1      33.891  15.345   8.892  0.00  0.00     0.215 C 
BRANCH   2   3
HETATM    3  C   UNK N   1      33.832  14.812  10.317  0.00  0.00     0.173 C 
BRANCH   3   4
HETATM    4  C   UNK N   1      34.926  15.365  11.255  0.00  0.00     0.179 C 
BRANCH   4   5
HETATM    5  C   UNK N   1      36.312  15.000  10.709  0.00  0.00     0.167 C 
BRANCH   5   6
HETATM    6  C   UNK N   1      36.932  13.741  11.354  0.00  0.00     0.165 C 
BRANCH   6   7
HETATM    7  N   UNK N   1      36.087  12.966  12.271  0.00  0.00    -0.327 N 
HETATM    8  C   UNK N   1      35.308  11.925  11.804  0.00  0.00     0.065 A 
HETATM    9  C   UNK N   1      35.203  11.625  10.433  0.00  0.00     0.061 A 
HETATM   10  C   UNK N   1      34.597  11.129  12.722  0.00  0.00     0.060 A 
HETATM   11  C   UNK N   1      34.412  10.552   9.956  0.00  0.00     0.037 A 
HETATM   12  C   UNK N   1      33.737   9.747  10.920  0.00  0.00    -0.033 A 
HETATM   13  C   UNK N   1      32.887   8.574  10.565  0.00  0.00     0.050 C 
HETATM   14  C   UNK N   1      33.836  10.052  12.278  0.00  0.00     0.040 A 
HETATM   15  N   UNK N   1      34.661  11.400  14.048  0.00  0.00    -0.348 N 
HETATM   16  C   UNK N   1      35.410  12.433  14.514  0.00  0.00     0.129 A 
ATOM     17  HN  UNK N   1      34.139  10.820  14.705  1.00  0.00     0.166 HD
HETATM   18  C   UNK N   1      36.144  13.219  13.617  0.00  0.00     0.143 A 
HETATM   19  C   UNK N   1      35.470  12.715  15.880  0.00  0.00     0.175 A 
HETATM   20  N   UNK N   1      36.916  14.237  14.104  0.00  0.00    -0.292 N 
HETATM   21  C   UNK N   1      36.949  14.515  15.442  0.00  0.00     0.327 A 
ATOM     22  HN  UNK N   1      37.474  14.797  13.461  1.00  0.00     0.172 HD
HETATM   23  N   UNK N   1      36.229  13.754  16.321  0.00  0.00    -0.287 N 
HETATM   24  O   UNK N   1      37.617  15.450  15.851  0.00  0.00    -0.247 OA
ATOM     25  HN  UNK N   1      36.262  13.968  17.319  1.00  0.00     0.172 HD
BRANCH  11  26
HETATM   26  N   UNK N   1      34.311  10.328   8.532  0.00  0.00    -0.389 N 
HETATM   27  C   UNK N   1      33.385  11.039   7.689  0.00  0.00     0.149 C 
HETATM   28  C   UNK N   1      35.190   9.400   7.870  0.00  0.00     0.149 C 
ENDBRANCH  11  26
BRANCH  19  29
HETATM   29  O   UNK N   1      34.782  11.972  16.762  0.00  0.00    -0.344 OA
HETATM   30  H   UNK N   1      34.910  12.038  17.687  0.00  0.00     0.219 HD
ENDBRANCH  19  29
ENDBRANCH   6   7
ENDBRANCH   5   6
BRANCH   5  31
HETATM   31  O   UNK N   1      37.145  16.117  10.762  0.00  0.00    -0.391 OA
HETATM   32  H   UNK N   1      37.232  16.873  11.363  0.00  0.00     0.210 HD
ENDBRANCH   5  31
ENDBRANCH   4   5
BRANCH   4  33
HETATM   33  O   UNK N   1      34.862  16.760  11.327  0.00  0.00    -0.390 OA
HETATM   34  H   UNK N   1      35.425  17.392  10.852  0.00  0.00     0.210 HD
ENDBRANCH   4  33
ENDBRANCH   3   4
BRANCH   3  35
HETATM   35  O   UNK N   1      32.579  15.116  10.819  0.00  0.00    -0.391 OA
HETATM   36  H   UNK N   1      32.210  14.654  11.587  0.00  0.00     0.210 HD
ENDBRANCH   3  35
ENDBRANCH   2   3
ENDBRANCH   1   2
BRANCH   1  37
HETATM   37  P   UNK N   1      34.494  17.755   8.027  0.00  0.00     0.401 P 
HETATM   38  O   UNK N   1      33.141  18.498   8.173  0.00  0.00    -0.631 OA
BRANCH  37  39
HETATM   39  O   UNK N   1      34.767  16.162   7.406  0.00  0.00    -0.307 OA
HETATM   40  H   UNK N   1      34.037  15.667   7.004  0.00  0.00     0.222 HD
ENDBRANCH  37  39
BRANCH  37  41
HETATM   41  O   UNK N   1      34.126  18.014   6.309  0.00  0.00    -0.195 OA
BRANCH  41  42
HETATM   42  P   UNK N   1      32.686  17.143   5.749  0.00  0.00     0.401 P 
HETATM   43  O   UNK N   1      32.273  17.776   4.393  0.00  0.00    -0.631 OA
BRANCH  42  44
HETATM   44  O   UNK N   1      31.302  17.310   6.786  0.00  0.00    -0.307 OA
HETATM   45  H   UNK N   1      30.360  17.111   6.903  0.00  0.00     0.222 HD
ENDBRANCH  42  44
BRANCH  42  46
HETATM   46  O   UNK N   1      33.004  15.470   5.447  0.00  0.00    -0.294 OA
BRANCH  46  47
HETATM   47  C   UNK N   1      31.860  14.805   5.881  0.00  0.00     0.215 C 
BRANCH  47  48
HETATM   48  C   UNK N   1      30.729  15.065   4.926  0.00  0.00     0.180 C 
HETATM   49  C   UNK N   1      30.557  14.168   3.725  0.00  0.00     0.182 C 
HETATM   50  C   UNK N   1      29.196  14.682   3.265  0.00  0.00     0.198 C 
HETATM   51  C   UNK N   1      28.541  15.062   4.629  0.00  0.00     0.262 C 
HETATM   52  O   UNK N   1      29.526  14.870   5.612  0.00  0.00    -0.353 OA
BRANCH  49  53
HETATM   53  O   UNK N   1      31.559  14.306   2.758  0.00  0.00    -0.390 OA
HETATM   54  H   UNK N   1      32.203  13.909   2.152  0.00  0.00     0.210 HD
ENDBRANCH  49  53
BRANCH  50  55
HETATM   55  O   UNK N   1      29.352  15.815   2.459  0.00  0.00    -0.388 OA
HETATM   56  H   UNK N   1      29.177  16.758   2.315  0.00  0.00     0.210 HD
ENDBRANCH  50  55
BRANCH  51  57
HETATM   57  N   UNK N   1      28.103  16.460   4.777  0.00  0.00    -0.297 N 
HETATM   58  C   UNK N   1      27.747  17.259   3.729  0.00  0.00     0.188 A 
HETATM   59  N   UNK N   1      27.452  18.519   4.131  0.00  0.00    -0.346 N 
HETATM   60  C   UNK N   1      27.636  18.487   5.458  0.00  0.00     0.122 A 
ATOM     61  HN  UNK N   1      27.158  19.309   3.556  1.00  0.00     0.167 HD
HETATM   62  C   UNK N   1      27.511  19.506   6.375  0.00  0.00     0.131 A 
HETATM   63  C   UNK N   1      28.018  17.252   5.850  0.00  0.00     0.142 A 
HETATM   64  N   UNK N   1      27.771  19.217   7.684  0.00  0.00    -0.337 N 
HETATM   65  C   UNK N   1      28.147  17.950   8.069  0.00  0.00     0.183 A 
ATOM     66  HN  UNK N   1      27.685  19.952   8.387  1.00  0.00     0.168 HD
HETATM   67  N   UNK N   1      28.282  16.950   7.141  0.00  0.00    -0.336 N 
ATOM     68  HN  UNK N   1      28.573  16.010   7.416  1.00  0.00     0.168 HD
BRANCH  62  69
HETATM   69  N   UNK N   1      27.149  20.808   5.975  0.00  0.00    -0.383 N 
HETATM   70  H   UNK N   1      26.295  21.003   5.526  0.00  0.00     0.157 HD
HETATM   71  H   UNK N   1      27.773  21.549   6.151  0.00  0.00     0.157 HD
ENDBRANCH  62  69
ENDBRANCH  51  57
ENDBRANCH  47  48
ENDBRANCH  46  47
ENDBRANCH  42  46
ENDBRANCH  41  42
ENDBRANCH  37  41
ENDBRANCH   1  37
TORSDOF 23
ENDMDL
MODEL 2
REMARK VINA RESULT:      -8.6      6.872     12.443
REMARK  23 active torsions:
REMARK  status: ('A' for Active; 'I' for Inactive)
REMARK    1  A    between atoms: C_15  and  C_6 
REMARK    2  A    between atoms: N_43  and  C_6 
REMARK    3  A    between atoms: C_16  and  C_7 
REMARK    4  A    between atoms: O_56  and  C_7 
REMARK    5  A    between atoms: C_17  and  C_8 
REMARK    6  A    between atoms: O_57  and  C_8 
REMARK    7  A    between atoms: N_42  and  C_13 
REMARK    8  A    between atoms: C_20  and  C_15 
REMARK    9  A    between atoms: C_15  and  O_45 
REMARK   10  A    between atoms: C_20  and  C_16 
REMARK   11  A    between atoms: C_16  and  O_46 
REMARK   12  A    between atoms: C_20  and  O_47 
REMARK   13  A    between atoms: C_21  and  O_48 
REMARK   14  A    between atoms: C_22  and  O_49 
REMARK   15  A    between atoms: N_29  and  C_23 
REMARK   16  A    between atoms: O_50  and  C_26 
REMARK   17  A    between atoms: C_27  and  N_44 
REMARK   18  A    between atoms: P_60  and  O_52 
REMARK   19  A    between atoms: P_61  and  O_54 
REMARK   20  A    between atoms: P_60  and  O_56 
REMARK   21  A    between atoms: P_61  and  O_57 
REMARK   22  A    between atoms: P_60  and  O_59 
REMARK   23  A    between atoms: P_61  and  O_59 
ROOT
HETATM    1  O   UNK N   1      22.440  13.650   1.959  0.00  0.00    -0.294 OA
ENDROOT
BRANCH   1   2
HETATM    2  C   UNK N   1      21.933  14.950   1.722  0.00  0.00     0.215 C 
BRANCH   2   3
HETATM    3  C   UNK N   1      20.447  15.092   2.022  0.00  0.00     0.173 C 
BRANCH   3   4
HETATM    4  C   UNK N   1      20.120  15.461   3.485  0.00  0.00     0.179 C 
BRANCH   4   5
HETATM    5  C   UNK N   1      20.166  16.985   3.659  0.00  0.00     0.167 C 
BRANCH   5   6
HETATM    6  C   UNK N   1      20.780  17.447   4.998  0.00  0.00     0.165 C 
BRANCH   6   7
HETATM    7  N   UNK N   1      22.243  17.423   5.115  0.00  0.00    -0.327 N 
HETATM    8  C   UNK N   1      22.879  16.418   5.817  0.00  0.00     0.065 A 
HETATM    9  C   UNK N   1      22.165  15.439   6.534  0.00  0.00     0.061 A 
HETATM   10  C   UNK N   1      24.285  16.358   5.816  0.00  0.00     0.060 A 
HETATM   11  C   UNK N   1      22.817  14.403   7.245  0.00  0.00     0.037 A 
HETATM   12  C   UNK N   1      24.241  14.355   7.190  0.00  0.00    -0.033 A 
HETATM   13  C   UNK N   1      25.059  13.312   7.872  0.00  0.00     0.050 C 
HETATM   14  C   UNK N   1      24.946  15.332   6.485  0.00  0.00     0.040 A 
HETATM   15  N   UNK N   1      25.005  17.294   5.152  0.00  0.00    -0.348 N 
HETATM   16  C   UNK N   1      24.388  18.297   4.474  0.00  0.00     0.129 A 
ATOM     17  HN  UNK N   1      26.023  17.245   5.161  1.00  0.00     0.166 HD
HETATM   18  C   UNK N   1      22.988  18.357   4.443  0.00  0.00     0.143 A 
HETATM   19  C   UNK N   1      25.131  19.264   3.795  0.00  0.00     0.175 A 
HETATM   20  N   UNK N   1      22.383  19.355   3.733  0.00  0.00    -0.292 N 
HETATM   21  C   UNK N   1      23.122  20.309   3.089  0.00  0.00     0.327 A 
ATOM     22  HN  UNK N   1      21.366  19.391   3.682  1.00  0.00     0.172 HD
HETATM   23  N   UNK N   1      24.488  20.258   3.122  0.00  0.00    -0.287 N 
HETATM   24  O   UNK N   1      22.560  21.211   2.491  0.00  0.00    -0.247 OA
ATOM     25  HN  UNK N   1      25.032  20.972   2.637  1.00  0.00     0.172 HD
BRANCH  11  26
HETATM   26  N   UNK N   1      22.026  13.458   7.999  0.00  0.00    -0.389 N 
HETATM   27  C   UNK N   1      21.646  13.670   9.371  0.00  0.00     0.149 C 
HETATM   28  C   UNK N   1      21.525  12.259   7.379  0.00  0.00     0.149 C 
ENDBRANCH  11  26
BRANCH  19  29
HETATM   29  O   UNK N   1      26.473  19.226   3.803  0.00  0.00    -0.344 OA
HETATM   30  H   UNK N   1      26.957  18.628   4.337  0.00  0.00     0.219 HD
ENDBRANCH  19  29
ENDBRANCH   6   7
ENDBRANCH   5   6
BRANCH   5  31
HETATM   31  O   UNK N   1      18.902  17.522   3.413  0.00  0.00    -0.391 OA
HETATM   32  H   UNK N   1      18.246  17.422   2.706  0.00  0.00     0.210 HD
ENDBRANCH   5  31
ENDBRANCH   4   5
BRANCH   4  33
HETATM   33  O   UNK N   1      18.830  15.044   3.828  0.00  0.00    -0.390 OA
HETATM   34  H   UNK N   1      18.575  14.175   4.177  0.00  0.00     0.210 HD
ENDBRANCH   4  33
ENDBRANCH   3   4
BRANCH   3  35
HETATM   35  O   UNK N   1      19.946  16.057   1.167  0.00  0.00    -0.391 OA
HETATM   36  H   UNK N   1      19.004  16.290   1.155  0.00  0.00     0.210 HD
ENDBRANCH   3  35
ENDBRANCH   2   3
ENDBRANCH   1   2
BRANCH   1  37
HETATM   37  P   UNK N   1      22.790  12.821   0.436  0.00  0.00     0.401 P 
HETATM   38  O   UNK N   1      22.700  11.753   1.556  0.00  0.00    -0.631 OA
BRANCH  37  39
HETATM   39  O   UNK N   1      23.634  14.332   0.479  0.00  0.00    -0.307 OA
HETATM   40  H   UNK N   1      23.450  15.009  -0.190  0.00  0.00     0.222 HD
ENDBRANCH  37  39
BRANCH  37  41
HETATM   41  O   UNK N   1      24.471  12.249   0.417  0.00  0.00    -0.195 OA
BRANCH  41  42
HETATM   42  P   UNK N   1      25.401  12.720   1.852  0.00  0.00     0.401 P 
HETATM   43  O   UNK N   1      26.626  11.771   1.930  0.00  0.00    -0.631 OA
BRANCH  42  44
HETATM   44  O   UNK N   1      24.551  12.513   3.354  0.00  0.00    -0.307 OA
HETATM   45  H   UNK N   1      24.371  11.915   4.096  0.00  0.00     0.222 HD
ENDBRANCH  42  44
BRANCH  42  46
HETATM   46  O   UNK N   1      26.019  14.332   1.737  0.00  0.00    -0.294 OA
BRANCH  46  47
HETATM   47  C   UNK N   1      26.220  14.732   3.056  0.00  0.00     0.215 C 
BRANCH  47  48
HETATM   48  C   UNK N   1      27.647  15.166   3.243  0.00  0.00     0.180 C 
HETATM   49  C   UNK N   1      28.618  15.020   2.098  0.00  0.00     0.182 C 
HETATM   50  C   UNK N   1      29.781  15.800   2.703  0.00  0.00     0.198 C 
HETATM   51  C   UNK N   1      29.021  16.865   3.552  0.00  0.00     0.262 C 
HETATM   52  O   UNK N   1      27.657  16.547   3.463  0.00  0.00    -0.353 OA
BRANCH  49  53
HETATM   53  O   UNK N   1      28.940  13.695   1.784  0.00  0.00    -0.390 OA
HETATM   54  H   UNK N   1      29.603  13.006   1.628  0.00  0.00     0.210 HD
ENDBRANCH  49  53
BRANCH  50  55
HETATM   55  O   UNK N   1      30.549  14.967   3.524  0.00  0.00    -0.388 OA
HETATM   56  H   UNK N   1      30.689  14.089   3.911  0.00  0.00     0.210 HD
ENDBRANCH  50  55
BRANCH  51  57
HETATM   57  N   UNK N   1      29.327  16.891   4.993  0.00  0.00    -0.297 N 
HETATM   58  C   UNK N   1      28.381  16.793   5.972  0.00  0.00     0.188 A 
HETATM   59  N   UNK N   1      28.918  16.913   7.210  0.00  0.00    -0.346 N 
HETATM   60  C   UNK N   1      30.226  17.093   6.978  0.00  0.00     0.122 A 
ATOM     61  HN  UNK N   1      28.439  16.876   8.109  1.00  0.00     0.167 HD
HETATM   62  C   UNK N   1      31.245  17.305   7.879  0.00  0.00     0.131 A 
HETATM   63  C   UNK N   1      30.476  17.071   5.650  0.00  0.00     0.142 A 
HETATM   64  N   UNK N   1      32.506  17.474   7.384  0.00  0.00    -0.337 N 
HETATM   65  C   UNK N   1      32.746  17.438   6.029  0.00  0.00     0.183 A 
ATOM     66  HN  UNK N   1      33.282  17.632   8.028  1.00  0.00     0.168 HD
HETATM   67  N   UNK N   1      31.718  17.241   5.143  0.00  0.00    -0.336 N 
ATOM     68  HN  UNK N   1      31.884  17.224   4.136  1.00  0.00     0.168 HD
BRANCH  62  69
HETATM   69  N   UNK N   1      30.993  17.366   9.264  0.00  0.00    -0.383 N 
HETATM   70  H   UNK N   1      31.253  18.140   9.815  0.00  0.00     0.157 HD
HETATM   71  H   UNK N   1      30.539  16.607   9.698  0.00  0.00     0.157 HD
ENDBRANCH  62  69
ENDBRANCH  51  57
ENDBRANCH  47  48
ENDBRANCH  46  47
ENDBRANCH  42  46
ENDBRANCH  41  42
ENDBRANCH  37  41
ENDBRANCH   1  37
TORSDOF 23
ENDMDL
MODEL 3
REMARK VINA RESULT:      -8.5      2.817     10.656
REMARK  23 active torsions:
REMARK  status: ('A' for Active; 'I' for Inactive)
REMARK    1  A    between atoms: C_15  and  C_6 
REMARK    2  A    between atoms: N_43  and  C_6 
REMARK    3  A    between atoms: C_16  and  C_7 
REMARK    4  A    between atoms: O_56  and  C_7 
REMARK    5  A    between atoms: C_17  and  C_8 
REMARK    6  A    between atoms: O_57  and  C_8 
REMARK    7  A    between atoms: N_42  and  C_13 
REMARK    8  A    between atoms: C_20  and  C_15 
REMARK    9  A    between atoms: C_15  and  O_45 
REMARK   10  A    between atoms: C_20  and  C_16 
REMARK   11  A    between atoms: C_16  and  O_46 
REMARK   12  A    between atoms: C_20  and  O_47 
REMARK   13  A    between atoms: C_21  and  O_48 
REMARK   14  A    between atoms: C_22  and  O_49 
REMARK   15  A    between atoms: N_29  and  C_23 
REMARK   16  A    between atoms: O_50  and  C_26 
REMARK   17  A    between atoms: C_27  and  N_44 
REMARK   18  A    between atoms: P_60  and  O_52 
REMARK   19  A    between atoms: P_61  and  O_54 
REMARK   20  A    between atoms: P_60  and  O_56 
REMARK   21  A    between atoms: P_61  and  O_57 
REMARK   22  A    between atoms: P_60  and  O_59 
REMARK   23  A    between atoms: P_61  and  O_59 
ROOT
HETATM    1  O   UNK N   1      34.105  13.445   7.193  0.00  0.00    -0.294 OA
ENDROOT
BRANCH   1   2
HETATM    2  C   UNK N   1      34.822  12.984   6.064  0.00  0.00     0.215 C 
BRANCH   2   3
HETATM    3  C   UNK N   1      33.952  12.757   4.835  0.00  0.00     0.173 C 
BRANCH   3   4
HETATM    4  C   UNK N   1      33.465  14.049   4.146  0.00  0.00     0.179 C 
BRANCH   4   5
HETATM    5  C   UNK N   1      31.957  14.221   4.370  0.00  0.00     0.167 C 
BRANCH   5   6
HETATM    6  C   UNK N   1      31.460  15.675   4.217  0.00  0.00     0.165 C 
BRANCH   6   7
HETATM    7  N   UNK N   1      30.690  16.248   5.328  0.00  0.00    -0.327 N 
HETATM    8  C   UNK N   1      29.323  16.066   5.408  0.00  0.00     0.065 A 
HETATM    9  C   UNK N   1      28.593  15.424   4.390  0.00  0.00     0.061 A 
HETATM   10  C   UNK N   1      28.630  16.529   6.542  0.00  0.00     0.060 A 
HETATM   11  C   UNK N   1      27.194  15.230   4.477  0.00  0.00     0.037 A 
HETATM   12  C   UNK N   1      26.533  15.680   5.658  0.00  0.00    -0.033 A 
HETATM   13  C   UNK N   1      25.070  15.524   5.895  0.00  0.00     0.050 C 
HETATM   14  C   UNK N   1      27.259  16.323   6.661  0.00  0.00     0.040 A 
HETATM   15  N   UNK N   1      29.298  17.167   7.533  0.00  0.00    -0.348 N 
HETATM   16  C   UNK N   1      30.640  17.366   7.454  0.00  0.00     0.129 A 
ATOM     17  HN  UNK N   1      28.786  17.502   8.349  1.00  0.00     0.166 HD
HETATM   18  C   UNK N   1      31.349  16.889   6.345  0.00  0.00     0.143 A 
HETATM   19  C   UNK N   1      31.326  18.029   8.473  0.00  0.00     0.175 A 
HETATM   20  N   UNK N   1      32.703  17.072   6.295  0.00  0.00    -0.292 N 
HETATM   21  C   UNK N   1      33.359  17.742   7.289  0.00  0.00     0.327 A 
ATOM     22  HN  UNK N   1      33.230  16.705   5.503  1.00  0.00     0.172 HD
HETATM   23  N   UNK N   1      32.670  18.215   8.371  0.00  0.00    -0.287 N 
HETATM   24  O   UNK N   1      34.562  17.924   7.206  0.00  0.00    -0.247 OA
ATOM     25  HN  UNK N   1      33.169  18.711   9.110  1.00  0.00     0.172 HD
BRANCH  11  26
HETATM   26  N   UNK N   1      26.498  14.604   3.374  0.00  0.00    -0.389 N 
HETATM   27  C   UNK N   1      26.037  15.334   2.222  0.00  0.00     0.149 C 
HETATM   28  C   UNK N   1      26.279  13.182   3.356  0.00  0.00     0.149 C 
ENDBRANCH  11  26
BRANCH  19  29
HETATM   29  O   UNK N   1      30.670  18.490   9.551  0.00  0.00    -0.344 OA
HETATM   30  H   UNK N   1      29.738  18.581   9.575  0.00  0.00     0.219 HD
ENDBRANCH  19  29
ENDBRANCH   6   7
ENDBRANCH   5   6
BRANCH   5  31
HETATM   31  O   UNK N   1      31.595  13.637   5.584  0.00  0.00    -0.391 OA
HETATM   32  H   UNK N   1      30.988  13.878   6.301  0.00  0.00     0.210 HD
ENDBRANCH   5  31
ENDBRANCH   4   5
BRANCH   4  33
HETATM   33  O   UNK N   1      34.096  15.172   4.690  0.00  0.00    -0.390 OA
HETATM   34  H   UNK N   1      34.349  15.304   5.617  0.00  0.00     0.210 HD
ENDBRANCH   4  33
ENDBRANCH   3   4
BRANCH   3  35
HETATM   35  O   UNK N   1      34.687  11.994   3.946  0.00  0.00    -0.391 OA
HETATM   36  H   UNK N   1      34.875  12.299   3.044  0.00  0.00     0.210 HD
ENDBRANCH   3  35
ENDBRANCH   2   3
ENDBRANCH   1   2
BRANCH   1  37
HETATM   37  P   UNK N   1      35.207  13.877   8.508  0.00  0.00     0.401 P 
HETATM   38  O   UNK N   1      33.967  13.184   9.128  0.00  0.00    -0.631 OA
BRANCH  37  39
HETATM   39  O   UNK N   1      35.235  15.116   7.299  0.00  0.00    -0.307 OA
HETATM   40  H   UNK N   1      35.508  14.904   6.394  0.00  0.00     0.222 HD
ENDBRANCH  37  39
BRANCH  37  41
HETATM   41  O   UNK N   1      34.555  15.243   9.436  0.00  0.00    -0.195 OA
BRANCH  41  42
HETATM   42  P   UNK N   1      35.714  15.942  10.582  0.00  0.00     0.401 P 
HETATM   43  O   UNK N   1      35.717  17.476  10.343  0.00  0.00    -0.631 OA
BRANCH  42  44
HETATM   44  O   UNK N   1      37.356  15.427  10.344  0.00  0.00    -0.307 OA
HETATM   45  H   UNK N   1      37.957  14.895   9.800  0.00  0.00     0.222 HD
ENDBRANCH  42  44
BRANCH  42  46
HETATM   46  O   UNK N   1      35.246  15.692  12.229  0.00  0.00    -0.294 OA
BRANCH  46  47
HETATM   47  C   UNK N   1      36.319  15.017  12.806  0.00  0.00     0.215 C 
BRANCH  47  48
HETATM   48  C   UNK N   1      35.815  13.839  13.592  0.00  0.00     0.180 C 
HETATM   49  C   UNK N   1      35.417  12.581  12.862  0.00  0.00     0.182 C 
HETATM   50  C   UNK N   1      35.238  11.674  14.076  0.00  0.00     0.198 C 
HETATM   51  C   UNK N   1      36.314  12.255  15.046  0.00  0.00     0.262 C 
HETATM   52  O   UNK N   1      36.853  13.387  14.413  0.00  0.00    -0.353 OA
BRANCH  49  53
HETATM   53  O   UNK N   1      34.258  12.708  12.088  0.00  0.00    -0.390 OA
HETATM   54  H   UNK N   1      33.829  12.774  11.221  0.00  0.00     0.210 HD
ENDBRANCH  49  53
BRANCH  50  55
HETATM   55  O   UNK N   1      33.955  11.828  14.612  0.00  0.00    -0.388 OA
HETATM   56  H   UNK N   1      33.228  11.458  15.136  0.00  0.00     0.210 HD
ENDBRANCH  50  55
BRANCH  51  57
HETATM   57  N   UNK N   1      35.828  12.727  16.353  0.00  0.00    -0.297 N 
HETATM   58  C   UNK N   1      35.658  14.044  16.669  0.00  0.00     0.188 A 
HETATM   59  N   UNK N   1      35.268  14.209  17.957  0.00  0.00    -0.346 N 
HETATM   60  C   UNK N   1      35.201  12.960  18.438  0.00  0.00     0.122 A 
ATOM     61  HN  UNK N   1      35.071  15.082  18.446  1.00  0.00     0.167 HD
HETATM   62  C   UNK N   1      34.887  12.536  19.709  0.00  0.00     0.131 A 
HETATM   63  C   UNK N   1      35.528  12.069  17.476  0.00  0.00     0.142 A 
HETATM   64  N   UNK N   1      34.903  11.193  19.952  0.00  0.00    -0.337 N 
HETATM   65  C   UNK N   1      35.227  10.296  18.959  0.00  0.00     0.183 A 
ATOM     66  HN  UNK N   1      34.673  10.849  20.885  1.00  0.00     0.168 HD
HETATM   67  N   UNK N   1      35.552  10.736  17.701  0.00  0.00    -0.336 N 
ATOM     68  HN  UNK N   1      35.806  10.079  16.962  1.00  0.00     0.168 HD
BRANCH  62  69
HETATM   69  N   UNK N   1      34.580  13.458  20.730  0.00  0.00    -0.383 N 
HETATM   70  H   UNK N   1      34.616  13.219  21.685  0.00  0.00     0.157 HD
HETATM   71  H   UNK N   1      34.319  14.374  20.480  0.00  0.00     0.157 HD
ENDBRANCH  62  69
ENDBRANCH  51  57
ENDBRANCH  47  48
ENDBRANCH  46  47
ENDBRANCH  42  46
ENDBRANCH  41  42
ENDBRANCH  37  41
ENDBRANCH   1  37
TORSDOF 23
ENDMDL
MODEL 4
REMARK VINA RESULT:      -8.4      2.282      3.116
REMARK  23 active torsions:
REMARK  status: ('A' for Active; 'I' for Inactive)
REMARK    1  A    between atoms: C_15  and  C_6 
REMARK    2  A    between atoms: N_43  and  C_6 
REMARK    3  A    between atoms: C_16  and  C_7 
REMARK    4  A    between atoms: O_56  and  C_7 
REMARK    5  A    between atoms: C_17  and  C_8 
REMARK    6  A    between atoms: O_57  and  C_8 
REMARK    7  A    between atoms: N_42  and  C_13 
REMARK    8  A    between atoms: C_20  and  C_15 
REMARK    9  A    between atoms: C_15  and  O_45 
REMARK   10  A    between atoms: C_20  and  C_16 
REMARK   11  A    between atoms: C_16  and  O_46 
REMARK   12  A    between atoms: C_20  and  O_47 
REMARK   13  A    between atoms: C_21  and  O_48 
REMARK   14  A    between atoms: C_22  and  O_49 
REMARK   15  A    between atoms: N_29  and  C_23 
REMARK   16  A    between atoms: O_50  and  C_26 
REMARK   17  A    between atoms: C_27  and  N_44 
REMARK   18  A    between atoms: P_60  and  O_52 
REMARK   19  A    between atoms: P_61  and  O_54 
REMARK   20  A    between atoms: P_60  and  O_56 
REMARK   21  A    between atoms: P_61  and  O_57 
REMARK   22  A    between atoms: P_60  and  O_59 
REMARK   23  A    between atoms: P_61  and  O_59 
ROOT
HETATM    1  O   UNK N   1      34.266  13.136   9.488  0.00  0.00    -0.294 OA
ENDROOT
BRANCH   1   2
HETATM    2  C   UNK N   1      35.287  13.021  10.461  0.00  0.00     0.215 C 
BRANCH   2   3
HETATM    3  C   UNK N   1      34.945  13.680  11.790  0.00  0.00     0.173 C 
BRANCH   3   4
HETATM    4  C   UNK N   1      36.153  14.285  12.536  0.00  0.00     0.179 C 
BRANCH   4   5
HETATM    5  C   UNK N   1      36.344  13.571  13.881  0.00  0.00     0.167 C 
BRANCH   5   6
HETATM    6  C   UNK N   1      35.049  12.957  14.457  0.00  0.00     0.165 C 
BRANCH   6   7
HETATM    7  N   UNK N   1      35.193  11.893  15.458  0.00  0.00    -0.327 N 
HETATM    8  C   UNK N   1      35.350  10.576  15.072  0.00  0.00     0.065 A 
HETATM    9  C   UNK N   1      35.276  10.178  13.723  0.00  0.00     0.061 A 
HETATM   10  C   UNK N   1      35.598   9.595  16.049  0.00  0.00     0.060 A 
HETATM   11  C   UNK N   1      35.447   8.830  13.327  0.00  0.00     0.037 A 
HETATM   12  C   UNK N   1      35.733   7.871  14.343  0.00  0.00    -0.033 A 
HETATM   13  C   UNK N   1      35.956   6.423  14.071  0.00  0.00     0.050 C 
HETATM   14  C   UNK N   1      35.797   8.268  15.680  0.00  0.00     0.040 A 
HETATM   15  N   UNK N   1      35.658   9.939  17.358  0.00  0.00    -0.348 N 
HETATM   16  C   UNK N   1      35.486  11.229  17.749  0.00  0.00     0.129 A 
ATOM     17  HN  UNK N   1      35.834   9.220  18.060  1.00  0.00     0.166 HD
HETATM   18  C   UNK N   1      35.264  12.223  16.787  0.00  0.00     0.143 A 
HETATM   19  C   UNK N   1      35.542  11.582  19.098  0.00  0.00     0.175 A 
HETATM   20  N   UNK N   1      35.122  13.520  17.194  0.00  0.00    -0.292 N 
HETATM   21  C   UNK N   1      35.158  13.849  18.520  0.00  0.00     0.327 A 
ATOM     22  HN  UNK N   1      34.987  14.253  16.498  1.00  0.00     0.172 HD
HETATM   23  N   UNK N   1      35.368  12.881  19.463  0.00  0.00    -0.287 N 
HETATM   24  O   UNK N   1      34.994  15.008  18.862  0.00  0.00    -0.247 OA
ATOM     25  HN  UNK N   1      35.396  13.136  20.451  1.00  0.00     0.172 HD
BRANCH  11  26
HETATM   26  N   UNK N   1      35.312   8.482  11.931  0.00  0.00    -0.389 N 
HETATM   27  C   UNK N   1      34.057   8.107  11.333  0.00  0.00     0.149 C 
HETATM   28  C   UNK N   1      36.444   8.549  11.044  0.00  0.00     0.149 C 
ENDBRANCH  11  26
BRANCH  19  29
HETATM   29  O   UNK N   1      35.761  10.650  20.040  0.00  0.00    -0.344 OA
HETATM   30  H   UNK N   1      35.181  10.516  20.763  0.00  0.00     0.219 HD
ENDBRANCH  19  29
ENDBRANCH   6   7
ENDBRANCH   5   6
BRANCH   5  31
HETATM   31  O   UNK N   1      37.000  14.420  14.773  0.00  0.00    -0.391 OA
HETATM   32  H   UNK N   1      37.660  14.294  15.472  0.00  0.00     0.210 HD
ENDBRANCH   5  31
ENDBRANCH   4   5
BRANCH   4  33
HETATM   33  O   UNK N   1      37.331  14.109  11.803  0.00  0.00    -0.390 OA
HETATM   34  H   UNK N   1      37.484  13.461  11.098  0.00  0.00     0.210 HD
ENDBRANCH   4  33
ENDBRANCH   3   4
BRANCH   3  35
HETATM   35  O   UNK N   1      34.007  14.664  11.532  0.00  0.00    -0.391 OA
HETATM   36  H   UNK N   1      33.135  14.663  11.956  0.00  0.00     0.210 HD
ENDBRANCH   3  35
ENDBRANCH   2   3
ENDBRANCH   1   2
BRANCH   1  37
HETATM   37  P   UNK N   1      34.779  14.180   8.155  0.00  0.00     0.401 P 
HETATM   38  O   UNK N   1      35.971  14.030   9.135  0.00  0.00    -0.631 OA
BRANCH  37  39
HETATM   39  O   UNK N   1      33.123  14.508   8.541  0.00  0.00    -0.307 OA
HETATM   40  H   UNK N   1      32.605  13.859   9.041  0.00  0.00     0.222 HD
ENDBRANCH  37  39
BRANCH  37  41
HETATM   41  O   UNK N   1      34.907  15.864   8.704  0.00  0.00    -0.195 OA
BRANCH  41  42
HETATM   42  P   UNK N   1      33.989  17.009   7.707  0.00  0.00     0.401 P 
HETATM   43  O   UNK N   1      34.788  18.340   7.696  0.00  0.00    -0.631 OA
BRANCH  42  44
HETATM   44  O   UNK N   1      32.420  17.408   8.338  0.00  0.00    -0.307 OA
HETATM   45  H   UNK N   1      31.928  17.938   8.984  0.00  0.00     0.222 HD
ENDBRANCH  42  44
BRANCH  42  46
HETATM   46  O   UNK N   1      33.854  16.490   6.063  0.00  0.00    -0.294 OA
BRANCH  46  47
HETATM   47  C   UNK N   1      33.318  17.583   5.386  0.00  0.00     0.215 C 
BRANCH  47  48
HETATM   48  C   UNK N   1      32.040  17.181   4.704  0.00  0.00     0.180 C 
HETATM   49  C   UNK N   1      32.094  16.205   3.555  0.00  0.00     0.182 C 
HETATM   50  C   UNK N   1      30.595  15.961   3.410  0.00  0.00     0.198 C 
HETATM   51  C   UNK N   1      30.122  16.106   4.889  0.00  0.00     0.262 C 
HETATM   52  O   UNK N   1      31.247  16.500   5.631  0.00  0.00    -0.353 OA
BRANCH  49  53
HETATM   53  O   UNK N   1      32.689  16.715   2.396  0.00  0.00    -0.390 OA
HETATM   54  H   UNK N   1      32.655  17.293   1.617  0.00  0.00     0.210 HD
ENDBRANCH  49  53
BRANCH  50  55
HETATM   55  O   UNK N   1      30.018  16.951   2.606  0.00  0.00    -0.388 OA
HETATM   56  H   UNK N   1      29.333  17.627   2.492  0.00  0.00     0.210 HD
ENDBRANCH  50  55
BRANCH  51  57
HETATM   57  N   UNK N   1      29.098  17.132   5.150  0.00  0.00    -0.297 N 
HETATM   58  C   UNK N   1      28.305  17.677   4.181  0.00  0.00     0.188 A 
HETATM   59  N   UNK N   1      27.497  18.647   4.675  0.00  0.00    -0.346 N 
HETATM   60  C   UNK N   1      27.808  18.695   5.978  0.00  0.00     0.122 A 
ATOM     61  HN  UNK N   1      26.811  19.209   4.172  1.00  0.00     0.167 HD
HETATM   62  C   UNK N   1      27.315  19.528   6.957  0.00  0.00     0.131 A 
HETATM   63  C   UNK N   1      28.761  17.782   6.267  0.00  0.00     0.142 A 
HETATM   64  N   UNK N   1      27.811  19.385   8.221  0.00  0.00    -0.337 N 
HETATM   65  C   UNK N   1      28.773  18.442   8.503  0.00  0.00     0.183 A 
ATOM     66  HN  UNK N   1      27.463  19.988   8.968  1.00  0.00     0.168 HD
HETATM   67  N   UNK N   1      29.266  17.630   7.513  0.00  0.00    -0.336 N 
ATOM     68  HN  UNK N   1      29.988  16.936   7.710  1.00  0.00     0.168 HD
BRANCH  62  69
HETATM   69  N   UNK N   1      26.347  20.508   6.661  0.00  0.00    -0.383 N 
HETATM   70  H   UNK N   1      25.384  20.358   6.799  0.00  0.00     0.157 HD
HETATM   71  H   UNK N   1      26.645  21.376   6.302  0.00  0.00     0.157 HD
ENDBRANCH  62  69
ENDBRANCH  51  57
ENDBRANCH  47  48
ENDBRANCH  46  47
ENDBRANCH  42  46
ENDBRANCH  41  42
ENDBRANCH  37  41
ENDBRANCH   1  37
TORSDOF 23
ENDMDL
MODEL 5
REMARK VINA RESULT:      -8.3      2.414     10.434
REMARK  23 active torsions:
REMARK  status: ('A' for Active; 'I' for Inactive)
REMARK    1  A    between atoms: C_15  and  C_6 
REMARK    2  A    between atoms: N_43  and  C_6 
REMARK    3  A    between atoms: C_16  and  C_7 
REMARK    4  A    between atoms: O_56  and  C_7 
REMARK    5  A    between atoms: C_17  and  C_8 
REMARK    6  A    between atoms: O_57  and  C_8 
REMARK    7  A    between atoms: N_42  and  C_13 
REMARK    8  A    between atoms: C_20  and  C_15 
REMARK    9  A    between atoms: C_15  and  O_45 
REMARK   10  A    between atoms: C_20  and  C_16 
REMARK   11  A    between atoms: C_16  and  O_46 
REMARK   12  A    between atoms: C_20  and  O_47 
REMARK   13  A    between atoms: C_21  and  O_48 
REMARK   14  A    between atoms: C_22  and  O_49 
REMARK   15  A    between atoms: N_29  and  C_23 
REMARK   16  A    between atoms: O_50  and  C_26 
REMARK   17  A    between atoms: C_27  and  N_44 
REMARK   18  A    between atoms: P_60  and  O_52 
REMARK   19  A    between atoms: P_61  and  O_54 
REMARK   20  A    between atoms: P_60  and  O_56 
REMARK   21  A    between atoms: P_61  and  O_57 
REMARK   22  A    between atoms: P_60  and  O_59 
REMARK   23  A    between atoms: P_61  and  O_59 
ROOT
HETATM    1  O   UNK N   1      34.738  15.714   4.903  0.00  0.00    -0.294 OA
ENDROOT
BRANCH   1   2
HETATM    2  C   UNK N   1      34.225  14.606   4.188  0.00  0.00     0.215 C 
BRANCH   2   3
HETATM    3  C   UNK N   1      32.708  14.605   4.064  0.00  0.00     0.173 C 
BRANCH   3   4
HETATM    4  C   UNK N   1      32.132  15.760   3.217  0.00  0.00     0.179 C 
BRANCH   4   5
HETATM    5  C   UNK N   1      30.961  16.416   3.961  0.00  0.00     0.167 C 
BRANCH   5   6
HETATM    6  C   UNK N   1      30.200  15.459   4.904  0.00  0.00     0.165 C 
BRANCH   6   7
HETATM    7  N   UNK N   1      29.071  16.012   5.661  0.00  0.00    -0.327 N 
HETATM    8  C   UNK N   1      27.769  15.732   5.294  0.00  0.00     0.065 A 
HETATM    9  C   UNK N   1      27.460  15.001   4.132  0.00  0.00     0.061 A 
HETATM   10  C   UNK N   1      26.711  16.183   6.105  0.00  0.00     0.060 A 
HETATM   11  C   UNK N   1      26.126  14.706   3.761  0.00  0.00     0.037 A 
HETATM   12  C   UNK N   1      25.084  15.149   4.628  0.00  0.00    -0.033 A 
HETATM   13  C   UNK N   1      23.637  14.893   4.375  0.00  0.00     0.050 C 
HETATM   14  C   UNK N   1      25.393  15.881   5.775  0.00  0.00     0.040 A 
HETATM   15  N   UNK N   1      26.970  16.905   7.222  0.00  0.00    -0.348 N 
HETATM   16  C   UNK N   1      28.246  17.201   7.580  0.00  0.00     0.129 A 
ATOM     17  HN  UNK N   1      26.196  17.232   7.800  1.00  0.00     0.166 HD
HETATM   18  C   UNK N   1      29.313  16.738   6.799  0.00  0.00     0.143 A 
HETATM   19  C   UNK N   1      28.512  17.950   8.728  0.00  0.00     0.175 A 
HETATM   20  N   UNK N   1      30.592  17.020   7.190  0.00  0.00    -0.292 N 
HETATM   21  C   UNK N   1      30.838  17.772   8.304  0.00  0.00     0.327 A 
ATOM     22  HN  UNK N   1      31.375  16.664   6.641  1.00  0.00     0.172 HD
HETATM   23  N   UNK N   1      29.800  18.231   9.066  0.00  0.00    -0.287 N 
HETATM   24  O   UNK N   1      31.986  18.041   8.613  0.00  0.00    -0.247 OA
ATOM     25  HN  UNK N   1      29.993  18.790   9.898  1.00  0.00     0.172 HD
BRANCH  11  26
HETATM   26  N   UNK N   1      25.878  13.991   2.530  0.00  0.00    -0.389 N 
HETATM   27  C   UNK N   1      26.038  12.566   2.404  0.00  0.00     0.149 C 
HETATM   28  C   UNK N   1      25.395  14.682   1.363  0.00  0.00     0.149 C 
ENDBRANCH  11  26
BRANCH  19  29
HETATM   29  O   UNK N   1      27.508  18.400   9.498  0.00  0.00    -0.344 OA
HETATM   30  H   UNK N   1      26.752  17.883   9.695  0.00  0.00     0.219 HD
ENDBRANCH  19  29
ENDBRANCH   6   7
ENDBRANCH   5   6
BRANCH   5  31
HETATM   31  O   UNK N   1      30.134  17.070   3.048  0.00  0.00    -0.391 OA
HETATM   32  H   UNK N   1      30.177  17.245   2.096  0.00  0.00     0.210 HD
ENDBRANCH   5  31
ENDBRANCH   4   5
BRANCH   4  33
HETATM   33  O   UNK N   1      33.096  16.751   3.006  0.00  0.00    -0.390 OA
HETATM   34  H   UNK N   1      33.129  17.627   3.420  0.00  0.00     0.210 HD
ENDBRANCH   4  33
ENDBRANCH   3   4
BRANCH   3  35
HETATM   35  O   UNK N   1      32.341  13.388   3.516  0.00  0.00    -0.391 OA
HETATM   36  H   UNK N   1      32.953  12.637   3.481  0.00  0.00     0.210 HD
ENDBRANCH   3  35
ENDBRANCH   2   3
ENDBRANCH   1   2
BRANCH   1  37
HETATM   37  P   UNK N   1      33.973  15.851   6.491  0.00  0.00     0.401 P 
HETATM   38  O   UNK N   1      34.178  17.282   5.932  0.00  0.00    -0.631 OA
BRANCH  37  39
HETATM   39  O   UNK N   1      35.110  14.546   6.509  0.00  0.00    -0.307 OA
HETATM   40  H   UNK N   1      34.973  13.791   7.101  0.00  0.00     0.222 HD
ENDBRANCH  37  39
BRANCH  37  41
HETATM   41  O   UNK N   1      35.137  16.458   7.687  0.00  0.00    -0.195 OA
BRANCH  41  42
HETATM   42  P   UNK N   1      34.798  15.925   9.345  0.00  0.00     0.401 P 
HETATM   43  O   UNK N   1      33.467  15.128   9.301  0.00  0.00    -0.631 OA
BRANCH  42  44
HETATM   44  O   UNK N   1      34.533  17.220  10.472  0.00  0.00    -0.307 OA
HETATM   45  H   UNK N   1      33.989  17.994  10.691  0.00  0.00     0.222 HD
ENDBRANCH  42  44
BRANCH  42  46
HETATM   46  O   UNK N   1      36.009  14.849   9.951  0.00  0.00    -0.294 OA
BRANCH  46  47
HETATM   47  C   UNK N   1      36.048  15.092  11.323  0.00  0.00     0.215 C 
BRANCH  47  48
HETATM   48  C   UNK N   1      35.726  13.829  12.071  0.00  0.00     0.180 C 
HETATM   49  C   UNK N   1      35.358  12.587  11.298  0.00  0.00     0.182 C 
HETATM   50  C   UNK N   1      35.381  11.596  12.458  0.00  0.00     0.198 C 
HETATM   51  C   UNK N   1      36.501  12.209  13.355  0.00  0.00     0.262 C 
HETATM   52  O   UNK N   1      36.876  13.421  12.753  0.00  0.00    -0.353 OA
BRANCH  49  53
HETATM   53  O   UNK N   1      34.119  12.658  10.652  0.00  0.00    -0.390 OA
HETATM   54  H   UNK N   1      33.160  12.803  10.686  0.00  0.00     0.210 HD
ENDBRANCH  49  53
BRANCH  50  55
HETATM   55  O   UNK N   1      34.152  11.604  13.127  0.00  0.00    -0.388 OA
HETATM   56  H   UNK N   1      33.185  11.544  13.080  0.00  0.00     0.210 HD
ENDBRANCH  50  55
BRANCH  51  57
HETATM   57  N   UNK N   1      36.116  12.557  14.734  0.00  0.00    -0.297 N 
HETATM   58  C   UNK N   1      35.238  11.829  15.484  0.00  0.00     0.188 A 
HETATM   59  N   UNK N   1      35.005  12.402  16.690  0.00  0.00    -0.346 N 
HETATM   60  C   UNK N   1      35.759  13.510  16.672  0.00  0.00     0.122 A 
ATOM     61  HN  UNK N   1      34.397  12.068  17.437  1.00  0.00     0.167 HD
HETATM   62  C   UNK N   1      35.883  14.490  17.630  0.00  0.00     0.131 A 
HETATM   63  C   UNK N   1      36.434  13.601  15.505  0.00  0.00     0.142 A 
HETATM   64  N   UNK N   1      36.716  15.538  17.364  0.00  0.00    -0.337 N 
HETATM   65  C   UNK N   1      37.405  15.610  16.174  0.00  0.00     0.183 A 
ATOM     66  HN  UNK N   1      36.829  16.279  18.056  1.00  0.00     0.168 HD
HETATM   67  N   UNK N   1      37.260  14.633  15.223  0.00  0.00    -0.336 N 
ATOM     68  HN  UNK N   1      37.758  14.685  14.333  1.00  0.00     0.168 HD
BRANCH  62  69
HETATM   69  N   UNK N   1      35.157  14.426  18.837  0.00  0.00    -0.383 N 
HETATM   70  H   UNK N   1      34.473  15.092  19.078  0.00  0.00     0.157 HD
HETATM   71  H   UNK N   1      35.341  13.687  19.462  0.00  0.00     0.157 HD
ENDBRANCH  62  69
ENDBRANCH  51  57
ENDBRANCH  47  48
ENDBRANCH  46  47
ENDBRANCH  42  46
ENDBRANCH  41  42
ENDBRANCH  37  41
ENDBRANCH   1  37
TORSDOF 23
ENDMDL
MODEL 6
REMARK VINA RESULT:      -8.2      5.021     13.249
REMARK  23 active torsions:
REMARK  status: ('A' for Active; 'I' for Inactive)
REMARK    1  A    between atoms: C_15  and  C_6 
REMARK    2  A    between atoms: N_43  and  C_6 
REMARK    3  A    between atoms: C_16  and  C_7 
REMARK    4  A    between atoms: O_56  and  C_7 
REMARK    5  A    between atoms: C_17  and  C_8 
REMARK    6  A    between atoms: O_57  and  C_8 
REMARK    7  A    between atoms: N_42  and  C_13 
REMARK    8  A    between atoms: C_20  and  C_15 
REMARK    9  A    between atoms: C_15  and  O_45 
REMARK   10  A    between atoms: C_20  and  C_16 
REMARK   11  A    between atoms: C_16  and  O_46 
REMARK   12  A    between atoms: C_20  and  O_47 
REMARK   13  A    between atoms: C_21  and  O_48 
REMARK   14  A    between atoms: C_22  and  O_49 
REMARK   15  A    between atoms: N_29  and  C_23 
REMARK   16  A    between atoms: O_50  and  C_26 
REMARK   17  A    between atoms: C_27  and  N_44 
REMARK   18  A    between atoms: P_60  and  O_52 
REMARK   19  A    between atoms: P_61  and  O_54 
REMARK   20  A    between atoms: P_60  and  O_56 
REMARK   21  A    between atoms: P_61  and  O_57 
REMARK   22  A    between atoms: P_60  and  O_59 
REMARK   23  A    between atoms: P_61  and  O_59 
ROOT
HETATM    1  O   UNK N   1      29.070  17.487   5.336  0.00  0.00    -0.294 OA
ENDROOT
BRANCH   1   2
HETATM    2  C   UNK N   1      27.937  16.860   4.765  0.00  0.00     0.215 C 
BRANCH   2   3
HETATM    3  C   UNK N   1      26.612  17.452   5.222  0.00  0.00     0.173 C 
BRANCH   3   4
HETATM    4  C   UNK N   1      25.529  16.408   5.571  0.00  0.00     0.179 C 
BRANCH   4   5
HETATM    5  C   UNK N   1      24.143  16.957   5.207  0.00  0.00     0.167 C 
BRANCH   5   6
HETATM    6  C   UNK N   1      23.756  16.757   3.726  0.00  0.00     0.165 C 
BRANCH   6   7
HETATM    7  N   UNK N   1      22.327  16.661   3.407  0.00  0.00    -0.327 N 
HETATM    8  C   UNK N   1      21.677  15.442   3.434  0.00  0.00     0.065 A 
HETATM    9  C   UNK N   1      22.363  14.234   3.662  0.00  0.00     0.061 A 
HETATM   10  C   UNK N   1      20.285  15.397   3.235  0.00  0.00     0.060 A 
HETATM   11  C   UNK N   1      21.695  12.987   3.699  0.00  0.00     0.037 A 
HETATM   12  C   UNK N   1      20.279  12.987   3.530  0.00  0.00    -0.033 A 
HETATM   13  C   UNK N   1      19.444  11.752   3.567  0.00  0.00     0.050 C 
HETATM   14  C   UNK N   1      19.604  14.185   3.297  0.00  0.00     0.040 A 
HETATM   15  N   UNK N   1      19.595  16.539   2.996  0.00  0.00    -0.348 N 
HETATM   16  C   UNK N   1      20.229  17.740   2.949  0.00  0.00     0.129 A 
ATOM     17  HN  UNK N   1      18.587  16.495   2.849  1.00  0.00     0.166 HD
HETATM   18  C   UNK N   1      21.610  17.806   3.171  0.00  0.00     0.143 A 
HETATM   19  C   UNK N   1      19.518  18.914   2.696  0.00  0.00     0.175 A 
HETATM   20  N   UNK N   1      22.228  19.025   3.148  0.00  0.00    -0.292 N 
HETATM   21  C   UNK N   1      21.524  20.165   2.878  0.00  0.00     0.327 A 
ATOM     22  HN  UNK N   1      23.228  19.085   3.335  1.00  0.00     0.172 HD
HETATM   23  N   UNK N   1      20.176  20.105   2.656  0.00  0.00    -0.287 N 
HETATM   24  O   UNK N   1      22.102  21.238   2.829  0.00  0.00    -0.247 OA
ATOM     25  HN  UNK N   1      19.658  20.961   2.458  1.00  0.00     0.172 HD
BRANCH  11  26
HETATM   26  N   UNK N   1      22.466  11.779   3.891  0.00  0.00    -0.389 N 
HETATM   27  C   UNK N   1      22.702  11.196   5.187  0.00  0.00     0.149 C 
HETATM   28  C   UNK N   1      23.000  11.061   2.764  0.00  0.00     0.149 C 
ENDBRANCH  11  26
BRANCH  19  29
HETATM   29  O   UNK N   1      18.192  18.879   2.488  0.00  0.00    -0.344 OA
HETATM   30  H   UNK N   1      17.766  18.162   2.062  0.00  0.00     0.219 HD
ENDBRANCH  19  29
ENDBRANCH   6   7
ENDBRANCH   5   6
BRANCH   5  31
HETATM   31  O   UNK N   1      24.036  18.280   5.635  0.00  0.00    -0.391 OA
HETATM   32  H   UNK N   1      23.973  18.712   6.501  0.00  0.00     0.210 HD
ENDBRANCH   5  31
ENDBRANCH   4   5
BRANCH   4  33
HETATM   33  O   UNK N   1      25.715  15.233   4.838  0.00  0.00    -0.390 OA
HETATM   34  H   UNK N   1      25.675  14.324   5.176  0.00  0.00     0.210 HD
ENDBRANCH   4  33
ENDBRANCH   3   4
BRANCH   3  35
HETATM   35  O   UNK N   1      26.875  18.246   6.324  0.00  0.00    -0.391 OA
HETATM   36  H   UNK N   1      27.251  17.881   7.140  0.00  0.00     0.210 HD
ENDBRANCH   3  35
ENDBRANCH   2   3
ENDBRANCH   1   2
BRANCH   1  37
HETATM   37  P   UNK N   1      30.443  16.374   5.399  0.00  0.00     0.401 P 
HETATM   38  O   UNK N   1      29.696  16.294   6.755  0.00  0.00    -0.631 OA
BRANCH  37  39
HETATM   39  O   UNK N   1      30.892  17.796   4.518  0.00  0.00    -0.307 OA
HETATM   40  H   UNK N   1      31.215  18.578   4.991  0.00  0.00     0.222 HD
ENDBRANCH  37  39
BRANCH  37  41
HETATM   41  O   UNK N   1      31.713  17.021   6.460  0.00  0.00    -0.195 OA
BRANCH  41  42
HETATM   42  P   UNK N   1      33.357  16.703   5.877  0.00  0.00     0.401 P 
HETATM   43  O   UNK N   1      34.175  18.004   6.098  0.00  0.00    -0.631 OA
BRANCH  42  44
HETATM   44  O   UNK N   1      33.461  16.368   4.176  0.00  0.00    -0.307 OA
HETATM   45  H   UNK N   1      33.346  16.724   3.280  0.00  0.00     0.222 HD
ENDBRANCH  42  44
BRANCH  42  46
HETATM   46  O   UNK N   1      34.146  15.455   6.778  0.00  0.00    -0.294 OA
BRANCH  46  47
HETATM   47  C   UNK N   1      33.398  15.330   7.946  0.00  0.00     0.215 C 
BRANCH  47  48
HETATM   48  C   UNK N   1      34.286  15.536   9.142  0.00  0.00     0.180 C 
HETATM   49  C   UNK N   1      34.552  16.939   9.630  0.00  0.00     0.182 C 
HETATM   50  C   UNK N   1      35.254  16.582  10.936  0.00  0.00     0.198 C 
HETATM   51  C   UNK N   1      34.525  15.257  11.318  0.00  0.00     0.262 C 
HETATM   52  O   UNK N   1      33.665  14.953  10.251  0.00  0.00    -0.353 OA
BRANCH  49  53
HETATM   53  O   UNK N   1      35.342  17.706   8.766  0.00  0.00    -0.390 OA
HETATM   54  H   UNK N   1      35.452  18.183   7.928  0.00  0.00     0.210 HD
ENDBRANCH  49  53
BRANCH  50  55
HETATM   55  O   UNK N   1      36.615  16.350  10.708  0.00  0.00    -0.388 OA
HETATM   56  H   UNK N   1      37.309  15.758  10.379  0.00  0.00     0.210 HD
ENDBRANCH  50  55
BRANCH  51  57
HETATM   57  N   UNK N   1      35.377  14.068  11.490  0.00  0.00    -0.297 N 
HETATM   58  C   UNK N   1      35.580  13.132  10.517  0.00  0.00     0.188 A 
HETATM   59  N   UNK N   1      36.349  12.106  10.955  0.00  0.00    -0.346 N 
HETATM   60  C   UNK N   1      36.618  12.423  12.229  0.00  0.00     0.122 A 
ATOM     61  HN  UNK N   1      36.651  11.282  10.435  1.00  0.00     0.167 HD
HETATM   62  C   UNK N   1      37.335  11.715  13.166  0.00  0.00     0.131 A 
HETATM   63  C   UNK N   1      36.045  13.604  12.550  0.00  0.00     0.142 A 
HETATM   64  N   UNK N   1      37.456  12.254  14.414  0.00  0.00    -0.337 N 
HETATM   65  C   UNK N   1      36.876  13.464  14.723  0.00  0.00     0.183 A 
ATOM     66  HN  UNK N   1      37.984  11.752  15.129  1.00  0.00     0.168 HD
HETATM   67  N   UNK N   1      36.151  14.150  13.782  0.00  0.00    -0.336 N 
ATOM     68  HN  UNK N   1      35.707  15.042  14.006  1.00  0.00     0.168 HD
BRANCH  62  69
HETATM   69  N   UNK N   1      37.908  10.465  12.854  0.00  0.00    -0.383 N 
HETATM   70  H   UNK N   1      38.784  10.382  12.411  0.00  0.00     0.157 HD
HETATM   71  H   UNK N   1      37.415   9.646  13.088  0.00  0.00     0.157 HD
ENDBRANCH  62  69
ENDBRANCH  51  57
ENDBRANCH  47  48
ENDBRANCH  46  47
ENDBRANCH  42  46
ENDBRANCH  41  42
ENDBRANCH  37  41
ENDBRANCH   1  37
TORSDOF 23
ENDMDL
MODEL 7
REMARK VINA RESULT:      -8.1      2.556      4.115
REMARK  23 active torsions:
REMARK  status: ('A' for Active; 'I' for Inactive)
REMARK    1  A    between atoms: C_15  and  C_6 
REMARK    2  A    between atoms: N_43  and  C_6 
REMARK    3  A    between atoms: C_16  and  C_7 
REMARK    4  A    between atoms: O_56  and  C_7 
REMARK    5  A    between atoms: C_17  and  C_8 
REMARK    6  A    between atoms: O_57  and  C_8 
REMARK    7  A    between atoms: N_42  and  C_13 
REMARK    8  A    between atoms: C_20  and  C_15 
REMARK    9  A    between atoms: C_15  and  O_45 
REMARK   10  A    between atoms: C_20  and  C_16 
REMARK   11  A    between atoms: C_16  and  O_46 
REMARK   12  A    between atoms: C_20  and  O_47 
REMARK   13  A    between atoms: C_21  and  O_48 
REMARK   14  A    between atoms: C_22  and  O_49 
REMARK   15  A    between atoms: N_29  and  C_23 
REMARK   16  A    between atoms: O_50  and  C_26 
REMARK   17  A    between atoms: C_27  and  N_44 
REMARK   18  A    between atoms: P_60  and  O_52 
REMARK   19  A    between atoms: P_61  and  O_54 
REMARK   20  A    between atoms: P_60  and  O_56 
REMARK   21  A    between atoms: P_61  and  O_57 
REMARK   22  A    between atoms: P_60  and  O_59 
REMARK   23  A    between atoms: P_61  and  O_59 
ROOT
HETATM    1  O   UNK N   1      34.143  13.334   9.510  0.00  0.00    -0.294 OA
ENDROOT
BRANCH   1   2
HETATM    2  C   UNK N   1      35.306  13.234  10.311  0.00  0.00     0.215 C 
BRANCH   2   3
HETATM    3  C   UNK N   1      35.089  13.642  11.761  0.00  0.00     0.173 C 
BRANCH   3   4
HETATM    4  C   UNK N   1      36.352  14.166  12.477  0.00  0.00     0.179 C 
BRANCH   4   5
HETATM    5  C   UNK N   1      36.468  13.522  13.864  0.00  0.00     0.167 C 
BRANCH   5   6
HETATM    6  C   UNK N   1      35.143  12.940  14.401  0.00  0.00     0.165 C 
BRANCH   6   7
HETATM    7  N   UNK N   1      35.230  11.880  15.412  0.00  0.00    -0.327 N 
HETATM    8  C   UNK N   1      35.364  10.556  15.039  0.00  0.00     0.065 A 
HETATM    9  C   UNK N   1      35.318  10.151  13.692  0.00  0.00     0.061 A 
HETATM   10  C   UNK N   1      35.560   9.576  16.030  0.00  0.00     0.060 A 
HETATM   11  C   UNK N   1      35.465   8.796  13.310  0.00  0.00     0.037 A 
HETATM   12  C   UNK N   1      35.698   7.838  14.339  0.00  0.00    -0.033 A 
HETATM   13  C   UNK N   1      35.892   6.382  14.083  0.00  0.00     0.050 C 
HETATM   14  C   UNK N   1      35.735   8.242  15.674  0.00  0.00     0.040 A 
HETATM   15  N   UNK N   1      35.592   9.928  17.338  0.00  0.00    -0.348 N 
HETATM   16  C   UNK N   1      35.442  11.225  17.715  0.00  0.00     0.129 A 
ATOM     17  HN  UNK N   1      35.729   9.210  18.048  1.00  0.00     0.166 HD
HETATM   18  C   UNK N   1      35.273  12.217  16.741  0.00  0.00     0.143 A 
HETATM   19  C   UNK N   1      35.469  11.585  19.063  0.00  0.00     0.175 A 
HETATM   20  N   UNK N   1      35.153  13.520  17.135  0.00  0.00    -0.292 N 
HETATM   21  C   UNK N   1      35.159  13.857  18.460  0.00  0.00     0.327 A 
ATOM     22  HN  UNK N   1      35.056  14.251  16.432  1.00  0.00     0.172 HD
HETATM   23  N   UNK N   1      35.318  12.891  19.415  0.00  0.00    -0.287 N 
HETATM   24  O   UNK N   1      35.015  15.022  18.790  0.00  0.00    -0.247 OA
ATOM     25  HN  UNK N   1      35.325  13.152  20.401  1.00  0.00     0.172 HD
BRANCH  11  26
HETATM   26  N   UNK N   1      35.362   8.442  11.912  0.00  0.00    -0.389 N 
HETATM   27  C   UNK N   1      34.103   8.211  11.252  0.00  0.00     0.149 C 
HETATM   28  C   UNK N   1      36.538   8.356  11.086  0.00  0.00     0.149 C 
ENDBRANCH  11  26
BRANCH  19  29
HETATM   29  O   UNK N   1      35.637  10.654  20.017  0.00  0.00    -0.344 OA
HETATM   30  H   UNK N   1      34.979  10.023  20.228  0.00  0.00     0.219 HD
ENDBRANCH  19  29
ENDBRANCH   6   7
ENDBRANCH   5   6
BRANCH   5  31
HETATM   31  O   UNK N   1      37.079  14.415  14.745  0.00  0.00    -0.391 OA
HETATM   32  H   UNK N   1      37.556  14.323  15.584  0.00  0.00     0.210 HD
ENDBRANCH   5  31
ENDBRANCH   4   5
BRANCH   4  33
HETATM   33  O   UNK N   1      37.506  13.827  11.764  0.00  0.00    -0.390 OA
HETATM   34  H   UNK N   1      37.563  13.227  11.004  0.00  0.00     0.210 HD
ENDBRANCH   4  33
ENDBRANCH   3   4
BRANCH   3  35
HETATM   35  O   UNK N   1      34.101  14.611  11.773  0.00  0.00    -0.391 OA
HETATM   36  H   UNK N   1      33.178  14.403  11.561  0.00  0.00     0.210 HD
ENDBRANCH   3  35
ENDBRANCH   2   3
ENDBRANCH   1   2
BRANCH   1  37
HETATM   37  P   UNK N   1      34.318  14.612   8.300  0.00  0.00     0.401 P 
HETATM   38  O   UNK N   1      35.721  14.310   8.885  0.00  0.00    -0.631 OA
BRANCH  37  39
HETATM   39  O   UNK N   1      32.833  14.832   9.163  0.00  0.00    -0.307 OA
HETATM   40  H   UNK N   1      32.353  14.063   9.506  0.00  0.00     0.222 HD
ENDBRANCH  37  39
BRANCH  37  41
HETATM   41  O   UNK N   1      34.636  16.171   9.090  0.00  0.00    -0.195 OA
BRANCH  41  42
HETATM   42  P   UNK N   1      33.987  17.563   8.204  0.00  0.00     0.401 P 
HETATM   43  O   UNK N   1      34.028  17.199   6.695  0.00  0.00    -0.631 OA
BRANCH  42  44
HETATM   44  O   UNK N   1      34.931  19.014   8.361  0.00  0.00    -0.307 OA
HETATM   45  H   UNK N   1      35.783  19.439   8.178  0.00  0.00     0.222 HD
ENDBRANCH  42  44
BRANCH  42  46
HETATM   46  O   UNK N   1      32.334  17.884   8.599  0.00  0.00    -0.294 OA
BRANCH  46  47
HETATM   47  C   UNK N   1      31.598  17.237   7.609  0.00  0.00     0.215 C 
BRANCH  47  48
HETATM   48  C   UNK N   1      30.132  17.500   7.813  0.00  0.00     0.180 C 
HETATM   49  C   UNK N   1      29.694  18.391   8.949  0.00  0.00     0.182 C 
HETATM   50  C   UNK N   1      28.223  18.521   8.564  0.00  0.00     0.198 C 
HETATM   51  C   UNK N   1      28.311  18.454   7.008  0.00  0.00     0.262 C 
HETATM   52  O   UNK N   1      29.655  18.193   6.696  0.00  0.00    -0.353 OA
BRANCH  49  53
HETATM   53  O   UNK N   1      29.889  17.838  10.219  0.00  0.00    -0.390 OA
HETATM   54  H   UNK N   1      30.479  17.603  10.952  0.00  0.00     0.210 HD
ENDBRANCH  49  53
BRANCH  50  55
HETATM   55  O   UNK N   1      27.492  17.438   9.065  0.00  0.00    -0.388 OA
HETATM   56  H   UNK N   1      27.259  16.877   9.821  0.00  0.00     0.210 HD
ENDBRANCH  50  55
BRANCH  51  57
HETATM   57  N   UNK N   1      27.539  17.383   6.355  0.00  0.00    -0.297 N 
HETATM   58  C   UNK N   1      27.953  16.084   6.285  0.00  0.00     0.188 A 
HETATM   59  N   UNK N   1      27.092  15.316   5.572  0.00  0.00    -0.346 N 
HETATM   60  C   UNK N   1      26.131  16.172   5.196  0.00  0.00     0.122 A 
ATOM     61  HN  UNK N   1      27.161  14.320   5.369  1.00  0.00     0.167 HD
HETATM   62  C   UNK N   1      25.019  15.940   4.420  0.00  0.00     0.131 A 
HETATM   63  C   UNK N   1      26.392  17.410   5.672  0.00  0.00     0.142 A 
HETATM   64  N   UNK N   1      24.190  16.994   4.166  0.00  0.00    -0.337 N 
HETATM   65  C   UNK N   1      24.463  18.247   4.667  0.00  0.00     0.183 A 
ATOM     66  HN  UNK N   1      23.356  16.852   3.594  1.00  0.00     0.168 HD
HETATM   67  N   UNK N   1      25.584  18.466   5.427  0.00  0.00    -0.336 N 
ATOM     68  HN  UNK N   1      25.801  19.394   5.793  1.00  0.00     0.168 HD
BRANCH  62  69
HETATM   69  N   UNK N   1      24.755  14.661   3.887  0.00  0.00    -0.383 N 
HETATM   70  H   UNK N   1      23.903  14.192   4.039  0.00  0.00     0.157 HD
HETATM   71  H   UNK N   1      25.448  14.221   3.344  0.00  0.00     0.157 HD
ENDBRANCH  62  69
ENDBRANCH  51  57
ENDBRANCH  47  48
ENDBRANCH  46  47
ENDBRANCH  42  46
ENDBRANCH  41  42
ENDBRANCH  37  41
ENDBRANCH   1  37
TORSDOF 23
ENDMDL
MODEL 8
REMARK VINA RESULT:      -8.1      3.155     10.414
REMARK  23 active torsions:
REMARK  status: ('A' for Active; 'I' for Inactive)
REMARK    1  A    between atoms: C_15  and  C_6 
REMARK    2  A    between atoms: N_43  and  C_6 
REMARK    3  A    between atoms: C_16  and  C_7 
REMARK    4  A    between atoms: O_56  and  C_7 
REMARK    5  A    between atoms: C_17  and  C_8 
REMARK    6  A    between atoms: O_57  and  C_8 
REMARK    7  A    between atoms: N_42  and  C_13 
REMARK    8  A    between atoms: C_20  and  C_15 
REMARK    9  A    between atoms: C_15  and  O_45 
REMARK   10  A    between atoms: C_20  and  C_16 
REMARK   11  A    between atoms: C_16  and  O_46 
REMARK   12  A    between atoms: C_20  and  O_47 
REMARK   13  A    between atoms: C_21  and  O_48 
REMARK   14  A    between atoms: C_22  and  O_49 
REMARK   15  A    between atoms: N_29  and  C_23 
REMARK   16  A    between atoms: O_50  and  C_26 
REMARK   17  A    between atoms: C_27  and  N_44 
REMARK   18  A    between atoms: P_60  and  O_52 
REMARK   19  A    between atoms: P_61  and  O_54 
REMARK   20  A    between atoms: P_60  and  O_56 
REMARK   21  A    between atoms: P_61  and  O_57 
REMARK   22  A    between atoms: P_60  and  O_59 
REMARK   23  A    between atoms: P_61  and  O_59 
ROOT
HETATM    1  O   UNK N   1      33.597  12.444   6.355  0.00  0.00    -0.294 OA
ENDROOT
BRANCH   1   2
HETATM    2  C   UNK N   1      33.718  11.850   5.077  0.00  0.00     0.215 C 
BRANCH   2   3
HETATM    3  C   UNK N   1      32.738  12.398   4.050  0.00  0.00     0.173 C 
BRANCH   3   4
HETATM    4  C   UNK N   1      32.951  13.884   3.688  0.00  0.00     0.179 C 
BRANCH   4   5
HETATM    5  C   UNK N   1      31.929  14.752   4.434  0.00  0.00     0.167 C 
BRANCH   5   6
HETATM    6  C   UNK N   1      32.517  16.057   5.014  0.00  0.00     0.165 C 
BRANCH   6   7
HETATM    7  N   UNK N   1      32.422  16.253   6.466  0.00  0.00    -0.327 N 
HETATM    8  C   UNK N   1      31.284  16.794   7.033  0.00  0.00     0.065 A 
HETATM    9  C   UNK N   1      30.215  17.274   6.253  0.00  0.00     0.061 A 
HETATM   10  C   UNK N   1      31.178  16.865   8.434  0.00  0.00     0.060 A 
HETATM   11  C   UNK N   1      29.046  17.819   6.835  0.00  0.00     0.037 A 
HETATM   12  C   UNK N   1      28.961  17.840   8.258  0.00  0.00    -0.033 A 
HETATM   13  C   UNK N   1      27.783  18.364   9.006  0.00  0.00     0.050 C 
HETATM   14  C   UNK N   1      30.026  17.371   9.028  0.00  0.00     0.040 A 
HETATM   15  N   UNK N   1      32.195  16.429   9.216  0.00  0.00    -0.348 N 
HETATM   16  C   UNK N   1      33.326  15.913   8.667  0.00  0.00     0.129 A 
ATOM     17  HN  UNK N   1      32.111  16.489  10.231  1.00  0.00     0.166 HD
HETATM   18  C   UNK N   1      33.437  15.810   7.274  0.00  0.00     0.143 A 
HETATM   19  C   UNK N   1      34.375  15.469   9.473  0.00  0.00     0.175 A 
HETATM   20  N   UNK N   1      34.569  15.262   6.738  0.00  0.00    -0.292 N 
HETATM   21  C   UNK N   1      35.598  14.851   7.538  0.00  0.00     0.327 A 
ATOM     22  HN  UNK N   1      34.647  15.160   5.727  1.00  0.00     0.172 HD
HETATM   23  N   UNK N   1      35.496  14.955   8.898  0.00  0.00    -0.287 N 
HETATM   24  O   UNK N   1      36.613  14.398   7.036  0.00  0.00    -0.247 OA
ATOM     25  HN  UNK N   1      36.268  14.643   9.487  1.00  0.00     0.172 HD
BRANCH  11  26
HETATM   26  N   UNK N   1      28.006  18.337   5.975  0.00  0.00    -0.389 N 
HETATM   27  C   UNK N   1      27.871  19.735   5.661  0.00  0.00     0.149 C 
HETATM   28  C   UNK N   1      27.068  17.449   5.338  0.00  0.00     0.149 C 
ENDBRANCH  11  26
BRANCH  19  29
HETATM   29  O   UNK N   1      34.290  15.549  10.811  0.00  0.00    -0.344 OA
HETATM   30  H   UNK N   1      34.856  15.068  11.382  0.00  0.00     0.219 HD
ENDBRANCH  19  29
ENDBRANCH   6   7
ENDBRANCH   5   6
BRANCH   5  31
HETATM   31  O   UNK N   1      31.259  13.976   5.380  0.00  0.00    -0.391 OA
HETATM   32  H   UNK N   1      30.385  13.558   5.421  0.00  0.00     0.210 HD
ENDBRANCH   5  31
ENDBRANCH   4   5
BRANCH   4  33
HETATM   33  O   UNK N   1      34.223  14.314   4.077  0.00  0.00    -0.390 OA
HETATM   34  H   UNK N   1      34.716  15.067   3.717  0.00  0.00     0.210 HD
ENDBRANCH   4  33
ENDBRANCH   3   4
BRANCH   3  35
HETATM   35  O   UNK N   1      32.849  11.614   2.915  0.00  0.00    -0.391 OA
HETATM   36  H   UNK N   1      32.673  11.968   2.029  0.00  0.00     0.210 HD
ENDBRANCH   3  35
ENDBRANCH   2   3
ENDBRANCH   1   2
BRANCH   1  37
HETATM   37  P   UNK N   1      33.823  11.244   7.634  0.00  0.00     0.401 P 
HETATM   38  O   UNK N   1      32.683  12.200   8.069  0.00  0.00    -0.631 OA
BRANCH  37  39
HETATM   39  O   UNK N   1      35.361  11.665   6.958  0.00  0.00    -0.307 OA
HETATM   40  H   UNK N   1      35.735  12.544   7.117  0.00  0.00     0.222 HD
ENDBRANCH  37  39
BRANCH  37  41
HETATM   41  O   UNK N   1      34.601  11.987   9.047  0.00  0.00    -0.195 OA
BRANCH  41  42
HETATM   42  P   UNK N   1      36.092  11.169   9.552  0.00  0.00     0.401 P 
HETATM   43  O   UNK N   1      37.244  12.198   9.408  0.00  0.00    -0.631 OA
BRANCH  42  44
HETATM   44  O   UNK N   1      36.541   9.820   8.552  0.00  0.00    -0.307 OA
HETATM   45  H   UNK N   1      36.232   9.016   8.106  0.00  0.00     0.222 HD
ENDBRANCH  42  44
BRANCH  42  46
HETATM   46  O   UNK N   1      36.051  10.689  11.213  0.00  0.00    -0.294 OA
BRANCH  46  47
HETATM   47  C   UNK N   1      35.032  11.452  11.780  0.00  0.00     0.215 C 
BRANCH  47  48
HETATM   48  C   UNK N   1      35.559  12.194  12.976  0.00  0.00     0.180 C 
HETATM   49  C   UNK N   1      36.299  13.493  12.770  0.00  0.00     0.182 C 
HETATM   50  C   UNK N   1      36.380  13.927  14.231  0.00  0.00     0.198 C 
HETATM   51  C   UNK N   1      35.051  13.336  14.795  0.00  0.00     0.262 C 
HETATM   52  O   UNK N   1      34.469  12.597  13.753  0.00  0.00    -0.353 OA
BRANCH  49  53
HETATM   53  O   UNK N   1      37.551  13.349  12.162  0.00  0.00    -0.390 OA
HETATM   54  H   UNK N   1      38.259  13.704  11.602  0.00  0.00     0.210 HD
ENDBRANCH  49  53
BRANCH  50  55
HETATM   55  O   UNK N   1      37.487  13.337  14.851  0.00  0.00    -0.388 OA
HETATM   56  H   UNK N   1      38.314  12.838  14.766  0.00  0.00     0.210 HD
ENDBRANCH  50  55
BRANCH  51  57
HETATM   57  N   UNK N   1      35.181  12.396  15.921  0.00  0.00    -0.297 N 
HETATM   58  C   UNK N   1      35.205  11.038  15.778  0.00  0.00     0.188 A 
HETATM   59  N   UNK N   1      35.262  10.404  16.974  0.00  0.00    -0.346 N 
HETATM   60  C   UNK N   1      35.269  11.401  17.870  0.00  0.00     0.122 A 
ATOM     61  HN  UNK N   1      35.292   9.400  17.152  1.00  0.00     0.167 HD
HETATM   62  C   UNK N   1      35.284  11.333  19.244  0.00  0.00     0.131 A 
HETATM   63  C   UNK N   1      35.229  12.597  17.241  0.00  0.00     0.142 A 
HETATM   64  N   UNK N   1      35.273  12.507  19.939  0.00  0.00    -0.337 N 
HETATM   65  C   UNK N   1      35.245  13.718  19.284  0.00  0.00     0.183 A 
ATOM     66  HN  UNK N   1      35.285  12.488  20.960  1.00  0.00     0.168 HD
HETATM   67  N   UNK N   1      35.215  13.770  17.914  0.00  0.00    -0.336 N 
ATOM     68  HN  UNK N   1      35.181  14.663  17.420  1.00  0.00     0.168 HD
BRANCH  62  69
HETATM   69  N   UNK N   1      35.289  10.091  19.912  0.00  0.00    -0.383 N 
HETATM   70  H   UNK N   1      35.213   9.234  19.434  0.00  0.00     0.157 HD
HETATM   71  H   UNK N   1      35.371  10.081  20.894  0.00  0.00     0.157 HD
ENDBRANCH  62  69
ENDBRANCH  51  57
ENDBRANCH  47  48
ENDBRANCH  46  47
ENDBRANCH  42  46
ENDBRANCH  41  42
ENDBRANCH  37  41
ENDBRANCH   1  37
TORSDOF 23
ENDMDL
MODEL 9
REMARK VINA RESULT:      -8.1      2.767      5.344
REMARK  23 active torsions:
REMARK  status: ('A' for Active; 'I' for Inactive)
REMARK    1  A    between atoms: C_15  and  C_6 
REMARK    2  A    between atoms: N_43  and  C_6 
REMARK    3  A    between atoms: C_16  and  C_7 
REMARK    4  A    between atoms: O_56  and  C_7 
REMARK    5  A    between atoms: C_17  and  C_8 
REMARK    6  A    between atoms: O_57  and  C_8 
REMARK    7  A    between atoms: N_42  and  C_13 
REMARK    8  A    between atoms: C_20  and  C_15 
REMARK    9  A    between atoms: C_15  and  O_45 
REMARK   10  A    between atoms: C_20  and  C_16 
REMARK   11  A    between atoms: C_16  and  O_46 
REMARK   12  A    between atoms: C_20  and  O_47 
REMARK   13  A    between atoms: C_21  and  O_48 
REMARK   14  A    between atoms: C_22  and  O_49 
REMARK   15  A    between atoms: N_29  and  C_23 
REMARK   16  A    between atoms: O_50  and  C_26 
REMARK   17  A    between atoms: C_27  and  N_44 
REMARK   18  A    between atoms: P_60  and  O_52 
REMARK   19  A    between atoms: P_61  and  O_54 
REMARK   20  A    between atoms: P_60  and  O_56 
REMARK   21  A    between atoms: P_61  and  O_57 
REMARK   22  A    between atoms: P_60  and  O_59 
REMARK   23  A    between atoms: P_61  and  O_59 
ROOT
HETATM    1  O   UNK N   1      34.825  11.070   9.061  0.00  0.00    -0.294 OA
ENDROOT
BRANCH   1   2
HETATM    2  C   UNK N   1      34.232  10.166   9.974  0.00  0.00     0.215 C 
BRANCH   2   3
HETATM    3  C   UNK N   1      34.780   8.749   9.878  0.00  0.00     0.173 C 
BRANCH   3   4
HETATM    4  C   UNK N   1      36.201   8.570  10.454  0.00  0.00     0.179 C 
BRANCH   4   5
HETATM    5  C   UNK N   1      36.231   9.036  11.916  0.00  0.00     0.167 C 
BRANCH   5   6
HETATM    6  C   UNK N   1      37.394   9.997  12.246  0.00  0.00     0.165 C 
BRANCH   6   7
HETATM    7  N   UNK N   1      37.063  11.411  12.459  0.00  0.00    -0.327 N 
HETATM    8  C   UNK N   1      36.639  11.858  13.695  0.00  0.00     0.065 A 
HETATM    9  C   UNK N   1      36.404  10.979  14.769  0.00  0.00     0.061 A 
HETATM   10  C   UNK N   1      36.437  13.236  13.899  0.00  0.00     0.060 A 
HETATM   11  C   UNK N   1      35.979  11.439  16.038  0.00  0.00     0.037 A 
HETATM   12  C   UNK N   1      35.822  12.845  16.216  0.00  0.00    -0.033 A 
HETATM   13  C   UNK N   1      35.401  13.473  17.501  0.00  0.00     0.050 C 
HETATM   14  C   UNK N   1      36.047  13.714  15.147  0.00  0.00     0.040 A 
HETATM   15  N   UNK N   1      36.636  14.110  12.882  0.00  0.00    -0.348 N 
HETATM   16  C   UNK N   1      37.035  13.676  11.658  0.00  0.00     0.129 A 
ATOM     17  HN  UNK N   1      36.483  15.106  13.039  1.00  0.00     0.166 HD
HETATM   18  C   UNK N   1      37.265  12.311  11.445  0.00  0.00     0.143 A 
HETATM   19  C   UNK N   1      37.234  14.577  10.610  0.00  0.00     0.175 A 
HETATM   20  N   UNK N   1      37.694  11.895  10.216  0.00  0.00    -0.292 N 
HETATM   21  C   UNK N   1      37.864  12.784   9.192  0.00  0.00     0.327 A 
ATOM     22  HN  UNK N   1      37.890  10.906  10.060  1.00  0.00     0.172 HD
HETATM   23  N   UNK N   1      37.635  14.117   9.394  0.00  0.00    -0.287 N 
HETATM   24  O   UNK N   1      38.214  12.386   8.094  0.00  0.00    -0.247 OA
ATOM     25  HN  UNK N   1      37.767  14.774   8.624  1.00  0.00     0.172 HD
BRANCH  11  26
HETATM   26  N   UNK N   1      35.712  10.478  17.084  0.00  0.00    -0.389 N 
HETATM   27  C   UNK N   1      36.530  10.353  18.263  0.00  0.00     0.149 C 
HETATM   28  C   UNK N   1      34.558   9.620  17.017  0.00  0.00     0.149 C 
ENDBRANCH  11  26
BRANCH  19  29
HETATM   29  O   UNK N   1      37.028  15.892  10.790  0.00  0.00    -0.344 OA
HETATM   30  H   UNK N   1      37.634  16.542  10.497  0.00  0.00     0.219 HD
ENDBRANCH  19  29
ENDBRANCH   6   7
ENDBRANCH   5   6
BRANCH   5  31
HETATM   31  O   UNK N   1      36.170   7.928  12.761  0.00  0.00    -0.391 OA
HETATM   32  H   UNK N   1      36.414   6.993  12.677  0.00  0.00     0.210 HD
ENDBRANCH   5  31
ENDBRANCH   4   5
BRANCH   4  33
HETATM   33  O   UNK N   1      36.578   7.223  10.440  0.00  0.00    -0.390 OA
HETATM   34  H   UNK N   1      36.973   6.724  11.172  0.00  0.00     0.210 HD
ENDBRANCH   4  33
ENDBRANCH   3   4
BRANCH   3  35
HETATM   35  O   UNK N   1      33.893   7.919  10.540  0.00  0.00    -0.391 OA
HETATM   36  H   UNK N   1      34.166   7.379  11.298  0.00  0.00     0.210 HD
ENDBRANCH   3  35
ENDBRANCH   2   3
ENDBRANCH   1   2
BRANCH   1  37
HETATM   37  P   UNK N   1      33.713  12.386   8.663  0.00  0.00     0.401 P 
HETATM   38  O   UNK N   1      34.716  12.234   7.491  0.00  0.00    -0.631 OA
BRANCH  37  39
HETATM   39  O   UNK N   1      34.059  12.417  10.359  0.00  0.00    -0.307 OA
HETATM   40  H   UNK N   1      34.392  11.620  10.800  0.00  0.00     0.222 HD
ENDBRANCH  37  39
BRANCH  37  41
HETATM   41  O   UNK N   1      34.538  13.953   8.792  0.00  0.00    -0.195 OA
BRANCH  41  42
HETATM   42  P   UNK N   1      33.505  15.254   9.414  0.00  0.00     0.401 P 
HETATM   43  O   UNK N   1      34.400  16.514   9.557  0.00  0.00    -0.631 OA
BRANCH  42  44
HETATM   44  O   UNK N   1      32.858  14.956  10.999  0.00  0.00    -0.307 OA
HETATM   45  H   UNK N   1      32.681  14.288  11.680  0.00  0.00     0.222 HD
ENDBRANCH  42  44
BRANCH  42  46
HETATM   46  O   UNK N   1      32.231  15.663   8.319  0.00  0.00    -0.294 OA
BRANCH  46  47
HETATM   47  C   UNK N   1      32.828  15.663   7.060  0.00  0.00     0.215 C 
BRANCH  47  48
HETATM   48  C   UNK N   1      31.922  16.338   6.069  0.00  0.00     0.180 C 
HETATM   49  C   UNK N   1      32.225  16.222   4.595  0.00  0.00     0.182 C 
HETATM   50  C   UNK N   1      30.933  16.833   4.061  0.00  0.00     0.198 C 
HETATM   51  C   UNK N   1      29.914  16.385   5.154  0.00  0.00     0.262 C 
HETATM   52  O   UNK N   1      30.660  15.744   6.156  0.00  0.00    -0.353 OA
BRANCH  49  53
HETATM   53  O   UNK N   1      33.375  16.910   4.190  0.00  0.00    -0.390 OA
HETATM   54  H   UNK N   1      34.009  17.153   3.498  0.00  0.00     0.210 HD
ENDBRANCH  49  53
BRANCH  50  55
HETATM   55  O   UNK N   1      31.035  18.228   4.023  0.00  0.00    -0.388 OA
HETATM   56  H   UNK N   1      30.746  19.068   3.634  0.00  0.00     0.210 HD
ENDBRANCH  50  55
BRANCH  51  57
HETATM   57  N   UNK N   1      29.174  17.459   5.838  0.00  0.00    -0.297 N 
HETATM   58  C   UNK N   1      29.113  17.593   7.195  0.00  0.00     0.188 A 
HETATM   59  N   UNK N   1      28.312  18.622   7.566  0.00  0.00    -0.346 N 
HETATM   60  C   UNK N   1      27.872  19.124   6.405  0.00  0.00     0.122 A 
ATOM     61  HN  UNK N   1      28.095  18.938   8.511  1.00  0.00     0.167 HD
HETATM   62  C   UNK N   1      26.997  20.164   6.186  0.00  0.00     0.131 A 
HETATM   63  C   UNK N   1      28.394  18.435   5.366  0.00  0.00     0.142 A 
HETATM   64  N   UNK N   1      26.694  20.478   4.892  0.00  0.00    -0.337 N 
HETATM   65  C   UNK N   1      27.243  19.774   3.845  0.00  0.00     0.183 A 
ATOM     66  HN  UNK N   1      26.049  21.245   4.699  1.00  0.00     0.168 HD
HETATM   67  N   UNK N   1      28.102  18.730   4.079  0.00  0.00    -0.336 N 
ATOM     68  HN  UNK N   1      28.505  18.194   3.309  1.00  0.00     0.168 HD
BRANCH  62  69
HETATM   69  N   UNK N   1      26.417  20.868   7.261  0.00  0.00    -0.383 N 
HETATM   70  H   UNK N   1      25.450  20.848   7.444  0.00  0.00     0.157 HD
HETATM   71  H   UNK N   1      27.001  21.398   7.851  0.00  0.00     0.157 HD
ENDBRANCH  62  69
ENDBRANCH  51  57
ENDBRANCH  47  48
ENDBRANCH  46  47
ENDBRANCH  42  46
ENDBRANCH  41  42
ENDBRANCH  37  41
ENDBRANCH   1  37
TORSDOF 23
ENDMDL
