MODEL 1
REMARK VINA RESULT:      -8.2      0.000      0.000
REMARK  9 active torsions:
REMARK  status: ('A' for Active; 'I' for Inactive)
REMARK    1  A    between atoms: C_4  and  O_5 
REMARK    2  A    between atoms: O_5  and  C_6 
REMARK    3  A    between atoms: C_6  and  C_7 
REMARK    4  A    between atoms: C_7  and  O_8 
REMARK    5  A    between atoms: C_13  and  C_14 
REMARK    6  A    between atoms: C_14  and  C_15 
REMARK    7  A    between atoms: C_18  and  O_19 
REMARK    8  A    between atoms: C_20  and  C_21 
REMARK    9  A    between atoms: C_21  and  C_22 
ROOT
HETATM    1  C   UNK N   1      27.551  18.659   5.087  0.00  0.00    -0.053 A 
HETATM    2  C   UNK N   1      27.004  19.682   5.871  0.00  0.00     0.010 A 
HETATM    3  C   UNK N   1      27.382  19.819   7.206  0.00  0.00     0.037 A 
HETATM    4  C   UNK N   1      28.307  18.939   7.772  0.00  0.00     0.072 A 
HETATM    5  C   UNK N   1      28.898  17.930   6.982  0.00  0.00    -0.020 A 
HETATM    6  C   UNK N   1      28.504  17.791   5.643  0.00  0.00     0.017 A 
ENDROOT
BRANCH   1   7
HETATM    7  C   UNK N   1      27.022  18.401   3.703  0.00  0.00     0.078 C 
BRANCH   7   8
HETATM    8  C   UNK N   1      25.575  18.845   3.571  0.00  0.00    -0.042 A 
HETATM    9  C   UNK N   1      24.506  18.008   3.978  0.00  0.00    -0.052 A 
HETATM   10  C   UNK N   1      23.193  18.475   3.914  0.00  0.00     0.044 A 
HETATM   11  C   UNK N   1      24.732  16.631   4.505  0.00  0.00     0.049 C 
HETATM   12  C   UNK N   1      22.908  19.758   3.432  0.00  0.00     0.070 A 
HETATM   13  C   UNK N   1      23.954  20.571   2.989  0.00  0.00     0.044 A 
HETATM   14  C   UNK N   1      25.281  20.127   3.060  0.00  0.00    -0.052 A 
HETATM   15  C   UNK N   1      26.364  21.044   2.597  0.00  0.00     0.049 C 
BRANCH  12  16
HETATM   16  O   UNK N   1      21.641  20.239   3.413  0.00  0.00    -0.341 OA
BRANCH  16  17
HETATM   17  C   UNK N   1      20.677  19.748   2.551  0.00  0.00     0.285 C 
BRANCH  17  18
HETATM   18  C   UNK N   1      20.700  20.473   1.238  0.00  0.00     0.164 C 
HETATM   19  O   UNK N   1      20.745  21.684   1.191  0.00  0.00    -0.648 OA
BRANCH  18  20
HETATM   20  O   UNK N   1      20.667  19.756   0.094  0.00  0.00    -0.775 OA
HETATM   21  H   UNK N   1      20.731  18.821   0.111  0.00  0.00     0.167 HD
ENDBRANCH  18  20
ENDBRANCH  17  18
ENDBRANCH  16  17
ENDBRANCH  12  16
ENDBRANCH   7   8
ENDBRANCH   1   7
BRANCH   5  22
HETATM   22  C   UNK N   1      29.855  16.924   7.568  0.00  0.00     0.080 C 
BRANCH  22  23
HETATM   23  C   UNK N   1      31.309  17.222   7.349  0.00  0.00    -0.054 A 
HETATM   24  C   UNK N   1      32.022  17.869   8.365  0.00  0.00     0.007 A 
HETATM   25  C   UNK N   1      33.383  18.143   8.211  0.00  0.00     0.001 A 
HETATM   26  C   UNK N   1      34.045  17.751   7.044  0.00  0.00     0.000 A 
HETATM   27  C   UNK N   1      33.342  17.086   6.032  0.00  0.00     0.001 A 
HETATM   28  C   UNK N   1      31.973  16.823   6.182  0.00  0.00     0.007 A 
ENDBRANCH  22  23
ENDBRANCH   5  22
BRANCH   4  29
HETATM   29  O   UNK N   1      28.610  19.064   9.074  0.00  0.00    -0.360 OA
HETATM   30  H   UNK N   1      28.871  18.330   9.594  0.00  0.00     0.217 HD
ENDBRANCH   4  29
TORSDOF 9
ENDMDL
MODEL 2
REMARK VINA RESULT:      -8.2      0.233      1.977
REMARK  9 active torsions:
REMARK  status: ('A' for Active; 'I' for Inactive)
REMARK    1  A    between atoms: C_4  and  O_5 
REMARK    2  A    between atoms: O_5  and  C_6 
REMARK    3  A    between atoms: C_6  and  C_7 
REMARK    4  A    between atoms: C_7  and  O_8 
REMARK    5  A    between atoms: C_13  and  C_14 
REMARK    6  A    between atoms: C_14  and  C_15 
REMARK    7  A    between atoms: C_18  and  O_19 
REMARK    8  A    between atoms: C_20  and  C_21 
REMARK    9  A    between atoms: C_21  and  C_22 
ROOT
HETATM    1  C   UNK N   1      27.459  18.594   5.149  0.00  0.00    -0.053 A 
HETATM    2  C   UNK N   1      26.985  19.652   5.935  0.00  0.00     0.010 A 
HETATM    3  C   UNK N   1      27.441  19.812   7.242  0.00  0.00     0.037 A 
HETATM    4  C   UNK N   1      28.372  18.920   7.779  0.00  0.00     0.072 A 
HETATM    5  C   UNK N   1      28.889  17.875   6.985  0.00  0.00    -0.020 A 
HETATM    6  C   UNK N   1      28.417  17.713   5.674  0.00  0.00     0.017 A 
ENDROOT
BRANCH   1   7
HETATM    7  C   UNK N   1      26.846  18.317   3.804  0.00  0.00     0.078 C 
BRANCH   7   8
HETATM    8  C   UNK N   1      25.417  18.828   3.730  0.00  0.00    -0.042 A 
HETATM    9  C   UNK N   1      25.112  20.087   3.154  0.00  0.00    -0.052 A 
HETATM   10  C   UNK N   1      23.783  20.493   3.034  0.00  0.00     0.044 A 
HETATM   11  C   UNK N   1      26.171  21.001   2.638  0.00  0.00     0.049 C 
HETATM   12  C   UNK N   1      22.738  19.684   3.495  0.00  0.00     0.070 A 
HETATM   13  C   UNK N   1      23.036  18.462   4.104  0.00  0.00     0.044 A 
HETATM   14  C   UNK N   1      24.362  18.028   4.219  0.00  0.00    -0.052 A 
HETATM   15  C   UNK N   1      24.625  16.703   4.855  0.00  0.00     0.049 C 
BRANCH  12  16
HETATM   16  O   UNK N   1      21.442  20.047   3.338  0.00  0.00    -0.341 OA
BRANCH  16  17
HETATM   17  C   UNK N   1      20.696  19.666   2.236  0.00  0.00     0.285 C 
BRANCH  17  18
HETATM   18  C   UNK N   1      20.785  20.685   1.140  0.00  0.00     0.164 C 
HETATM   19  O   UNK N   1      20.937  20.350  -0.016  0.00  0.00    -0.648 OA
BRANCH  18  20
HETATM   20  O   UNK N   1      20.695  21.995   1.455  0.00  0.00    -0.775 OA
HETATM   21  H   UNK N   1      19.922  22.485   1.256  0.00  0.00     0.167 HD
ENDBRANCH  18  20
ENDBRANCH  17  18
ENDBRANCH  16  17
ENDBRANCH  12  16
ENDBRANCH   7   8
ENDBRANCH   1   7
BRANCH   5  22
HETATM   22  C   UNK N   1      29.849  16.856   7.544  0.00  0.00     0.080 C 
BRANCH  22  23
HETATM   23  C   UNK N   1      31.303  17.189   7.377  0.00  0.00    -0.054 A 
HETATM   24  C   UNK N   1      31.926  16.889   6.159  0.00  0.00     0.007 A 
HETATM   25  C   UNK N   1      33.271  17.204   5.955  0.00  0.00     0.001 A 
HETATM   26  C   UNK N   1      33.997  17.842   6.964  0.00  0.00     0.000 A 
HETATM   27  C   UNK N   1      33.377  18.161   8.177  0.00  0.00     0.001 A 
HETATM   28  C   UNK N   1      32.030  17.833   8.387  0.00  0.00     0.007 A 
ENDBRANCH  22  23
ENDBRANCH   5  22
BRANCH   4  29
HETATM   29  O   UNK N   1      28.751  19.069   9.059  0.00  0.00    -0.360 OA
HETATM   30  H   UNK N   1      28.230  18.749   9.769  0.00  0.00     0.217 HD
ENDBRANCH   4  29
TORSDOF 9
ENDMDL
MODEL 3
REMARK VINA RESULT:      -7.6     11.675     15.963
REMARK  9 active torsions:
REMARK  status: ('A' for Active; 'I' for Inactive)
REMARK    1  A    between atoms: C_4  and  O_5 
REMARK    2  A    between atoms: O_5  and  C_6 
REMARK    3  A    between atoms: C_6  and  C_7 
REMARK    4  A    between atoms: C_7  and  O_8 
REMARK    5  A    between atoms: C_13  and  C_14 
REMARK    6  A    between atoms: C_14  and  C_15 
REMARK    7  A    between atoms: C_18  and  O_19 
REMARK    8  A    between atoms: C_20  and  C_21 
REMARK    9  A    between atoms: C_21  and  C_22 
ROOT
HETATM    1  C   UNK N   1      35.689   9.885  16.950  0.00  0.00    -0.053 A 
HETATM    2  C   UNK N   1      36.111   9.137  18.056  0.00  0.00     0.010 A 
HETATM    3  C   UNK N   1      36.197   9.732  19.314  0.00  0.00     0.037 A 
HETATM    4  C   UNK N   1      35.866  11.079  19.481  0.00  0.00     0.072 A 
HETATM    5  C   UNK N   1      35.399  11.833  18.384  0.00  0.00    -0.020 A 
HETATM    6  C   UNK N   1      35.326  11.230  17.120  0.00  0.00     0.017 A 
ENDROOT
BRANCH   1   7
HETATM    7  C   UNK N   1      35.758   9.297  15.568  0.00  0.00     0.078 C 
BRANCH   7   8
HETATM    8  C   UNK N   1      35.920  10.379  14.513  0.00  0.00    -0.042 A 
HETATM    9  C   UNK N   1      34.796  11.031  13.947  0.00  0.00    -0.052 A 
HETATM   10  C   UNK N   1      34.981  12.072  13.036  0.00  0.00     0.044 A 
HETATM   11  C   UNK N   1      33.398  10.661  14.309  0.00  0.00     0.049 C 
HETATM   12  C   UNK N   1      36.266  12.473  12.652  0.00  0.00     0.070 A 
HETATM   13  C   UNK N   1      37.376  11.804  13.174  0.00  0.00     0.044 A 
HETATM   14  C   UNK N   1      37.213  10.767  14.102  0.00  0.00    -0.052 A 
HETATM   15  C   UNK N   1      38.432  10.102  14.648  0.00  0.00     0.049 C 
BRANCH  12  16
HETATM   16  O   UNK N   1      36.457  13.515  11.808  0.00  0.00    -0.341 OA
BRANCH  16  17
HETATM   17  C   UNK N   1      35.887  14.756  12.024  0.00  0.00     0.285 C 
BRANCH  17  18
HETATM   18  C   UNK N   1      34.843  15.064  10.993  0.00  0.00     0.164 C 
HETATM   19  O   UNK N   1      35.148  15.489   9.899  0.00  0.00    -0.648 OA
BRANCH  18  20
HETATM   20  O   UNK N   1      33.543  14.863  11.298  0.00  0.00    -0.775 OA
HETATM   21  H   UNK N   1      32.984  15.583  11.515  0.00  0.00     0.167 HD
ENDBRANCH  18  20
ENDBRANCH  17  18
ENDBRANCH  16  17
ENDBRANCH  12  16
ENDBRANCH   7   8
ENDBRANCH   1   7
BRANCH   5  22
HETATM   22  C   UNK N   1      35.087  13.303  18.509  0.00  0.00     0.080 C 
BRANCH  22  23
HETATM   23  C   UNK N   1      35.871  14.202  17.600  0.00  0.00    -0.054 A 
HETATM   24  C   UNK N   1      36.231  15.475  18.060  0.00  0.00     0.007 A 
HETATM   25  C   UNK N   1      36.982  16.334  17.254  0.00  0.00     0.001 A 
HETATM   26  C   UNK N   1      37.395  15.915  15.987  0.00  0.00     0.000 A 
HETATM   27  C   UNK N   1      37.055  14.638  15.527  0.00  0.00     0.001 A 
HETATM   28  C   UNK N   1      36.291  13.780  16.331  0.00  0.00     0.007 A 
ENDBRANCH  22  23
ENDBRANCH   5  22
BRANCH   4  29
HETATM   29  O   UNK N   1      36.011  11.638  20.694  0.00  0.00    -0.360 OA
HETATM   30  H   UNK N   1      36.786  11.515  21.205  0.00  0.00     0.217 HD
ENDBRANCH   4  29
TORSDOF 9
ENDMDL
MODEL 4
REMARK VINA RESULT:      -7.6      4.056     11.188
REMARK  9 active torsions:
REMARK  status: ('A' for Active; 'I' for Inactive)
REMARK    1  A    between atoms: C_4  and  O_5 
REMARK    2  A    between atoms: O_5  and  C_6 
REMARK    3  A    between atoms: C_6  and  C_7 
REMARK    4  A    between atoms: C_7  and  O_8 
REMARK    5  A    between atoms: C_13  and  C_14 
REMARK    6  A    between atoms: C_14  and  C_15 
REMARK    7  A    between atoms: C_18  and  O_19 
REMARK    8  A    between atoms: C_20  and  C_21 
REMARK    9  A    between atoms: C_21  and  C_22 
ROOT
HETATM    1  C   UNK N   1      31.117  17.200   7.855  0.00  0.00    -0.053 A 
HETATM    2  C   UNK N   1      30.999  18.086   8.933  0.00  0.00     0.010 A 
HETATM    3  C   UNK N   1      29.760  18.635   9.257  0.00  0.00     0.037 A 
HETATM    4  C   UNK N   1      28.626  18.308   8.510  0.00  0.00     0.072 A 
HETATM    5  C   UNK N   1      28.722  17.385   7.447  0.00  0.00    -0.020 A 
HETATM    6  C   UNK N   1      29.975  16.845   7.120  0.00  0.00     0.017 A 
ENDROOT
BRANCH   1   7
HETATM    7  C   UNK N   1      32.474  16.741   7.397  0.00  0.00     0.078 C 
BRANCH   7   8
HETATM    8  C   UNK N   1      33.377  16.421   8.575  0.00  0.00    -0.042 A 
HETATM    9  C   UNK N   1      33.247  15.207   9.296  0.00  0.00    -0.052 A 
HETATM   10  C   UNK N   1      34.140  14.909  10.325  0.00  0.00     0.044 A 
HETATM   11  C   UNK N   1      32.190  14.205   8.978  0.00  0.00     0.049 C 
HETATM   12  C   UNK N   1      35.159  15.804  10.676  0.00  0.00     0.070 A 
HETATM   13  C   UNK N   1      35.264  17.021   9.998  0.00  0.00     0.044 A 
HETATM   14  C   UNK N   1      34.388  17.332   8.951  0.00  0.00    -0.052 A 
HETATM   15  C   UNK N   1      34.558  18.634   8.242  0.00  0.00     0.049 C 
BRANCH  12  16
HETATM   16  O   UNK N   1      36.062  15.502  11.640  0.00  0.00    -0.341 OA
BRANCH  16  17
HETATM   17  C   UNK N   1      36.256  14.209  12.092  0.00  0.00     0.285 C 
BRANCH  17  18
HETATM   18  C   UNK N   1      35.931  14.088  13.551  0.00  0.00     0.164 C 
HETATM   19  O   UNK N   1      36.655  14.569  14.397  0.00  0.00    -0.648 OA
BRANCH  18  20
HETATM   20  O   UNK N   1      34.811  13.428  13.919  0.00  0.00    -0.775 OA
HETATM   21  H   UNK N   1      34.240  13.780  14.573  0.00  0.00     0.167 HD
ENDBRANCH  18  20
ENDBRANCH  17  18
ENDBRANCH  16  17
ENDBRANCH  12  16
ENDBRANCH   7   8
ENDBRANCH   1   7
BRANCH   5  22
HETATM   22  C   UNK N   1      27.536  17.050   6.579  0.00  0.00     0.080 C 
BRANCH  22  23
HETATM   23  C   UNK N   1      27.208  18.067   5.526  0.00  0.00    -0.054 A 
HETATM   24  C   UNK N   1      25.993  17.953   4.839  0.00  0.00     0.007 A 
HETATM   25  C   UNK N   1      25.638  18.893   3.868  0.00  0.00     0.001 A 
HETATM   26  C   UNK N   1      26.489  19.966   3.593  0.00  0.00     0.000 A 
HETATM   27  C   UNK N   1      27.697  20.096   4.289  0.00  0.00     0.001 A 
HETATM   28  C   UNK N   1      28.059  19.146   5.255  0.00  0.00     0.007 A 
ENDBRANCH  22  23
ENDBRANCH   5  22
BRANCH   4  29
HETATM   29  O   UNK N   1      27.457  18.895   8.812  0.00  0.00    -0.360 OA
HETATM   30  H   UNK N   1      26.659  18.657   8.384  0.00  0.00     0.217 HD
ENDBRANCH   4  29
TORSDOF 9
ENDMDL
MODEL 5
REMARK VINA RESULT:      -7.6      3.986     10.835
REMARK  9 active torsions:
REMARK  status: ('A' for Active; 'I' for Inactive)
REMARK    1  A    between atoms: C_4  and  O_5 
REMARK    2  A    between atoms: O_5  and  C_6 
REMARK    3  A    between atoms: C_6  and  C_7 
REMARK    4  A    between atoms: C_7  and  O_8 
REMARK    5  A    between atoms: C_13  and  C_14 
REMARK    6  A    between atoms: C_14  and  C_15 
REMARK    7  A    between atoms: C_18  and  O_19 
REMARK    8  A    between atoms: C_20  and  C_21 
REMARK    9  A    between atoms: C_21  and  C_22 
ROOT
HETATM    1  C   UNK N   1      30.988  17.406   7.453  0.00  0.00    -0.053 A 
HETATM    2  C   UNK N   1      30.966  17.957   8.740  0.00  0.00     0.010 A 
HETATM    3  C   UNK N   1      29.751  18.285   9.340  0.00  0.00     0.037 A 
HETATM    4  C   UNK N   1      28.548  18.069   8.664  0.00  0.00     0.072 A 
HETATM    5  C   UNK N   1      28.554  17.476   7.384  0.00  0.00    -0.020 A 
HETATM    6  C   UNK N   1      29.781  17.159   6.782  0.00  0.00     0.017 A 
ENDROOT
BRANCH   1   7
HETATM    7  C   UNK N   1      32.296  17.211   6.736  0.00  0.00     0.078 C 
BRANCH   7   8
HETATM    8  C   UNK N   1      33.266  16.390   7.567  0.00  0.00    -0.042 A 
HETATM    9  C   UNK N   1      34.307  17.004   8.308  0.00  0.00    -0.052 A 
HETATM   10  C   UNK N   1      35.134  16.229   9.121  0.00  0.00     0.044 A 
HETATM   11  C   UNK N   1      34.544  18.476   8.273  0.00  0.00     0.049 C 
HETATM   12  C   UNK N   1      34.968  14.842   9.203  0.00  0.00     0.070 A 
HETATM   13  C   UNK N   1      33.971  14.226   8.441  0.00  0.00     0.044 A 
HETATM   14  C   UNK N   1      33.120  14.987   7.632  0.00  0.00    -0.052 A 
HETATM   15  C   UNK N   1      32.056  14.283   6.857  0.00  0.00     0.049 C 
BRANCH  12  16
HETATM   16  O   UNK N   1      35.733  14.086  10.028  0.00  0.00    -0.341 OA
BRANCH  16  17
HETATM   17  C   UNK N   1      36.372  14.617  11.135  0.00  0.00     0.285 C 
BRANCH  17  18
HETATM   18  C   UNK N   1      35.640  14.280  12.399  0.00  0.00     0.164 C 
HETATM   19  O   UNK N   1      36.137  14.488  13.486  0.00  0.00    -0.648 OA
BRANCH  18  20
HETATM   20  O   UNK N   1      34.407  13.735  12.316  0.00  0.00    -0.775 OA
HETATM   21  H   UNK N   1      34.234  13.028  11.726  0.00  0.00     0.167 HD
ENDBRANCH  18  20
ENDBRANCH  17  18
ENDBRANCH  16  17
ENDBRANCH  12  16
ENDBRANCH   7   8
ENDBRANCH   1   7
BRANCH   5  22
HETATM   22  C   UNK N   1      27.284  17.280   6.597  0.00  0.00     0.080 C 
BRANCH  22  23
HETATM   23  C   UNK N   1      26.976  18.359   5.601  0.00  0.00    -0.054 A 
HETATM   24  C   UNK N   1      27.379  19.670   5.885  0.00  0.00     0.007 A 
HETATM   25  C   UNK N   1      27.132  20.700   4.974  0.00  0.00     0.001 A 
HETATM   26  C   UNK N   1      26.497  20.419   3.762  0.00  0.00     0.000 A 
HETATM   27  C   UNK N   1      26.108  19.108   3.463  0.00  0.00     0.001 A 
HETATM   28  C   UNK N   1      26.344  18.077   4.383  0.00  0.00     0.007 A 
ENDBRANCH  22  23
ENDBRANCH   5  22
BRANCH   4  29
HETATM   29  O   UNK N   1      27.399  18.445   9.247  0.00  0.00    -0.360 OA
HETATM   30  H   UNK N   1      26.766  17.821   9.542  0.00  0.00     0.217 HD
ENDBRANCH   4  29
TORSDOF 9
ENDMDL
MODEL 6
REMARK VINA RESULT:      -7.6     11.880     16.571
REMARK  9 active torsions:
REMARK  status: ('A' for Active; 'I' for Inactive)
REMARK    1  A    between atoms: C_4  and  O_5 
REMARK    2  A    between atoms: O_5  and  C_6 
REMARK    3  A    between atoms: C_6  and  C_7 
REMARK    4  A    between atoms: C_7  and  O_8 
REMARK    5  A    between atoms: C_13  and  C_14 
REMARK    6  A    between atoms: C_14  and  C_15 
REMARK    7  A    between atoms: C_18  and  O_19 
REMARK    8  A    between atoms: C_20  and  C_21 
REMARK    9  A    between atoms: C_21  and  C_22 
ROOT
HETATM    1  C   UNK N   1      35.881  11.082  16.620  0.00  0.00    -0.053 A 
HETATM    2  C   UNK N   1      35.575  12.442  16.489  0.00  0.00     0.010 A 
HETATM    3  C   UNK N   1      35.237  13.195  17.613  0.00  0.00     0.037 A 
HETATM    4  C   UNK N   1      35.201  12.601  18.876  0.00  0.00     0.072 A 
HETATM    5  C   UNK N   1      35.549  11.242  19.028  0.00  0.00    -0.020 A 
HETATM    6  C   UNK N   1      35.877  10.488  17.891  0.00  0.00     0.017 A 
ENDROOT
BRANCH   1   7
HETATM    7  C   UNK N   1      36.077  10.229  15.397  0.00  0.00     0.078 C 
BRANCH   7   8
HETATM    8  C   UNK N   1      36.064  11.067  14.130  0.00  0.00    -0.042 A 
HETATM    9  C   UNK N   1      34.852  11.373  13.460  0.00  0.00    -0.052 A 
HETATM   10  C   UNK N   1      34.867  12.207  12.342  0.00  0.00     0.044 A 
HETATM   11  C   UNK N   1      33.535  10.852  13.925  0.00  0.00     0.049 C 
HETATM   12  C   UNK N   1      36.067  12.734  11.852  0.00  0.00     0.070 A 
HETATM   13  C   UNK N   1      37.269  12.400  12.482  0.00  0.00     0.044 A 
HETATM   14  C   UNK N   1      37.275  11.578  13.616  0.00  0.00    -0.052 A 
HETATM   15  C   UNK N   1      38.583  11.271  14.266  0.00  0.00     0.049 C 
BRANCH  12  16
HETATM   16  O   UNK N   1      36.087  13.585  10.797  0.00  0.00    -0.341 OA
BRANCH  16  17
HETATM   17  C   UNK N   1      35.159  14.601  10.650  0.00  0.00     0.285 C 
BRANCH  17  18
HETATM   18  C   UNK N   1      35.805  15.949  10.763  0.00  0.00     0.164 C 
HETATM   19  O   UNK N   1      35.140  16.963  10.792  0.00  0.00    -0.648 OA
BRANCH  18  20
HETATM   20  O   UNK N   1      37.152  16.025  10.831  0.00  0.00    -0.775 OA
HETATM   21  H   UNK N   1      37.679  15.907  10.066  0.00  0.00     0.167 HD
ENDBRANCH  18  20
ENDBRANCH  17  18
ENDBRANCH  16  17
ENDBRANCH  12  16
ENDBRANCH   7   8
ENDBRANCH   1   7
BRANCH   5  22
HETATM   22  C   UNK N   1      35.467  10.548  20.363  0.00  0.00     0.080 C 
BRANCH  22  23
HETATM   23  C   UNK N   1      34.138   9.929  20.681  0.00  0.00    -0.054 A 
HETATM   24  C   UNK N   1      33.636   8.939  19.827  0.00  0.00     0.007 A 
HETATM   25  C   UNK N   1      32.414   8.321  20.100  0.00  0.00     0.001 A 
HETATM   26  C   UNK N   1      31.695   8.676  21.245  0.00  0.00     0.000 A 
HETATM   27  C   UNK N   1      32.199   9.651  22.113  0.00  0.00     0.001 A 
HETATM   28  C   UNK N   1      33.419  10.281  21.832  0.00  0.00     0.007 A 
ENDBRANCH  22  23
ENDBRANCH   5  22
BRANCH   4  29
HETATM   29  O   UNK N   1      34.820  13.340  19.931  0.00  0.00    -0.360 OA
HETATM   30  H   UNK N   1      34.522  12.947  20.727  0.00  0.00     0.217 HD
ENDBRANCH   4  29
TORSDOF 9
ENDMDL
MODEL 7
REMARK VINA RESULT:      -7.4     11.844     15.951
REMARK  9 active torsions:
REMARK  status: ('A' for Active; 'I' for Inactive)
REMARK    1  A    between atoms: C_4  and  O_5 
REMARK    2  A    between atoms: O_5  and  C_6 
REMARK    3  A    between atoms: C_6  and  C_7 
REMARK    4  A    between atoms: C_7  and  O_8 
REMARK    5  A    between atoms: C_13  and  C_14 
REMARK    6  A    between atoms: C_14  and  C_15 
REMARK    7  A    between atoms: C_18  and  O_19 
REMARK    8  A    between atoms: C_20  and  C_21 
REMARK    9  A    between atoms: C_21  and  C_22 
ROOT
HETATM    1  C   UNK N   1      35.742  11.385  17.491  0.00  0.00    -0.053 A 
HETATM    2  C   UNK N   1      35.706  11.020  18.843  0.00  0.00     0.010 A 
HETATM    3  C   UNK N   1      36.275   9.818  19.259  0.00  0.00     0.037 A 
HETATM    4  C   UNK N   1      36.884   8.968  18.334  0.00  0.00     0.072 A 
HETATM    5  C   UNK N   1      36.966   9.343  16.976  0.00  0.00    -0.020 A 
HETATM    6  C   UNK N   1      36.380  10.549  16.563  0.00  0.00     0.017 A 
ENDROOT
BRANCH   1   7
HETATM    7  C   UNK N   1      34.983  12.592  17.012  0.00  0.00     0.078 C 
BRANCH   7   8
HETATM    8  C   UNK N   1      35.243  12.862  15.540  0.00  0.00    -0.042 A 
HETATM    9  C   UNK N   1      34.552  12.152  14.527  0.00  0.00    -0.052 A 
HETATM   10  C   UNK N   1      34.758  12.476  13.186  0.00  0.00     0.044 A 
HETATM   11  C   UNK N   1      33.577  11.068  14.841  0.00  0.00     0.049 C 
HETATM   12  C   UNK N   1      35.658  13.483  12.818  0.00  0.00     0.070 A 
HETATM   13  C   UNK N   1      36.374  14.157  13.812  0.00  0.00     0.044 A 
HETATM   14  C   UNK N   1      36.170  13.858  15.165  0.00  0.00    -0.052 A 
HETATM   15  C   UNK N   1      36.941  14.624  16.187  0.00  0.00     0.049 C 
BRANCH  12  16
HETATM   16  O   UNK N   1      35.829  13.840  11.522  0.00  0.00    -0.341 OA
BRANCH  16  17
HETATM   17  C   UNK N   1      35.049  14.807  10.913  0.00  0.00     0.285 C 
BRANCH  17  18
HETATM   18  C   UNK N   1      35.807  16.089  10.742  0.00  0.00     0.164 C 
HETATM   19  O   UNK N   1      35.231  17.133  10.515  0.00  0.00    -0.648 OA
BRANCH  18  20
HETATM   20  O   UNK N   1      37.153  16.072  10.844  0.00  0.00    -0.775 OA
HETATM   21  H   UNK N   1      37.571  16.037  11.681  0.00  0.00     0.167 HD
ENDBRANCH  18  20
ENDBRANCH  17  18
ENDBRANCH  16  17
ENDBRANCH  12  16
ENDBRANCH   7   8
ENDBRANCH   1   7
BRANCH   5  22
HETATM   22  C   UNK N   1      37.562   8.429  15.937  0.00  0.00     0.080 C 
BRANCH  22  23
HETATM   23  C   UNK N   1      37.141   8.707  14.524  0.00  0.00    -0.054 A 
HETATM   24  C   UNK N   1      35.955   8.131  14.051  0.00  0.00     0.007 A 
HETATM   25  C   UNK N   1      35.514   8.383  12.750  0.00  0.00     0.001 A 
HETATM   26  C   UNK N   1      36.249   9.232  11.919  0.00  0.00     0.000 A 
HETATM   27  C   UNK N   1      37.426   9.826  12.391  0.00  0.00     0.001 A 
HETATM   28  C   UNK N   1      37.875   9.563  13.692  0.00  0.00     0.007 A 
ENDBRANCH  22  23
ENDBRANCH   5  22
BRANCH   4  29
HETATM   29  O   UNK N   1      37.376   7.792  18.757  0.00  0.00    -0.360 OA
HETATM   30  H   UNK N   1      36.816   7.088  19.020  0.00  0.00     0.217 HD
ENDBRANCH   4  29
TORSDOF 9
ENDMDL
MODEL 8
REMARK VINA RESULT:      -7.3      2.571      4.462
REMARK  9 active torsions:
REMARK  status: ('A' for Active; 'I' for Inactive)
REMARK    1  A    between atoms: C_4  and  O_5 
REMARK    2  A    between atoms: O_5  and  C_6 
REMARK    3  A    between atoms: C_6  and  C_7 
REMARK    4  A    between atoms: C_7  and  O_8 
REMARK    5  A    between atoms: C_13  and  C_14 
REMARK    6  A    between atoms: C_14  and  C_15 
REMARK    7  A    between atoms: C_18  and  O_19 
REMARK    8  A    between atoms: C_20  and  C_21 
REMARK    9  A    between atoms: C_21  and  C_22 
ROOT
HETATM    1  C   UNK N   1      30.593  16.729   6.388  0.00  0.00    -0.053 A 
HETATM    2  C   UNK N   1      31.266  16.955   5.180  0.00  0.00     0.010 A 
HETATM    3  C   UNK N   1      32.606  17.338   5.186  0.00  0.00     0.037 A 
HETATM    4  C   UNK N   1      33.289  17.498   6.394  0.00  0.00     0.072 A 
HETATM    5  C   UNK N   1      32.636  17.232   7.616  0.00  0.00    -0.020 A 
HETATM    6  C   UNK N   1      31.283  16.860   7.602  0.00  0.00     0.017 A 
ENDROOT
BRANCH   1   7
HETATM    7  C   UNK N   1      29.109  16.486   6.393  0.00  0.00     0.078 C 
BRANCH   7   8
HETATM    8  C   UNK N   1      28.358  17.624   5.723  0.00  0.00    -0.042 A 
HETATM    9  C   UNK N   1      27.934  17.535   4.373  0.00  0.00    -0.052 A 
HETATM   10  C   UNK N   1      27.182  18.566   3.811  0.00  0.00     0.044 A 
HETATM   11  C   UNK N   1      28.244  16.352   3.521  0.00  0.00     0.049 C 
HETATM   12  C   UNK N   1      26.853  19.706   4.555  0.00  0.00     0.070 A 
HETATM   13  C   UNK N   1      27.305  19.818   5.872  0.00  0.00     0.044 A 
HETATM   14  C   UNK N   1      28.048  18.787   6.461  0.00  0.00    -0.052 A 
HETATM   15  C   UNK N   1      28.487  18.945   7.878  0.00  0.00     0.049 C 
BRANCH  12  16
HETATM   16  O   UNK N   1      26.080  20.690   4.034  0.00  0.00    -0.341 OA
BRANCH  16  17
HETATM   17  C   UNK N   1      25.376  20.530   2.853  0.00  0.00     0.285 C 
BRANCH  17  18
HETATM   18  C   UNK N   1      23.903  20.419   3.109  0.00  0.00     0.164 C 
HETATM   19  O   UNK N   1      23.137  21.291   2.755  0.00  0.00    -0.648 OA
BRANCH  18  20
HETATM   20  O   UNK N   1      23.430  19.327   3.747  0.00  0.00    -0.775 OA
HETATM   21  H   UNK N   1      23.565  18.469   3.394  0.00  0.00     0.167 HD
ENDBRANCH  18  20
ENDBRANCH  17  18
ENDBRANCH  16  17
ENDBRANCH  12  16
ENDBRANCH   7   8
ENDBRANCH   1   7
BRANCH   5  22
HETATM   22  C   UNK N   1      33.318  17.450   8.942  0.00  0.00     0.080 C 
BRANCH  22  23
HETATM   23  C   UNK N   1      34.249  16.355   9.370  0.00  0.00    -0.054 A 
HETATM   24  C   UNK N   1      35.276  16.660  10.272  0.00  0.00     0.007 A 
HETATM   25  C   UNK N   1      36.150  15.664  10.714  0.00  0.00     0.001 A 
HETATM   26  C   UNK N   1      35.989  14.349  10.270  0.00  0.00     0.000 A 
HETATM   27  C   UNK N   1      34.954  14.033   9.382  0.00  0.00     0.001 A 
HETATM   28  C   UNK N   1      34.085  15.035   8.928  0.00  0.00     0.007 A 
ENDBRANCH  22  23
ENDBRANCH   5  22
BRANCH   4  29
HETATM   29  O   UNK N   1      34.564  17.919   6.368  0.00  0.00    -0.360 OA
HETATM   30  H   UNK N   1      35.051  18.070   7.154  0.00  0.00     0.217 HD
ENDBRANCH   4  29
TORSDOF 9
ENDMDL
MODEL 9
REMARK VINA RESULT:      -7.3      9.418     13.673
REMARK  9 active torsions:
REMARK  status: ('A' for Active; 'I' for Inactive)
REMARK    1  A    between atoms: C_4  and  O_5 
REMARK    2  A    between atoms: O_5  and  C_6 
REMARK    3  A    between atoms: C_6  and  C_7 
REMARK    4  A    between atoms: C_7  and  O_8 
REMARK    5  A    between atoms: C_13  and  C_14 
REMARK    6  A    between atoms: C_14  and  C_15 
REMARK    7  A    between atoms: C_18  and  O_19 
REMARK    8  A    between atoms: C_20  and  C_21 
REMARK    9  A    between atoms: C_21  and  C_22 
ROOT
HETATM    1  C   UNK N   1      36.961  11.467  11.968  0.00  0.00    -0.053 A 
HETATM    2  C   UNK N   1      37.572  10.235  11.702  0.00  0.00     0.010 A 
HETATM    3  C   UNK N   1      37.099   9.073  12.308  0.00  0.00     0.037 A 
HETATM    4  C   UNK N   1      36.014   9.126  13.185  0.00  0.00     0.072 A 
HETATM    5  C   UNK N   1      35.362  10.353  13.430  0.00  0.00    -0.020 A 
HETATM    6  C   UNK N   1      35.851  11.521  12.825  0.00  0.00     0.017 A 
ENDROOT
BRANCH   1   7
HETATM    7  C   UNK N   1      37.571  12.742  11.453  0.00  0.00     0.078 C 
BRANCH   7   8
HETATM    8  C   UNK N   1      36.545  13.593  10.725  0.00  0.00    -0.042 A 
HETATM    9  C   UNK N   1      35.874  14.658  11.376  0.00  0.00    -0.052 A 
HETATM   10  C   UNK N   1      34.993  15.468  10.658  0.00  0.00     0.044 A 
HETATM   11  C   UNK N   1      36.093  14.972  12.817  0.00  0.00     0.049 C 
HETATM   12  C   UNK N   1      34.742  15.232   9.301  0.00  0.00     0.070 A 
HETATM   13  C   UNK N   1      35.367  14.156   8.666  0.00  0.00     0.044 A 
HETATM   14  C   UNK N   1      36.267  13.341   9.364  0.00  0.00    -0.052 A 
HETATM   15  C   UNK N   1      36.927  12.220   8.633  0.00  0.00     0.049 C 
BRANCH  12  16
HETATM   16  O   UNK N   1      33.927  16.043   8.583  0.00  0.00    -0.341 OA
BRANCH  16  17
HETATM   17  C   UNK N   1      33.738  17.375   8.906  0.00  0.00     0.285 C 
BRANCH  17  18
HETATM   18  C   UNK N   1      34.518  18.273   7.994  0.00  0.00     0.164 C 
HETATM   19  O   UNK N   1      34.464  18.142   6.789  0.00  0.00    -0.648 OA
BRANCH  18  20
HETATM   20  O   UNK N   1      35.293  19.240   8.532  0.00  0.00    -0.775 OA
HETATM   21  H   UNK N   1      36.202  19.302   8.315  0.00  0.00     0.167 HD
ENDBRANCH  18  20
ENDBRANCH  17  18
ENDBRANCH  16  17
ENDBRANCH  12  16
ENDBRANCH   7   8
ENDBRANCH   1   7
BRANCH   5  22
HETATM   22  C   UNK N   1      34.225  10.464  14.413  0.00  0.00     0.080 C 
BRANCH  22  23
HETATM   23  C   UNK N   1      34.557  11.169  15.696  0.00  0.00    -0.054 A 
HETATM   24  C   UNK N   1      34.964  10.405  16.796  0.00  0.00     0.007 A 
HETATM   25  C   UNK N   1      35.304  11.024  18.001  0.00  0.00     0.001 A 
HETATM   26  C   UNK N   1      35.259  12.417  18.106  0.00  0.00     0.000 A 
HETATM   27  C   UNK N   1      34.870  13.188  17.004  0.00  0.00     0.001 A 
HETATM   28  C   UNK N   1      34.516  12.566  15.799  0.00  0.00     0.007 A 
ENDBRANCH  22  23
ENDBRANCH   5  22
BRANCH   4  29
HETATM   29  O   UNK N   1      35.616   7.998  13.795  0.00  0.00    -0.360 OA
HETATM   30  H   UNK N   1      36.194   7.498  14.336  0.00  0.00     0.217 HD
ENDBRANCH   4  29
TORSDOF 9
ENDMDL
