REMARK  10 active torsions:
REMARK  status: ('A' for Active; 'I' for Inactive)
REMARK    1  A    between atoms: C_7  and  C_4 
REMARK    2  A    between atoms: O_24  and  C_4 
REMARK    3  A    between atoms: C_6  and  N_15 
REMARK    4  A    between atoms: C_8  and  N_18 
REMARK    5  A    between atoms: O_19  and  C_9 
REMARK    6  A    between atoms: N_17  and  N_11 
REMARK    7  A    between atoms: N_17  and  N_15 
REMARK    8  A    between atoms: P_26  and  O_21 
REMARK    9  A    between atoms: P_26  and  O_22 
REMARK   10  A    between atoms: P_26  and  O_24 
ROOT
HETATM    1  C   UNK N   1       0.122   2.438  -0.362  0.00  0.00     0.084 C 
HETATM    2  C   UNK N   1      -0.885   2.900   0.636  0.00  0.00     0.149 C 
HETATM    3  C   UNK N   1      -2.165   2.390  -0.031  0.00  0.00     0.173 C 
HETATM    4  C   UNK N   1      -0.494   1.123  -0.850  0.00  0.00     0.234 C 
HETATM    5  O   UNK N   1      -1.863   1.110  -0.501  0.00  0.00    -0.356 OA
ENDROOT
BRANCH   4   6
HETATM    6  N   UNK N   1       0.159  -0.113  -0.369  0.00  0.00    -0.282 N 
HETATM    7  C   UNK N   1      -0.579  -1.260  -0.431  0.00  0.00     0.109 A 
HETATM    8  C   UNK N   1      -0.008  -2.500  -0.185  0.00  0.00     0.005 A 
HETATM    9  C   UNK N   1      -0.847  -3.728  -0.270  0.00  0.00     0.054 C 
HETATM   10  C   UNK N   1       1.355  -2.566   0.093  0.00  0.00     0.151 A 
HETATM   11  N   UNK N   1       2.080  -1.423   0.176  0.00  0.00    -0.288 N 
HETATM   12  C   UNK N   1       1.507  -0.198  -0.047  0.00  0.00     0.330 A 
ATOM     13  HN  UNK N   1       3.072  -1.476   0.409  1.00  0.00     0.172 HD
HETATM   14  O   UNK N   1       2.207   0.798  -0.004  0.00  0.00    -0.246 OA
BRANCH  10  15
HETATM   15  O   UNK N   1       1.961  -3.754   0.261  0.00  0.00    -0.346 OA
HETATM   16  H   UNK N   1       1.454  -4.534   0.379  0.00  0.00     0.219 HD
ENDBRANCH  10  15
ENDBRANCH   4   6
BRANCH   2  17
HETATM   17  N   UNK N   1      -0.784   4.333   0.843  0.00  0.00    -0.245 N 
ATOM     18  HN  UNK N   1       0.097   4.719   1.184  1.00  0.00     0.197 HD
BRANCH  17  19
HETATM   19  N   UNK N   1      -1.712   5.092   0.624  0.00  0.00    -0.248 NA
BRANCH  19  20
HETATM   20  N   UNK N   1      -2.622   5.865   0.386  0.00  0.00    -0.261 N 
HETATM   21  H   UNK N   1      -2.449   6.815   0.193  0.00  0.00     0.193 HD
ATOM     22  HN  UNK N   1      -3.583   5.521   0.386  1.00  0.00     0.193 HD
ENDBRANCH  19  20
ENDBRANCH  17  19
ENDBRANCH   2  17
BRANCH   3  23
HETATM   23  C   UNK N   1      -3.372   2.261   0.889  0.00  0.00     0.214 C 
BRANCH  23  24
HETATM   24  O   UNK N   1      -4.122   3.435   0.895  0.00  0.00    -0.294 OA
BRANCH  24  25
HETATM   25  P   UNK N   1      -5.512   3.186  -0.144  0.00  0.00     0.390 P 
HETATM   26  O   UNK N   1      -6.129   1.776   0.083  0.00  0.00    -0.632 OA
BRANCH  25  27
HETATM   27  O   UNK N   1      -6.728   4.316   0.339  0.00  0.00    -0.307 OA
HETATM   28  H   UNK N   1      -6.520   5.224   0.610  0.00  0.00     0.222 HD
ENDBRANCH  25  27
BRANCH  25  29
HETATM   29  O   UNK N   1      -5.197   3.390  -1.843  0.00  0.00    -0.307 OA
HETATM   30  H   UNK N   1      -5.011   3.295  -2.790  0.00  0.00     0.222 HD
ENDBRANCH  25  29
ENDBRANCH  24  25
ENDBRANCH  23  24
ENDBRANCH   3  23
TORSDOF 10
