MODEL 1
REMARK VINA RESULT:      -6.2      0.000      0.000
REMARK  5 active torsions:
REMARK  status: ('A' for Active; 'I' for Inactive)
REMARK    1  A    between atoms: C_4  and  C_2 
REMARK    2  A    between atoms: O_19  and  C_2 
REMARK    3  A    between atoms: C_5  and  O_20 
REMARK    4  A    between atoms: O_21  and  C_8 
REMARK    5  A    between atoms: C_9  and  N_18 
REMARK       I    between atoms: N_11  and  C_10 
ROOT
HETATM    1  C   UNK N   1      32.059  17.358   4.591  0.00  0.00     0.188 A 
HETATM    2  C   UNK N   1      29.990  17.798   4.943  0.00  0.00     0.130 A 
HETATM    3  C   UNK N   1      30.502  17.243   6.053  0.00  0.00     0.157 A 
HETATM    4  C   UNK N   1      28.656  18.168   4.907  0.00  0.00     0.186 A 
HETATM    5  C   UNK N   1      28.454  17.403   7.160  0.00  0.00     0.679 A 
HETATM    6  N   UNK N   1      27.734  17.230   8.203  0.00  0.00    -0.234 N 
ATOM      7  HN  UNK N   1      26.738  17.444   8.175  1.00  0.00     0.174 HD
HETATM    8  N   UNK N   1      30.949  17.888   3.998  0.00  0.00    -0.346 N 
ATOM      9  HN  UNK N   1      30.864  18.266   3.055  1.00  0.00     0.167 HD
HETATM   10  N   UNK N   1      29.768  17.029   7.173  0.00  0.00    -0.174 N 
HETATM   11  N   UNK N   1      27.903  17.963   6.033  0.00  0.00    -0.168 N 
ATOM     12  HN  UNK N   1      26.918  18.230   6.034  1.00  0.00     0.186 HD
HETATM   13  N   UNK N   1      31.790  16.952   5.862  0.00  0.00    -0.297 N 
HETATM   14  H   UNK N   1      28.140  16.888   9.033  0.00  0.00     0.174 HD
HETATM   15  H   UNK N   1      30.169  16.618   7.973  0.00  0.00     0.186 HD
ENDROOT
BRANCH  13  16
HETATM   16  C   UNK N   1      32.646  16.290   6.844  0.00  0.00     0.259 C 
HETATM   17  C   UNK N   1      34.137  16.469   6.654  0.00  0.00     0.169 C 
HETATM   18  C   UNK N   1      34.610  15.925   7.977  0.00  0.00     0.070 C 
HETATM   19  C   UNK N   1      33.442  16.247   8.915  0.00  0.00     0.150 C 
HETATM   20  O   UNK N   1      32.384  16.766   8.136  0.00  0.00    -0.356 OA
BRANCH  17  21
HETATM   21  O   UNK N   1      34.469  17.825   6.579  0.00  0.00    -0.391 OA
HETATM   22  H   UNK N   1      34.704  18.621   6.076  0.00  0.00     0.210 HD
ENDBRANCH  17  21
BRANCH  19  23
HETATM   23  C   UNK N   1      32.975  14.975   9.615  0.00  0.00     0.196 C 
BRANCH  23  24
HETATM   24  O   UNK N   1      33.111  15.106  10.998  0.00  0.00    -0.398 OA
HETATM   25  H   UNK N   1      33.785  14.658  11.533  0.00  0.00     0.209 HD
ENDBRANCH  23  24
ENDBRANCH  19  23
ENDBRANCH  13  16
BRANCH   4  26
HETATM   26  O   UNK N   1      28.107  18.708   3.806  0.00  0.00    -0.344 OA
HETATM   27  H   UNK N   1      28.424  19.521   3.465  0.00  0.00     0.219 HD
ENDBRANCH   4  26
TORSDOF 5
ENDMDL
MODEL 2
REMARK VINA RESULT:      -6.2      8.464     11.191
REMARK  5 active torsions:
REMARK  status: ('A' for Active; 'I' for Inactive)
REMARK    1  A    between atoms: C_4  and  C_2 
REMARK    2  A    between atoms: O_19  and  C_2 
REMARK    3  A    between atoms: C_5  and  O_20 
REMARK    4  A    between atoms: O_21  and  C_8 
REMARK    5  A    between atoms: C_9  and  N_18 
REMARK       I    between atoms: N_11  and  C_10 
ROOT
HETATM    1  C   UNK N   1      24.531  13.741   8.136  0.00  0.00     0.188 A 
HETATM    2  C   UNK N   1      24.083  12.751   9.984  0.00  0.00     0.130 A 
HETATM    3  C   UNK N   1      22.929  13.131   9.415  0.00  0.00     0.157 A 
HETATM    4  C   UNK N   1      24.070  12.092  11.203  0.00  0.00     0.186 A 
HETATM    5  C   UNK N   1      21.686  12.229  11.172  0.00  0.00     0.679 A 
HETATM    6  N   UNK N   1      20.562  11.973  11.725  0.00  0.00    -0.234 N 
ATOM      7  HN  UNK N   1      20.536  11.540  12.648  1.00  0.00     0.174 HD
HETATM    8  N   UNK N   1      25.118  13.119   9.201  0.00  0.00    -0.346 N 
ATOM      9  HN  UNK N   1      26.113  12.967   9.366  1.00  0.00     0.167 HD
HETATM   10  N   UNK N   1      21.718  12.891   9.977  0.00  0.00    -0.174 N 
HETATM   11  N   UNK N   1      22.854  11.838  11.781  0.00  0.00    -0.168 N 
ATOM     12  HN  UNK N   1      22.815  11.352  12.677  1.00  0.00     0.186 HD
HETATM   13  N   UNK N   1      23.176  13.758   8.263  0.00  0.00    -0.297 N 
HETATM   14  H   UNK N   1      19.720  12.193  11.263  0.00  0.00     0.174 HD
HETATM   15  H   UNK N   1      20.887  13.183   9.538  0.00  0.00     0.186 HD
ENDROOT
BRANCH  13  16
HETATM   16  C   UNK N   1      22.153  14.351   7.404  0.00  0.00     0.259 C 
HETATM   17  C   UNK N   1      21.388  13.390   6.520  0.00  0.00     0.169 C 
HETATM   18  C   UNK N   1      20.289  14.313   6.063  0.00  0.00     0.070 C 
HETATM   19  C   UNK N   1      20.145  15.281   7.243  0.00  0.00     0.150 C 
HETATM   20  O   UNK N   1      21.174  15.000   8.169  0.00  0.00    -0.356 OA
BRANCH  17  21
HETATM   21  O   UNK N   1      20.825  12.359   7.278  0.00  0.00    -0.391 OA
HETATM   22  H   UNK N   1      20.810  11.780   8.057  0.00  0.00     0.210 HD
ENDBRANCH  17  21
BRANCH  19  23
HETATM   23  C   UNK N   1      20.286  16.718   6.753  0.00  0.00     0.196 C 
BRANCH  23  24
HETATM   24  O   UNK N   1      20.653  17.555   7.809  0.00  0.00    -0.398 OA
HETATM   25  H   UNK N   1      21.565  17.788   8.040  0.00  0.00     0.209 HD
ENDBRANCH  23  24
ENDBRANCH  19  23
ENDBRANCH  13  16
BRANCH   4  26
HETATM   26  O   UNK N   1      25.207  11.715  11.809  0.00  0.00    -0.344 OA
HETATM   27  H   UNK N   1      25.243  10.921  12.305  0.00  0.00     0.219 HD
ENDBRANCH   4  26
TORSDOF 5
ENDMDL
MODEL 3
REMARK VINA RESULT:      -6.1      5.433      8.568
REMARK  5 active torsions:
REMARK  status: ('A' for Active; 'I' for Inactive)
REMARK    1  A    between atoms: C_4  and  C_2 
REMARK    2  A    between atoms: O_19  and  C_2 
REMARK    3  A    between atoms: C_5  and  O_20 
REMARK    4  A    between atoms: O_21  and  C_8 
REMARK    5  A    between atoms: C_9  and  N_18 
REMARK       I    between atoms: N_11  and  C_10 
ROOT
HETATM    1  C   UNK N   1      35.859  15.392  12.195  0.00  0.00     0.188 A 
HETATM    2  C   UNK N   1      36.801  13.479  11.978  0.00  0.00     0.130 A 
HETATM    3  C   UNK N   1      36.253  13.818  10.801  0.00  0.00     0.157 A 
HETATM    4  C   UNK N   1      37.468  12.271  12.108  0.00  0.00     0.186 A 
HETATM    5  C   UNK N   1      36.993  11.841   9.808  0.00  0.00     0.679 A 
HETATM    6  N   UNK N   1      37.095  11.076   8.788  0.00  0.00    -0.234 N 
ATOM      7  HN  UNK N   1      37.533  10.160   8.881  1.00  0.00     0.174 HD
HETATM    8  N   UNK N   1      36.573  14.453  12.882  0.00  0.00    -0.346 N 
ATOM      9  HN  UNK N   1      36.867  14.482  13.859  1.00  0.00     0.167 HD
HETATM   10  N   UNK N   1      36.327  13.029   9.701  0.00  0.00    -0.174 N 
HETATM   11  N   UNK N   1      37.555  11.465  11.005  0.00  0.00    -0.168 N 
ATOM     12  HN  UNK N   1      38.042  10.572  11.072  1.00  0.00     0.186 HD
HETATM   13  N   UNK N   1      35.652  15.005  10.906  0.00  0.00    -0.297 N 
HETATM   14  H   UNK N   1      36.751  11.370   7.913  0.00  0.00     0.174 HD
HETATM   15  H   UNK N   1      35.913  13.302   8.851  0.00  0.00     0.186 HD
ENDROOT
BRANCH  13  16
HETATM   16  C   UNK N   1      34.908  15.657   9.831  0.00  0.00     0.259 C 
HETATM   17  C   UNK N   1      33.520  15.119   9.561  0.00  0.00     0.169 C 
HETATM   18  C   UNK N   1      33.017  16.208   8.650  0.00  0.00     0.070 C 
HETATM   19  C   UNK N   1      33.786  17.441   9.138  0.00  0.00     0.150 C 
HETATM   20  O   UNK N   1      34.724  17.019  10.106  0.00  0.00    -0.356 OA
BRANCH  17  21
HETATM   21  O   UNK N   1      32.752  15.118  10.729  0.00  0.00    -0.391 OA
HETATM   22  H   UNK N   1      32.638  14.942  11.677  0.00  0.00     0.210 HD
ENDBRANCH  17  21
BRANCH  19  23
HETATM   23  C   UNK N   1      34.524  18.086   7.969  0.00  0.00     0.196 C 
BRANCH  23  24
HETATM   24  O   UNK N   1      35.244  19.199   8.406  0.00  0.00    -0.398 OA
HETATM   25  H   UNK N   1      35.340  19.467   9.333  0.00  0.00     0.209 HD
ENDBRANCH  23  24
ENDBRANCH  19  23
ENDBRANCH  13  16
BRANCH   4  26
HETATM   26  O   UNK N   1      38.011  11.892  13.277  0.00  0.00    -0.344 OA
HETATM   27  H   UNK N   1      38.338  11.022  13.391  0.00  0.00     0.219 HD
ENDBRANCH   4  26
TORSDOF 5
ENDMDL
MODEL 4
REMARK VINA RESULT:      -6.1      2.549      3.733
REMARK  5 active torsions:
REMARK  status: ('A' for Active; 'I' for Inactive)
REMARK    1  A    between atoms: C_4  and  C_2 
REMARK    2  A    between atoms: O_19  and  C_2 
REMARK    3  A    between atoms: C_5  and  O_20 
REMARK    4  A    between atoms: O_21  and  C_8 
REMARK    5  A    between atoms: C_9  and  N_18 
REMARK       I    between atoms: N_11  and  C_10 
ROOT
HETATM    1  C   UNK N   1      35.078  15.457   6.983  0.00  0.00     0.188 A 
HETATM    2  C   UNK N   1      33.200  16.456   6.725  0.00  0.00     0.130 A 
HETATM    3  C   UNK N   1      33.386  16.233   8.036  0.00  0.00     0.157 A 
HETATM    4  C   UNK N   1      32.046  17.086   6.289  0.00  0.00     0.186 A 
HETATM    5  C   UNK N   1      31.352  17.245   8.568  0.00  0.00     0.679 A 
HETATM    6  N   UNK N   1      30.490  17.627   9.432  0.00  0.00    -0.234 N 
ATOM      7  HN  UNK N   1      29.610  18.041   9.124  1.00  0.00     0.174 HD
HETATM    8  N   UNK N   1      34.252  15.980   6.030  0.00  0.00    -0.346 N 
ATOM      9  HN  UNK N   1      34.398  16.004   5.021  1.00  0.00     0.167 HD
HETATM   10  N   UNK N   1      32.490  16.610   8.980  0.00  0.00    -0.174 N 
HETATM   11  N   UNK N   1      31.132  17.476   7.232  0.00  0.00    -0.168 N 
ATOM     12  HN  UNK N   1      30.275  17.945   6.937  1.00  0.00     0.186 HD
HETATM   13  N   UNK N   1      34.548  15.605   8.227  0.00  0.00    -0.297 N 
HETATM   14  H   UNK N   1      30.673  17.522  10.394  0.00  0.00     0.174 HD
HETATM   15  H   UNK N   1      32.652  16.431   9.935  0.00  0.00     0.186 HD
ENDROOT
BRANCH  13  16
HETATM   16  C   UNK N   1      35.047  15.161   9.527  0.00  0.00     0.259 C 
HETATM   17  C   UNK N   1      35.740  16.211  10.368  0.00  0.00     0.169 C 
HETATM   18  C   UNK N   1      35.812  15.460  11.672  0.00  0.00     0.070 C 
HETATM   19  C   UNK N   1      34.581  14.550  11.609  0.00  0.00     0.150 C 
HETATM   20  O   UNK N   1      33.999  14.686  10.328  0.00  0.00    -0.356 OA
BRANCH  17  21
HETATM   21  O   UNK N   1      34.922  17.331  10.538  0.00  0.00    -0.391 OA
HETATM   22  H   UNK N   1      34.175  17.789  10.957  0.00  0.00     0.210 HD
ENDBRANCH  17  21
BRANCH  19  23
HETATM   23  C   UNK N   1      34.999  13.098  11.820  0.00  0.00     0.196 C 
BRANCH  23  24
HETATM   24  O   UNK N   1      34.431  12.598  12.994  0.00  0.00    -0.398 OA
HETATM   25  H   UNK N   1      34.842  11.934  13.569  0.00  0.00     0.209 HD
ENDBRANCH  23  24
ENDBRANCH  19  23
ENDBRANCH  13  16
BRANCH   4  26
HETATM   26  O   UNK N   1      31.818  17.307   4.983  0.00  0.00    -0.344 OA
HETATM   27  H   UNK N   1      30.970  17.569   4.684  0.00  0.00     0.219 HD
ENDBRANCH   4  26
TORSDOF 5
ENDMDL
MODEL 5
REMARK VINA RESULT:      -5.9      4.073      6.312
REMARK  5 active torsions:
REMARK  status: ('A' for Active; 'I' for Inactive)
REMARK    1  A    between atoms: C_4  and  C_2 
REMARK    2  A    between atoms: O_19  and  C_2 
REMARK    3  A    between atoms: C_5  and  O_20 
REMARK    4  A    between atoms: O_21  and  C_8 
REMARK    5  A    between atoms: C_9  and  N_18 
REMARK       I    between atoms: N_11  and  C_10 
ROOT
HETATM    1  C   UNK N   1      35.403  16.330  11.425  0.00  0.00     0.188 A 
HETATM    2  C   UNK N   1      34.299  16.468   9.592  0.00  0.00     0.130 A 
HETATM    3  C   UNK N   1      34.254  15.197  10.021  0.00  0.00     0.157 A 
HETATM    4  C   UNK N   1      33.665  16.823   8.413  0.00  0.00     0.186 A 
HETATM    5  C   UNK N   1      32.953  14.554   8.194  0.00  0.00     0.679 A 
HETATM    6  N   UNK N   1      32.312  13.660   7.542  0.00  0.00    -0.234 N 
ATOM      7  HN  UNK N   1      31.887  13.891   6.644  1.00  0.00     0.174 HD
HETATM    8  N   UNK N   1      35.016  17.213  10.458  0.00  0.00    -0.346 N 
ATOM      9  HN  UNK N   1      35.223  18.211  10.403  1.00  0.00     0.167 HD
HETATM   10  N   UNK N   1      33.597  14.218   9.351  0.00  0.00    -0.174 N 
HETATM   11  N   UNK N   1      32.993  15.846   7.727  0.00  0.00    -0.168 N 
ATOM     12  HN  UNK N   1      32.515  16.081   6.857  1.00  0.00     0.186 HD
HETATM   13  N   UNK N   1      34.940  15.078  11.160  0.00  0.00    -0.297 N 
HETATM   14  H   UNK N   1      32.227  12.748   7.905  0.00  0.00     0.174 HD
HETATM   15  H   UNK N   1      33.583  13.293   9.689  0.00  0.00     0.186 HD
ENDROOT
BRANCH  13  16
HETATM   16  C   UNK N   1      35.144  13.823  11.879  0.00  0.00     0.259 C 
HETATM   17  C   UNK N   1      36.344  13.002  11.459  0.00  0.00     0.169 C 
HETATM   18  C   UNK N   1      36.361  12.011  12.593  0.00  0.00     0.070 C 
HETATM   19  C   UNK N   1      35.764  12.813  13.755  0.00  0.00     0.150 C 
HETATM   20  O   UNK N   1      35.323  14.056  13.249  0.00  0.00    -0.356 OA
BRANCH  17  21
HETATM   21  O   UNK N   1      37.512  13.768  11.512  0.00  0.00    -0.391 OA
HETATM   22  H   UNK N   1      38.453  13.907  11.318  0.00  0.00     0.210 HD
ENDBRANCH  17  21
BRANCH  19  23
HETATM   23  C   UNK N   1      34.576  12.060  14.346  0.00  0.00     0.196 C 
BRANCH  23  24
HETATM   24  O   UNK N   1      34.049  12.763  15.430  0.00  0.00    -0.398 OA
HETATM   25  H   UNK N   1      34.554  13.036  16.212  0.00  0.00     0.209 HD
ENDBRANCH  23  24
ENDBRANCH  19  23
ENDBRANCH  13  16
BRANCH   4  26
HETATM   26  O   UNK N   1      33.706  18.081   7.945  0.00  0.00    -0.344 OA
HETATM   27  H   UNK N   1      34.527  18.501   7.775  0.00  0.00     0.219 HD
ENDBRANCH   4  26
TORSDOF 5
ENDMDL
MODEL 6
REMARK VINA RESULT:      -5.9      3.475      6.565
REMARK  5 active torsions:
REMARK  status: ('A' for Active; 'I' for Inactive)
REMARK    1  A    between atoms: C_4  and  C_2 
REMARK    2  A    between atoms: O_19  and  C_2 
REMARK    3  A    between atoms: C_5  and  O_20 
REMARK    4  A    between atoms: O_21  and  C_8 
REMARK    5  A    between atoms: C_9  and  N_18 
REMARK       I    between atoms: N_11  and  C_10 
ROOT
HETATM    1  C   UNK N   1      31.918  15.726   9.069  0.00  0.00     0.188 A 
HETATM    2  C   UNK N   1      33.630  14.818   9.986  0.00  0.00     0.130 A 
HETATM    3  C   UNK N   1      33.943  15.131   8.719  0.00  0.00     0.157 A 
HETATM    4  C   UNK N   1      34.570  14.205  10.799  0.00  0.00     0.186 A 
HETATM    5  C   UNK N   1      36.106  14.294   8.972  0.00  0.00     0.679 A 
HETATM    6  N   UNK N   1      37.272  14.058   8.503  0.00  0.00    -0.234 N 
ATOM      7  HN  UNK N   1      37.956  13.557   9.069  1.00  0.00     0.174 HD
HETATM    8  N   UNK N   1      32.357  15.182  10.242  0.00  0.00    -0.346 N 
ATOM      9  HN  UNK N   1      31.839  15.076  11.114  1.00  0.00     0.167 HD
HETATM   10  N   UNK N   1      35.162  14.884   8.180  0.00  0.00    -0.174 N 
HETATM   11  N   UNK N   1      35.808  13.953  10.270  0.00  0.00    -0.168 N 
ATOM     12  HN  UNK N   1      36.519  13.506  10.848  1.00  0.00     0.186 HD
HETATM   13  N   UNK N   1      32.892  15.694   8.119  0.00  0.00    -0.297 N 
HETATM   14  H   UNK N   1      37.510  14.358   7.595  0.00  0.00     0.174 HD
HETATM   15  H   UNK N   1      35.363  15.123   7.246  0.00  0.00     0.186 HD
ENDROOT
BRANCH  13  16
HETATM   16  C   UNK N   1      32.861  16.113   6.719  0.00  0.00     0.259 C 
HETATM   17  C   UNK N   1      33.297  17.535   6.441  0.00  0.00     0.169 C 
HETATM   18  C   UNK N   1      33.410  17.459   4.941  0.00  0.00     0.070 C 
HETATM   19  C   UNK N   1      33.776  15.990   4.701  0.00  0.00     0.150 C 
HETATM   20  O   UNK N   1      33.708  15.313   5.940  0.00  0.00    -0.356 OA
BRANCH  17  21
HETATM   21  O   UNK N   1      34.565  17.780   6.976  0.00  0.00    -0.391 OA
HETATM   22  H   UNK N   1      35.147  18.135   7.667  0.00  0.00     0.210 HD
ENDBRANCH  17  21
BRANCH  19  23
HETATM   23  C   UNK N   1      32.784  15.361   3.728  0.00  0.00     0.196 C 
BRANCH  23  24
HETATM   24  O   UNK N   1      33.326  15.324   2.442  0.00  0.00    -0.398 OA
HETATM   25  H   UNK N   1      33.061  14.702   1.747  0.00  0.00     0.209 HD
ENDBRANCH  23  24
ENDBRANCH  19  23
ENDBRANCH  13  16
BRANCH   4  26
HETATM   26  O   UNK N   1      34.284  13.861  12.065  0.00  0.00    -0.344 OA
HETATM   27  H   UNK N   1      34.937  13.472  12.613  0.00  0.00     0.219 HD
ENDBRANCH   4  26
TORSDOF 5
ENDMDL
MODEL 7
REMARK VINA RESULT:      -5.9      4.076      5.517
REMARK  5 active torsions:
REMARK  status: ('A' for Active; 'I' for Inactive)
REMARK    1  A    between atoms: C_4  and  C_2 
REMARK    2  A    between atoms: O_19  and  C_2 
REMARK    3  A    between atoms: C_5  and  O_20 
REMARK    4  A    between atoms: O_21  and  C_8 
REMARK    5  A    between atoms: C_9  and  N_18 
REMARK       I    between atoms: N_11  and  C_10 
ROOT
HETATM    1  C   UNK N   1      27.304  20.054   4.111  0.00  0.00     0.188 A 
HETATM    2  C   UNK N   1      25.196  19.900   3.755  0.00  0.00     0.130 A 
HETATM    3  C   UNK N   1      25.535  19.001   4.692  0.00  0.00     0.157 A 
HETATM    4  C   UNK N   1      23.879  19.997   3.335  0.00  0.00     0.186 A 
HETATM    5  C   UNK N   1      23.330  18.262   4.880  0.00  0.00     0.679 A 
HETATM    6  N   UNK N   1      22.451  17.502   5.415  0.00  0.00    -0.234 N 
ATOM      7  HN  UNK N   1      21.489  17.522   5.078  1.00  0.00     0.174 HD
HETATM    8  N   UNK N   1      26.291  20.585   3.366  0.00  0.00    -0.346 N 
ATOM      9  HN  UNK N   1      26.349  21.331   2.673  1.00  0.00     0.167 HD
HETATM   10  N   UNK N   1      24.636  18.169   5.272  0.00  0.00    -0.174 N 
HETATM   11  N   UNK N   1      22.958  19.166   3.915  0.00  0.00    -0.168 N 
ATOM     12  HN  UNK N   1      21.982  19.219   3.626  1.00  0.00     0.186 HD
HETATM   13  N   UNK N   1      26.847  19.069   4.931  0.00  0.00    -0.297 N 
HETATM   14  H   UNK N   1      22.701  16.898   6.152  0.00  0.00     0.174 HD
HETATM   15  H   UNK N   1      24.914  17.517   5.956  0.00  0.00     0.186 HD
ENDROOT
BRANCH  13  16
HETATM   16  C   UNK N   1      27.568  18.198   5.857  0.00  0.00     0.259 C 
HETATM   17  C   UNK N   1      28.697  17.385   5.262  0.00  0.00     0.169 C 
HETATM   18  C   UNK N   1      29.334  16.898   6.538  0.00  0.00     0.070 C 
HETATM   19  C   UNK N   1      29.017  18.024   7.528  0.00  0.00     0.150 C 
HETATM   20  O   UNK N   1      28.158  18.944   6.886  0.00  0.00    -0.356 OA
BRANCH  17  21
HETATM   21  O   UNK N   1      29.604  18.210   4.592  0.00  0.00    -0.391 OA
HETATM   22  H   UNK N   1      30.492  18.583   4.471  0.00  0.00     0.210 HD
ENDBRANCH  17  21
BRANCH  19  23
HETATM   23  C   UNK N   1      28.315  17.451   8.755  0.00  0.00     0.196 C 
BRANCH  23  24
HETATM   24  O   UNK N   1      27.447  18.398   9.302  0.00  0.00    -0.398 OA
HETATM   25  H   UNK N   1      26.530  18.224   9.563  0.00  0.00     0.209 HD
ENDBRANCH  23  24
ENDBRANCH  19  23
ENDBRANCH  13  16
BRANCH   4  26
HETATM   26  O   UNK N   1      23.509  20.873   2.385  0.00  0.00    -0.344 OA
HETATM   27  H   UNK N   1      23.980  20.928   1.577  0.00  0.00     0.219 HD
ENDBRANCH   4  26
TORSDOF 5
ENDMDL
MODEL 8
REMARK VINA RESULT:      -5.9      2.512      4.110
REMARK  5 active torsions:
REMARK  status: ('A' for Active; 'I' for Inactive)
REMARK    1  A    between atoms: C_4  and  C_2 
REMARK    2  A    between atoms: O_19  and  C_2 
REMARK    3  A    between atoms: C_5  and  O_20 
REMARK    4  A    between atoms: O_21  and  C_8 
REMARK    5  A    between atoms: C_9  and  N_18 
REMARK       I    between atoms: N_11  and  C_10 
ROOT
HETATM    1  C   UNK N   1      29.031  17.738   8.754  0.00  0.00     0.188 A 
HETATM    2  C   UNK N   1      27.864  19.117   7.601  0.00  0.00     0.130 A 
HETATM    3  C   UNK N   1      28.707  18.479   6.774  0.00  0.00     0.157 A 
HETATM    4  C   UNK N   1      26.998  20.077   7.100  0.00  0.00     0.186 A 
HETATM    5  C   UNK N   1      27.896  19.653   4.928  0.00  0.00     0.679 A 
HETATM    6  N   UNK N   1      27.900  19.897   3.673  0.00  0.00    -0.234 N 
ATOM      7  HN  UNK N   1      27.311  20.639   3.296  1.00  0.00     0.174 HD
HETATM    8  N   UNK N   1      28.040  18.671   8.861  0.00  0.00    -0.346 N 
ATOM      9  HN  UNK N   1      27.546  18.965   9.704  1.00  0.00     0.167 HD
HETATM   10  N   UNK N   1      28.752  18.720   5.441  0.00  0.00    -0.174 N 
HETATM   11  N   UNK N   1      27.030  20.328   5.754  0.00  0.00    -0.168 N 
ATOM     12  HN  UNK N   1      26.401  21.027   5.359  1.00  0.00     0.186 HD
HETATM   13  N   UNK N   1      29.453  17.616   7.466  0.00  0.00    -0.297 N 
HETATM   14  H   UNK N   1      28.473  19.371   3.068  0.00  0.00     0.174 HD
HETATM   15  H   UNK N   1      29.383  18.238   4.858  0.00  0.00     0.186 HD
ENDROOT
BRANCH  13  16
HETATM   16  C   UNK N   1      30.513  16.789   6.893  0.00  0.00     0.259 C 
HETATM   17  C   UNK N   1      30.064  15.526   6.189  0.00  0.00     0.169 C 
HETATM   18  C   UNK N   1      31.360  15.158   5.516  0.00  0.00     0.070 C 
HETATM   19  C   UNK N   1      32.028  16.520   5.294  0.00  0.00     0.150 C 
HETATM   20  O   UNK N   1      31.239  17.504   5.931  0.00  0.00    -0.356 OA
BRANCH  17  21
HETATM   21  O   UNK N   1      29.112  15.817   5.207  0.00  0.00    -0.391 OA
HETATM   22  H   UNK N   1      28.857  15.969   4.283  0.00  0.00     0.210 HD
ENDBRANCH  17  21
BRANCH  19  23
HETATM   23  C   UNK N   1      33.424  16.517   5.909  0.00  0.00     0.196 C 
BRANCH  23  24
HETATM   24  O   UNK N   1      33.991  17.790   5.824  0.00  0.00    -0.398 OA
HETATM   25  H   UNK N   1      33.790  18.528   6.421  0.00  0.00     0.209 HD
ENDBRANCH  23  24
ENDBRANCH  19  23
ENDBRANCH  13  16
BRANCH   4  26
HETATM   26  O   UNK N   1      26.156  20.748   7.902  0.00  0.00    -0.344 OA
HETATM   27  H   UNK N   1      26.482  21.350   8.541  0.00  0.00     0.219 HD
ENDBRANCH   4  26
TORSDOF 5
ENDMDL
MODEL 9
REMARK VINA RESULT:      -5.9      7.657      9.996
REMARK  5 active torsions:
REMARK  status: ('A' for Active; 'I' for Inactive)
REMARK    1  A    between atoms: C_4  and  C_2 
REMARK    2  A    between atoms: O_19  and  C_2 
REMARK    3  A    between atoms: C_5  and  O_20 
REMARK    4  A    between atoms: O_21  and  C_8 
REMARK    5  A    between atoms: C_9  and  N_18 
REMARK       I    between atoms: N_11  and  C_10 
ROOT
HETATM    1  C   UNK N   1      20.852  19.178   3.556  0.00  0.00     0.188 A 
HETATM    2  C   UNK N   1      22.948  19.614   3.455  0.00  0.00     0.130 A 
HETATM    3  C   UNK N   1      22.746  18.726   4.441  0.00  0.00     0.157 A 
HETATM    4  C   UNK N   1      24.229  20.071   3.188  0.00  0.00     0.186 A 
HETATM    5  C   UNK N   1      25.024  18.660   4.943  0.00  0.00     0.679 A 
HETATM    6  N   UNK N   1      26.000  18.206   5.632  0.00  0.00    -0.234 N 
ATOM      7  HN  UNK N   1      26.940  18.573   5.487  1.00  0.00     0.174 HD
HETATM    8  N   UNK N   1      21.771  19.920   2.872  0.00  0.00    -0.346 N 
ATOM      9  HN  UNK N   1      21.605  20.561   2.096  1.00  0.00     0.167 HD
HETATM   10  N   UNK N   1      23.752  18.231   5.203  0.00  0.00    -0.174 N 
HETATM   11  N   UNK N   1      25.257  19.577   3.946  0.00  0.00    -0.168 N 
ATOM     12  HN  UNK N   1      26.209  19.895   3.769  1.00  0.00     0.186 HD
HETATM   13  N   UNK N   1      21.446  18.439   4.533  0.00  0.00    -0.297 N 
HETATM   14  H   UNK N   1      25.847  17.501   6.304  0.00  0.00     0.174 HD
HETATM   15  H   UNK N   1      23.574  17.582   5.922  0.00  0.00     0.186 HD
ENDROOT
BRANCH  13  16
HETATM   16  C   UNK N   1      20.861  17.547   5.532  0.00  0.00     0.259 C 
HETATM   17  C   UNK N   1      20.919  16.068   5.219  0.00  0.00     0.169 C 
HETATM   18  C   UNK N   1      20.518  15.526   6.566  0.00  0.00     0.070 C 
HETATM   19  C   UNK N   1      21.028  16.601   7.532  0.00  0.00     0.150 C 
HETATM   20  O   UNK N   1      21.511  17.685   6.766  0.00  0.00    -0.356 OA
BRANCH  17  21
HETATM   21  O   UNK N   1      22.231  15.670   4.946  0.00  0.00    -0.391 OA
HETATM   22  H   UNK N   1      22.881  15.012   4.650  0.00  0.00     0.210 HD
ENDBRANCH  17  21
BRANCH  19  23
HETATM   23  C   UNK N   1      19.886  17.081   8.421  0.00  0.00     0.196 C 
BRANCH  23  24
HETATM   24  O   UNK N   1      20.089  18.412   8.791  0.00  0.00    -0.398 OA
HETATM   25  H   UNK N   1      20.126  18.734   9.705  0.00  0.00     0.209 HD
ENDBRANCH  23  24
ENDBRANCH  19  23
ENDBRANCH  13  16
BRANCH   4  26
HETATM   26  O   UNK N   1      24.464  20.974   2.222  0.00  0.00    -0.344 OA
HETATM   27  H   UNK N   1      23.766  21.285   1.680  0.00  0.00     0.219 HD
ENDBRANCH   4  26
TORSDOF 5
ENDMDL
