MODEL 1
REMARK VINA RESULT:      -7.8      0.000      0.000
REMARK  17 active torsions:
REMARK  status: ('A' for Active; 'I' for Inactive)
REMARK    1  A    between atoms: C_1  and  N_2 
REMARK    2  A    between atoms: C_4  and  O_9 
REMARK    3  A    between atoms: C_7  and  C_13 
REMARK    4  A    between atoms: C_8  and  O_14 
REMARK    5  A    between atoms: C_13  and  O_16 
REMARK    6  A    between atoms: O_16  and  P_18 
REMARK    7  A    between atoms: P_18  and  O_19 
REMARK    8  A    between atoms: P_18  and  O_20 
REMARK    9  A    between atoms: O_19  and  P_22 
REMARK   10  A    between atoms: P_22  and  O_23 
REMARK   11  A    between atoms: P_22  and  O_24 
REMARK   12  A    between atoms: C_26  and  O_23 
REMARK   13  A    between atoms: C_27  and  N_30 
REMARK   14  A    between atoms: C_29  and  O_33 
REMARK       I    between atoms: N_30  and  C_34 
REMARK   15  A    between atoms: C_31  and  C_35 
REMARK   16  A    between atoms: C_32  and  O_36 
REMARK   17  A    between atoms: C_35  and  O_39 
ROOT
HETATM    1  P   UNK N   1      27.642  18.227   4.702  0.00  0.00     0.401 P 
HETATM    2  O   UNK N   1      28.655  17.206   4.121  0.00  0.00    -0.631 OA
ENDROOT
BRANCH   1   3
HETATM    3  O   UNK N   1      27.560  17.871   6.406  0.00  0.00    -0.294 OA
BRANCH   3   4
HETATM    4  C   UNK N   1      28.852  18.077   6.880  0.00  0.00     0.215 C 
BRANCH   4   5
HETATM    5  C   UNK N   1      28.866  18.762   8.252  0.00  0.00     0.180 C 
HETATM    6  O   UNK N   1      30.198  19.099   8.557  0.00  0.00    -0.353 OA
HETATM    7  C   UNK N   1      30.783  17.905   9.058  0.00  0.00     0.263 C 
HETATM    8  C   UNK N   1      29.651  16.962   9.473  0.00  0.00     0.198 C 
HETATM    9  C   UNK N   1      28.458  17.854   9.386  0.00  0.00     0.182 C 
BRANCH   7  10
HETATM   10  N   UNK N   1      31.729  17.373   8.052  0.00  0.00    -0.280 N 
HETATM   11  C   UNK N   1      32.993  17.896   7.786  0.00  0.00     0.331 A 
HETATM   12  N   UNK N   1      33.803  17.290   6.862  0.00  0.00    -0.275 N 
HETATM   13  O   UNK N   1      33.409  18.876   8.375  0.00  0.00    -0.246 OA
HETATM   14  C   UNK N   1      33.393  16.177   6.187  0.00  0.00     0.250 A 
HETATM   15  H   UNK N   1      34.696  17.664   6.682  0.00  0.00     0.173 HD
HETATM   16  O   UNK N   1      34.129  15.651   5.372  0.00  0.00    -0.268 OA
HETATM   17  C   UNK N   1      32.136  15.644   6.433  0.00  0.00     0.092 A 
HETATM   18  C   UNK N   1      31.319  16.260   7.378  0.00  0.00     0.104 A 
ENDBRANCH   7  10
BRANCH   8  19
HETATM   19  O   UNK N   1      29.828  16.497  10.775  0.00  0.00    -0.388 OA
HETATM   20  H   UNK N   1      29.527  15.614  11.042  0.00  0.00     0.210 HD
ENDBRANCH   8  19
BRANCH   9  21
HETATM   21  O   UNK N   1      27.283  17.144   9.135  0.00  0.00    -0.390 OA
HETATM   22  H   UNK N   1      26.422  17.300   8.717  0.00  0.00     0.210 HD
ENDBRANCH   9  21
ENDBRANCH   4   5
ENDBRANCH   3   4
ENDBRANCH   1   3
BRANCH   1  23
HETATM   23  O   UNK N   1      26.150  17.933   3.849  0.00  0.00    -0.195 OA
BRANCH  23  24
HETATM   24  P   UNK N   1      24.976  19.161   4.289  0.00  0.00     0.404 P 
HETATM   25  O   UNK N   1      25.558  20.129   5.347  0.00  0.00    -0.631 OA
BRANCH  24  26
HETATM   26  O   UNK N   1      23.600  18.477   5.113  0.00  0.00    -0.263 OA
BRANCH  26  27
HETATM   27  C   UNK N   1      22.541  18.297   4.206  0.00  0.00     0.297 C 
HETATM   28  C   UNK N   1      21.463  17.275   4.668  0.00  0.00     0.171 C 
HETATM   29  C   UNK N   1      20.341  17.236   3.610  0.00  0.00     0.177 C 
HETATM   30  C   UNK N   1      19.897  18.636   3.180  0.00  0.00     0.180 C 
HETATM   31  C   UNK N   1      21.170  19.419   2.833  0.00  0.00     0.179 C 
HETATM   32  O   UNK N   1      21.937  19.546   3.997  0.00  0.00    -0.348 OA
BRANCH  28  33
HETATM   33  N   UNK N   1      20.978  17.558   6.003  0.00  0.00    -0.349 N 
HETATM   34  C   UNK N   1      20.714  16.560   6.889  0.00  0.00     0.214 C 
HETATM   35  C   UNK N   1      20.263  16.894   8.266  0.00  0.00     0.117 C 
HETATM   36  O   UNK N   1      20.852  15.388   6.571  0.00  0.00    -0.274 OA
HETATM   37  H   UNK N   1      20.836  18.492   6.277  0.00  0.00     0.163 HD
ENDBRANCH  28  33
BRANCH  29  38
HETATM   38  O   UNK N   1      19.252  16.465   4.022  0.00  0.00    -0.391 OA
HETATM   39  H   UNK N   1      18.342  16.799   4.002  0.00  0.00     0.210 HD
ENDBRANCH  29  38
BRANCH  30  40
HETATM   40  O   UNK N   1      19.061  18.530   2.067  0.00  0.00    -0.390 OA
HETATM   41  H   UNK N   1      18.160  18.820   1.854  0.00  0.00     0.210 HD
ENDBRANCH  30  40
BRANCH  31  42
HETATM   42  C   UNK N   1      20.888  20.799   2.270  0.00  0.00     0.198 C 
BRANCH  42  43
HETATM   43  O   UNK N   1      21.873  21.688   2.697  0.00  0.00    -0.398 OA
HETATM   44  H   UNK N   1      22.249  22.043   3.517  0.00  0.00     0.209 HD
ENDBRANCH  42  43
ENDBRANCH  31  42
ENDBRANCH  26  27
ENDBRANCH  24  26
BRANCH  24  45
HETATM   45  O   UNK N   1      24.489  20.135   2.938  0.00  0.00    -0.307 OA
HETATM   46  H   UNK N   1      24.452  21.100   3.021  0.00  0.00     0.222 HD
ENDBRANCH  24  45
ENDBRANCH  23  24
ENDBRANCH   1  23
BRANCH   1  47
HETATM   47  O   UNK N   1      28.303  19.789   4.328  0.00  0.00    -0.307 OA
HETATM   48  H   UNK N   1      28.301  20.502   4.986  0.00  0.00     0.222 HD
ENDBRANCH   1  47
TORSDOF 17
ENDMDL
MODEL 2
REMARK VINA RESULT:      -7.7      5.789      8.989
REMARK  17 active torsions:
REMARK  status: ('A' for Active; 'I' for Inactive)
REMARK    1  A    between atoms: C_1  and  N_2 
REMARK    2  A    between atoms: C_4  and  O_9 
REMARK    3  A    between atoms: C_7  and  C_13 
REMARK    4  A    between atoms: C_8  and  O_14 
REMARK    5  A    between atoms: C_13  and  O_16 
REMARK    6  A    between atoms: O_16  and  P_18 
REMARK    7  A    between atoms: P_18  and  O_19 
REMARK    8  A    between atoms: P_18  and  O_20 
REMARK    9  A    between atoms: O_19  and  P_22 
REMARK   10  A    between atoms: P_22  and  O_23 
REMARK   11  A    between atoms: P_22  and  O_24 
REMARK   12  A    between atoms: C_26  and  O_23 
REMARK   13  A    between atoms: C_27  and  N_30 
REMARK   14  A    between atoms: C_29  and  O_33 
REMARK       I    between atoms: N_30  and  C_34 
REMARK   15  A    between atoms: C_31  and  C_35 
REMARK   16  A    between atoms: C_32  and  O_36 
REMARK   17  A    between atoms: C_35  and  O_39 
ROOT
HETATM    1  P   UNK N   1      19.392  12.372   3.579  0.00  0.00     0.401 P 
HETATM    2  O   UNK N   1      18.551  11.191   3.027  0.00  0.00    -0.631 OA
ENDROOT
BRANCH   1   3
HETATM    3  O   UNK N   1      19.250  12.262   5.313  0.00  0.00    -0.294 OA
BRANCH   3   4
HETATM    4  C   UNK N   1      20.293  13.039   5.810  0.00  0.00     0.215 C 
BRANCH   4   5
HETATM    5  C   UNK N   1      21.350  12.198   6.535  0.00  0.00     0.180 C 
HETATM    6  O   UNK N   1      21.188  12.395   7.919  0.00  0.00    -0.353 OA
HETATM    7  C   UNK N   1      21.850  13.619   8.205  0.00  0.00     0.263 C 
HETATM    8  C   UNK N   1      22.802  13.925   7.045  0.00  0.00     0.198 C 
HETATM    9  C   UNK N   1      22.767  12.649   6.273  0.00  0.00     0.182 C 
BRANCH   7  10
HETATM   10  N   UNK N   1      20.837  14.657   8.498  0.00  0.00    -0.280 N 
HETATM   11  C   UNK N   1      19.847  14.558   9.474  0.00  0.00     0.331 A 
HETATM   12  N   UNK N   1      18.990  15.605   9.689  0.00  0.00    -0.275 N 
HETATM   13  O   UNK N   1      19.737  13.561  10.164  0.00  0.00    -0.246 OA
HETATM   14  C   UNK N   1      19.083  16.754   8.957  0.00  0.00     0.250 A 
HETATM   15  H   UNK N   1      18.296  15.528  10.383  0.00  0.00     0.173 HD
HETATM   16  O   UNK N   1      18.315  17.674   9.165  0.00  0.00    -0.268 OA
HETATM   17  C   UNK N   1      20.058  16.870   7.976  0.00  0.00     0.092 A 
HETATM   18  C   UNK N   1      20.930  15.805   7.766  0.00  0.00     0.104 A 
ENDBRANCH   7  10
BRANCH   8  19
HETATM   19  O   UNK N   1      24.091  14.192   7.502  0.00  0.00    -0.388 OA
HETATM   20  H   UNK N   1      24.434  15.099   7.546  0.00  0.00     0.210 HD
ENDBRANCH   8  19
BRANCH   9  21
HETATM   21  O   UNK N   1      23.047  12.842   4.919  0.00  0.00    -0.390 OA
HETATM   22  H   UNK N   1      22.766  12.477   4.066  0.00  0.00     0.210 HD
ENDBRANCH   9  21
ENDBRANCH   4   5
ENDBRANCH   3   4
ENDBRANCH   1   3
BRANCH   1  23
HETATM   23  O   UNK N   1      18.671  13.807   2.903  0.00  0.00    -0.195 OA
BRANCH  23  24
HETATM   24  P   UNK N   1      19.752  14.491   1.701  0.00  0.00     0.404 P 
HETATM   25  O   UNK N   1      20.101  13.445   0.614  0.00  0.00    -0.631 OA
BRANCH  24  26
HETATM   26  O   UNK N   1      21.312  14.876   2.376  0.00  0.00    -0.263 OA
BRANCH  26  27
HETATM   27  C   UNK N   1      21.190  15.943   3.284  0.00  0.00     0.297 C 
HETATM   28  C   UNK N   1      22.468  16.223   4.126  0.00  0.00     0.171 C 
HETATM   29  C   UNK N   1      22.205  17.452   5.020  0.00  0.00     0.177 C 
HETATM   30  C   UNK N   1      21.560  18.606   4.249  0.00  0.00     0.180 C 
HETATM   31  C   UNK N   1      20.366  18.018   3.485  0.00  0.00     0.179 C 
HETATM   32  O   UNK N   1      20.854  17.093   2.554  0.00  0.00    -0.348 OA
BRANCH  28  33
HETATM   33  N   UNK N   1      23.649  16.362   3.299  0.00  0.00    -0.349 N 
HETATM   34  C   UNK N   1      24.838  15.814   3.662  0.00  0.00     0.214 C 
HETATM   35  C   UNK N   1      26.016  15.937   2.762  0.00  0.00     0.117 C 
HETATM   36  O   UNK N   1      24.953  15.208   4.718  0.00  0.00    -0.274 OA
HETATM   37  H   UNK N   1      23.589  16.863   2.455  0.00  0.00     0.163 HD
ENDBRANCH  28  33
BRANCH  29  38
HETATM   38  O   UNK N   1      23.355  17.873   5.691  0.00  0.00    -0.391 OA
HETATM   39  H   UNK N   1      23.321  18.478   6.449  0.00  0.00     0.210 HD
ENDBRANCH  29  38
BRANCH  30  40
HETATM   40  O   UNK N   1      21.138  19.583   5.152  0.00  0.00    -0.390 OA
HETATM   41  H   UNK N   1      20.768  20.476   5.075  0.00  0.00     0.210 HD
ENDBRANCH  30  40
BRANCH  31  42
HETATM   42  C   UNK N   1      19.545  19.067   2.761  0.00  0.00     0.198 C 
BRANCH  42  43
HETATM   43  O   UNK N   1      18.364  18.493   2.290  0.00  0.00    -0.398 OA
HETATM   44  H   UNK N   1      17.944  18.235   1.455  0.00  0.00     0.209 HD
ENDBRANCH  42  43
ENDBRANCH  31  42
ENDBRANCH  26  27
ENDBRANCH  24  26
BRANCH  24  45
HETATM   45  O   UNK N   1      19.060  15.853   0.878  0.00  0.00    -0.307 OA
HETATM   46  H   UNK N   1      19.548  16.290   0.164  0.00  0.00     0.222 HD
ENDBRANCH  24  45
ENDBRANCH  23  24
ENDBRANCH   1  23
BRANCH   1  47
HETATM   47  O   UNK N   1      20.999  12.109   2.974  0.00  0.00    -0.307 OA
HETATM   48  H   UNK N   1      21.724  12.711   3.206  0.00  0.00     0.222 HD
ENDBRANCH   1  47
TORSDOF 17
ENDMDL
MODEL 3
REMARK VINA RESULT:      -7.7      7.615     13.275
REMARK  17 active torsions:
REMARK  status: ('A' for Active; 'I' for Inactive)
REMARK    1  A    between atoms: C_1  and  N_2 
REMARK    2  A    between atoms: C_4  and  O_9 
REMARK    3  A    between atoms: C_7  and  C_13 
REMARK    4  A    between atoms: C_8  and  O_14 
REMARK    5  A    between atoms: C_13  and  O_16 
REMARK    6  A    between atoms: O_16  and  P_18 
REMARK    7  A    between atoms: P_18  and  O_19 
REMARK    8  A    between atoms: P_18  and  O_20 
REMARK    9  A    between atoms: O_19  and  P_22 
REMARK   10  A    between atoms: P_22  and  O_23 
REMARK   11  A    between atoms: P_22  and  O_24 
REMARK   12  A    between atoms: C_26  and  O_23 
REMARK   13  A    between atoms: C_27  and  N_30 
REMARK   14  A    between atoms: C_29  and  O_33 
REMARK       I    between atoms: N_30  and  C_34 
REMARK   15  A    between atoms: C_31  and  C_35 
REMARK   16  A    between atoms: C_32  and  O_36 
REMARK   17  A    between atoms: C_35  and  O_39 
ROOT
HETATM    1  P   UNK N   1      34.026  13.953   8.502  0.00  0.00     0.401 P 
HETATM    2  O   UNK N   1      33.988  12.755   9.487  0.00  0.00    -0.631 OA
ENDROOT
BRANCH   1   3
HETATM    3  O   UNK N   1      34.274  13.245   6.929  0.00  0.00    -0.294 OA
BRANCH   3   4
HETATM    4  C   UNK N   1      33.588  14.076   6.047  0.00  0.00     0.215 C 
BRANCH   4   5
HETATM    5  C   UNK N   1      34.516  14.703   4.999  0.00  0.00     0.180 C 
HETATM    6  O   UNK N   1      34.803  16.020   5.405  0.00  0.00    -0.353 OA
HETATM    7  C   UNK N   1      33.684  16.793   4.994  0.00  0.00     0.263 C 
HETATM    8  C   UNK N   1      32.923  15.996   3.932  0.00  0.00     0.198 C 
HETATM    9  C   UNK N   1      33.869  14.879   3.647  0.00  0.00     0.182 C 
BRANCH   7  10
HETATM   10  N   UNK N   1      32.904  17.183   6.190  0.00  0.00    -0.280 N 
HETATM   11  C   UNK N   1      33.427  17.815   7.316  0.00  0.00     0.331 A 
HETATM   12  N   UNK N   1      32.597  18.173   8.347  0.00  0.00    -0.275 N 
HETATM   13  O   UNK N   1      34.611  18.081   7.399  0.00  0.00    -0.246 OA
HETATM   14  C   UNK N   1      31.257  17.916   8.295  0.00  0.00     0.250 A 
HETATM   15  H   UNK N   1      32.974  18.622   9.137  0.00  0.00     0.173 HD
HETATM   16  O   UNK N   1      30.537  18.244   9.219  0.00  0.00    -0.268 OA
HETATM   17  C   UNK N   1      30.718  17.281   7.185  0.00  0.00     0.092 A 
HETATM   18  C   UNK N   1      31.565  16.926   6.138  0.00  0.00     0.104 A 
ENDBRANCH   7  10
BRANCH   8  19
HETATM   19  O   UNK N   1      32.698  16.759   2.788  0.00  0.00    -0.388 OA
HETATM   20  H   UNK N   1      31.804  16.892   2.436  0.00  0.00     0.210 HD
ENDBRANCH   8  19
BRANCH   9  21
HETATM   21  O   UNK N   1      33.214  13.734   3.191  0.00  0.00    -0.390 OA
HETATM   22  H   UNK N   1      32.516  13.507   2.557  0.00  0.00     0.210 HD
ENDBRANCH   9  21
ENDBRANCH   4   5
ENDBRANCH   3   4
ENDBRANCH   1   3
BRANCH   1  23
HETATM   23  O   UNK N   1      35.348  14.952   9.041  0.00  0.00    -0.195 OA
BRANCH  23  24
HETATM   24  P   UNK N   1      34.942  15.669  10.591  0.00  0.00     0.404 P 
HETATM   25  O   UNK N   1      34.807  17.207  10.470  0.00  0.00    -0.631 OA
BRANCH  24  26
HETATM   26  O   UNK N   1      36.235  15.489  11.747  0.00  0.00    -0.263 OA
BRANCH  26  27
HETATM   27  C   UNK N   1      35.998  14.365  12.557  0.00  0.00     0.297 C 
HETATM   28  C   UNK N   1      36.446  13.013  11.932  0.00  0.00     0.171 C 
HETATM   29  C   UNK N   1      36.186  11.890  12.957  0.00  0.00     0.177 C 
HETATM   30  C   UNK N   1      36.679  12.256  14.359  0.00  0.00     0.180 C 
HETATM   31  C   UNK N   1      36.119  13.648  14.677  0.00  0.00     0.179 C 
HETATM   32  O   UNK N   1      36.673  14.560  13.772  0.00  0.00    -0.348 OA
BRANCH  28  33
HETATM   33  N   UNK N   1      37.817  13.053  11.466  0.00  0.00    -0.349 N 
HETATM   34  C   UNK N   1      38.144  12.716  10.190  0.00  0.00     0.214 C 
HETATM   35  C   UNK N   1      39.557  12.817   9.736  0.00  0.00     0.117 C 
HETATM   36  O   UNK N   1      37.288  12.339   9.403  0.00  0.00    -0.274 OA
HETATM   37  H   UNK N   1      38.529  13.331  12.086  0.00  0.00     0.163 HD
ENDBRANCH  28  33
BRANCH  29  38
HETATM   38  O   UNK N   1      36.709  10.663  12.541  0.00  0.00    -0.391 OA
HETATM   39  H   UNK N   1      36.350  10.177  11.782  0.00  0.00     0.210 HD
ENDBRANCH  29  38
BRANCH  30  40
HETATM   40  O   UNK N   1      36.207  11.311  15.272  0.00  0.00    -0.390 OA
HETATM   41  H   UNK N   1      36.615  10.626  15.825  0.00  0.00     0.210 HD
ENDBRANCH  30  40
BRANCH  31  42
HETATM   42  C   UNK N   1      36.422  14.105  16.092  0.00  0.00     0.198 C 
BRANCH  42  43
HETATM   43  O   UNK N   1      35.471  13.580  16.966  0.00  0.00    -0.398 OA
HETATM   44  H   UNK N   1      34.692  13.001  16.957  0.00  0.00     0.209 HD
ENDBRANCH  42  43
ENDBRANCH  31  42
ENDBRANCH  26  27
ENDBRANCH  24  26
BRANCH  24  45
HETATM   45  O   UNK N   1      33.436  15.085  11.224  0.00  0.00    -0.307 OA
HETATM   46  H   UNK N   1      33.354  14.870  12.165  0.00  0.00     0.222 HD
ENDBRANCH  24  45
ENDBRANCH  23  24
ENDBRANCH   1  23
BRANCH   1  47
HETATM   47  O   UNK N   1      32.494  14.749   8.696  0.00  0.00    -0.307 OA
HETATM   48  H   UNK N   1      32.079  15.220   7.955  0.00  0.00     0.222 HD
ENDBRANCH   1  47
TORSDOF 17
ENDMDL
MODEL 4
REMARK VINA RESULT:      -7.6      6.305      9.639
REMARK  17 active torsions:
REMARK  status: ('A' for Active; 'I' for Inactive)
REMARK    1  A    between atoms: C_1  and  N_2 
REMARK    2  A    between atoms: C_4  and  O_9 
REMARK    3  A    between atoms: C_7  and  C_13 
REMARK    4  A    between atoms: C_8  and  O_14 
REMARK    5  A    between atoms: C_13  and  O_16 
REMARK    6  A    between atoms: O_16  and  P_18 
REMARK    7  A    between atoms: P_18  and  O_19 
REMARK    8  A    between atoms: P_18  and  O_20 
REMARK    9  A    between atoms: O_19  and  P_22 
REMARK   10  A    between atoms: P_22  and  O_23 
REMARK   11  A    between atoms: P_22  and  O_24 
REMARK   12  A    between atoms: C_26  and  O_23 
REMARK   13  A    between atoms: C_27  and  N_30 
REMARK   14  A    between atoms: C_29  and  O_33 
REMARK       I    between atoms: N_30  and  C_34 
REMARK   15  A    between atoms: C_31  and  C_35 
REMARK   16  A    between atoms: C_32  and  O_36 
REMARK   17  A    between atoms: C_35  and  O_39 
ROOT
HETATM    1  P   UNK N   1      33.568  15.195   9.871  0.00  0.00     0.401 P 
HETATM    2  O   UNK N   1      34.021  14.669  11.258  0.00  0.00    -0.631 OA
ENDROOT
BRANCH   1   3
HETATM    3  O   UNK N   1      33.995  13.937   8.743  0.00  0.00    -0.294 OA
BRANCH   3   4
HETATM    4  C   UNK N   1      34.525  12.916   9.525  0.00  0.00     0.215 C 
BRANCH   4   5
HETATM    5  C   UNK N   1      35.850  12.383   8.966  0.00  0.00     0.180 C 
HETATM    6  O   UNK N   1      36.204  11.238   9.704  0.00  0.00    -0.353 OA
HETATM    7  C   UNK N   1      36.811  11.727  10.891  0.00  0.00     0.263 C 
HETATM    8  C   UNK N   1      37.223  13.182  10.647  0.00  0.00     0.198 C 
HETATM    9  C   UNK N   1      37.016  13.318   9.176  0.00  0.00     0.182 C 
BRANCH   7  10
HETATM   10  N   UNK N   1      35.892  11.500  12.029  0.00  0.00    -0.280 N 
HETATM   11  C   UNK N   1      35.789  12.321  13.151  0.00  0.00     0.331 A 
HETATM   12  N   UNK N   1      34.865  12.036  14.123  0.00  0.00    -0.275 N 
HETATM   13  O   UNK N   1      36.489  13.307  13.280  0.00  0.00    -0.246 OA
HETATM   14  C   UNK N   1      34.041  10.953  14.018  0.00  0.00     0.250 A 
HETATM   15  H   UNK N   1      34.796  12.623  14.911  0.00  0.00     0.173 HD
HETATM   16  O   UNK N   1      33.226  10.720  14.891  0.00  0.00    -0.268 OA
HETATM   17  C   UNK N   1      34.134  10.120  12.912  0.00  0.00     0.092 A 
HETATM   18  C   UNK N   1      35.068  10.418  11.923  0.00  0.00     0.104 A 
ENDBRANCH   7  10
BRANCH   8  19
HETATM   19  O   UNK N   1      38.559  13.394  10.981  0.00  0.00    -0.388 OA
HETATM   20  H   UNK N   1      39.278  13.013  10.454  0.00  0.00     0.210 HD
ENDBRANCH   8  19
BRANCH   9  21
HETATM   21  O   UNK N   1      36.746  14.635   8.800  0.00  0.00    -0.390 OA
HETATM   22  H   UNK N   1      37.233  15.400   8.454  0.00  0.00     0.210 HD
ENDBRANCH   9  21
ENDBRANCH   4   5
ENDBRANCH   3   4
ENDBRANCH   1   3
BRANCH   1  23
HETATM   23  O   UNK N   1      34.444  16.682   9.633  0.00  0.00    -0.195 OA
BRANCH  23  24
HETATM   24  P   UNK N   1      34.203  17.243   7.987  0.00  0.00     0.404 P 
HETATM   25  O   UNK N   1      34.829  18.645   7.784  0.00  0.00    -0.631 OA
BRANCH  24  26
HETATM   26  O   UNK N   1      32.519  17.522   7.637  0.00  0.00    -0.263 OA
BRANCH  26  27
HETATM   27  C   UNK N   1      32.085  16.634   6.638  0.00  0.00     0.297 C 
HETATM   28  C   UNK N   1      30.602  16.183   6.775  0.00  0.00     0.171 C 
HETATM   29  C   UNK N   1      30.256  15.272   5.579  0.00  0.00     0.177 C 
HETATM   30  C   UNK N   1      30.731  15.853   4.246  0.00  0.00     0.180 C 
HETATM   31  C   UNK N   1      32.203  16.247   4.433  0.00  0.00     0.179 C 
HETATM   32  O   UNK N   1      32.266  17.261   5.395  0.00  0.00    -0.348 OA
BRANCH  28  33
HETATM   33  N   UNK N   1      29.699  17.307   6.915  0.00  0.00    -0.349 N 
HETATM   34  C   UNK N   1      29.202  17.671   8.127  0.00  0.00     0.214 C 
HETATM   35  C   UNK N   1      28.316  18.861   8.236  0.00  0.00     0.117 C 
HETATM   36  O   UNK N   1      29.482  17.039   9.135  0.00  0.00    -0.274 OA
HETATM   37  H   UNK N   1      29.440  17.820   6.116  0.00  0.00     0.163 HD
ENDBRANCH  28  33
BRANCH  29  38
HETATM   38  O   UNK N   1      28.897  14.952   5.535  0.00  0.00    -0.391 OA
HETATM   39  H   UNK N   1      28.493  14.509   4.772  0.00  0.00     0.210 HD
ENDBRANCH  29  38
BRANCH  30  40
HETATM   40  O   UNK N   1      30.600  14.885   3.249  0.00  0.00    -0.390 OA
HETATM   41  H   UNK N   1      29.993  14.147   3.084  0.00  0.00     0.210 HD
ENDBRANCH  30  40
BRANCH  31  42
HETATM   42  C   UNK N   1      32.858  16.733   3.154  0.00  0.00     0.198 C 
BRANCH  42  43
HETATM   43  O   UNK N   1      31.883  17.221   2.285  0.00  0.00    -0.398 OA
HETATM   44  H   UNK N   1      31.491  17.022   1.421  0.00  0.00     0.209 HD
ENDBRANCH  42  43
ENDBRANCH  31  42
ENDBRANCH  26  27
ENDBRANCH  24  26
BRANCH  24  45
HETATM   45  O   UNK N   1      34.933  16.197   6.811  0.00  0.00    -0.307 OA
HETATM   46  H   UNK N   1      34.379  15.703   6.188  0.00  0.00     0.222 HD
ENDBRANCH  24  45
ENDBRANCH  23  24
ENDBRANCH   1  23
BRANCH   1  47
HETATM   47  O   UNK N   1      31.859  15.469  10.025  0.00  0.00    -0.307 OA
HETATM   48  H   UNK N   1      31.426  16.196   9.549  0.00  0.00     0.222 HD
ENDBRANCH   1  47
TORSDOF 17
ENDMDL
MODEL 5
REMARK VINA RESULT:      -7.5      2.383      8.951
REMARK  17 active torsions:
REMARK  status: ('A' for Active; 'I' for Inactive)
REMARK    1  A    between atoms: C_1  and  N_2 
REMARK    2  A    between atoms: C_4  and  O_9 
REMARK    3  A    between atoms: C_7  and  C_13 
REMARK    4  A    between atoms: C_8  and  O_14 
REMARK    5  A    between atoms: C_13  and  O_16 
REMARK    6  A    between atoms: O_16  and  P_18 
REMARK    7  A    between atoms: P_18  and  O_19 
REMARK    8  A    between atoms: P_18  and  O_20 
REMARK    9  A    between atoms: O_19  and  P_22 
REMARK   10  A    between atoms: P_22  and  O_23 
REMARK   11  A    between atoms: P_22  and  O_24 
REMARK   12  A    between atoms: C_26  and  O_23 
REMARK   13  A    between atoms: C_27  and  N_30 
REMARK   14  A    between atoms: C_29  and  O_33 
REMARK       I    between atoms: N_30  and  C_34 
REMARK   15  A    between atoms: C_31  and  C_35 
REMARK   16  A    between atoms: C_32  and  O_36 
REMARK   17  A    between atoms: C_35  and  O_39 
ROOT
HETATM    1  P   UNK N   1      25.046  20.529   3.296  0.00  0.00     0.401 P 
HETATM    2  O   UNK N   1      26.067  21.130   2.295  0.00  0.00    -0.631 OA
ENDROOT
BRANCH   1   3
HETATM    3  O   UNK N   1      23.520  21.269   2.894  0.00  0.00    -0.294 OA
BRANCH   3   4
HETATM    4  C   UNK N   1      22.647  20.205   2.689  0.00  0.00     0.215 C 
BRANCH   4   5
HETATM    5  C   UNK N   1      21.177  20.627   2.815  0.00  0.00     0.180 C 
HETATM    6  O   UNK N   1      20.693  20.154   4.048  0.00  0.00    -0.353 OA
HETATM    7  C   UNK N   1      20.365  18.790   3.827  0.00  0.00     0.263 C 
HETATM    8  C   UNK N   1      20.237  18.573   2.317  0.00  0.00     0.198 C 
HETATM    9  C   UNK N   1      20.271  19.973   1.800  0.00  0.00     0.182 C 
BRANCH   7  10
HETATM   10  N   UNK N   1      21.359  17.938   4.518  0.00  0.00    -0.280 N 
HETATM   11  C   UNK N   1      21.641  17.984   5.882  0.00  0.00     0.331 A 
HETATM   12  N   UNK N   1      22.550  17.111   6.422  0.00  0.00    -0.275 N 
HETATM   13  O   UNK N   1      21.080  18.773   6.618  0.00  0.00    -0.246 OA
HETATM   14  C   UNK N   1      23.194  16.192   5.643  0.00  0.00     0.250 A 
HETATM   15  H   UNK N   1      22.742  17.147   7.386  0.00  0.00     0.173 HD
HETATM   16  O   UNK N   1      23.995  15.424   6.142  0.00  0.00    -0.268 OA
HETATM   17  C   UNK N   1      22.930  16.136   4.282  0.00  0.00     0.092 A 
HETATM   18  C   UNK N   1      22.001  17.020   3.740  0.00  0.00     0.104 A 
ENDBRANCH   7  10
BRANCH   8  19
HETATM   19  O   UNK N   1      19.031  17.955   1.992  0.00  0.00    -0.388 OA
HETATM   20  H   UNK N   1      18.227  18.471   1.826  0.00  0.00     0.210 HD
ENDBRANCH   8  19
BRANCH   9  21
HETATM   21  O   UNK N   1      20.757  20.043   0.494  0.00  0.00    -0.390 OA
HETATM   22  H   UNK N   1      20.673  20.627  -0.276  0.00  0.00     0.210 HD
ENDBRANCH   9  21
ENDBRANCH   4   5
ENDBRANCH   3   4
ENDBRANCH   1   3
BRANCH   1  23
HETATM   23  O   UNK N   1      25.642  20.958   4.877  0.00  0.00    -0.195 OA
BRANCH  23  24
HETATM   24  P   UNK N   1      27.024  19.952   5.272  0.00  0.00     0.404 P 
HETATM   25  O   UNK N   1      27.973  19.814   4.056  0.00  0.00    -0.631 OA
BRANCH  24  26
HETATM   26  O   UNK N   1      26.557  18.300   5.580  0.00  0.00    -0.263 OA
BRANCH  26  27
HETATM   27  C   UNK N   1      27.501  17.424   5.016  0.00  0.00     0.297 C 
HETATM   28  C   UNK N   1      28.763  17.184   5.894  0.00  0.00     0.171 C 
HETATM   29  C   UNK N   1      29.667  16.158   5.180  0.00  0.00     0.177 C 
HETATM   30  C   UNK N   1      28.883  14.948   4.667  0.00  0.00     0.180 C 
HETATM   31  C   UNK N   1      27.681  15.496   3.886  0.00  0.00     0.179 C 
HETATM   32  O   UNK N   1      26.862  16.197   4.779  0.00  0.00    -0.348 OA
BRANCH  28  33
HETATM   33  N   UNK N   1      28.423  16.800   7.248  0.00  0.00    -0.349 N 
HETATM   34  C   UNK N   1      28.691  17.612   8.305  0.00  0.00     0.214 C 
HETATM   35  C   UNK N   1      28.283  17.203   9.675  0.00  0.00     0.117 C 
HETATM   36  O   UNK N   1      29.256  18.684   8.144  0.00  0.00    -0.274 OA
HETATM   37  H   UNK N   1      27.988  15.932   7.408  0.00  0.00     0.163 HD
ENDBRANCH  28  33
BRANCH  29  38
HETATM   38  O   UNK N   1      30.745  15.761   5.974  0.00  0.00    -0.391 OA
HETATM   39  H   UNK N   1      31.237  14.941   5.809  0.00  0.00     0.210 HD
ENDBRANCH  29  38
BRANCH  30  40
HETATM   40  O   UNK N   1      29.706  14.184   3.838  0.00  0.00    -0.390 OA
HETATM   41  H   UNK N   1      30.624  13.874   3.879  0.00  0.00     0.210 HD
ENDBRANCH  30  40
BRANCH  31  42
HETATM   42  C   UNK N   1      26.865  14.413   3.208  0.00  0.00     0.198 C 
BRANCH  42  43
HETATM   43  O   UNK N   1      25.800  14.993   2.519  0.00  0.00    -0.398 OA
HETATM   44  H   UNK N   1      25.588  15.795   2.017  0.00  0.00     0.209 HD
ENDBRANCH  42  43
ENDBRANCH  31  42
ENDBRANCH  26  27
ENDBRANCH  24  26
BRANCH  24  45
HETATM   45  O   UNK N   1      27.972  20.598   6.573  0.00  0.00    -0.307 OA
HETATM   46  H   UNK N   1      28.759  21.132   6.385  0.00  0.00     0.222 HD
ENDBRANCH  24  45
ENDBRANCH  23  24
ENDBRANCH   1  23
BRANCH   1  47
HETATM   47  O   UNK N   1      25.103  18.813   3.029  0.00  0.00    -0.307 OA
HETATM   48  H   UNK N   1      24.415  18.366   2.511  0.00  0.00     0.222 HD
ENDBRANCH   1  47
TORSDOF 17
ENDMDL
MODEL 6
REMARK VINA RESULT:      -7.5      5.458      9.484
REMARK  17 active torsions:
REMARK  status: ('A' for Active; 'I' for Inactive)
REMARK    1  A    between atoms: C_1  and  N_2 
REMARK    2  A    between atoms: C_4  and  O_9 
REMARK    3  A    between atoms: C_7  and  C_13 
REMARK    4  A    between atoms: C_8  and  O_14 
REMARK    5  A    between atoms: C_13  and  O_16 
REMARK    6  A    between atoms: O_16  and  P_18 
REMARK    7  A    between atoms: P_18  and  O_19 
REMARK    8  A    between atoms: P_18  and  O_20 
REMARK    9  A    between atoms: O_19  and  P_22 
REMARK   10  A    between atoms: P_22  and  O_23 
REMARK   11  A    between atoms: P_22  and  O_24 
REMARK   12  A    between atoms: C_26  and  O_23 
REMARK   13  A    between atoms: C_27  and  N_30 
REMARK   14  A    between atoms: C_29  and  O_33 
REMARK       I    between atoms: N_30  and  C_34 
REMARK   15  A    between atoms: C_31  and  C_35 
REMARK   16  A    between atoms: C_32  and  O_36 
REMARK   17  A    between atoms: C_35  and  O_39 
ROOT
HETATM    1  P   UNK N   1      33.648  15.187   9.499  0.00  0.00     0.401 P 
HETATM    2  O   UNK N   1      34.266  15.345  10.913  0.00  0.00    -0.631 OA
ENDROOT
BRANCH   1   3
HETATM    3  O   UNK N   1      33.844  13.502   9.100  0.00  0.00    -0.294 OA
BRANCH   3   4
HETATM    4  C   UNK N   1      34.649  12.983  10.110  0.00  0.00     0.215 C 
BRANCH   4   5
HETATM    5  C   UNK N   1      35.833  12.181   9.556  0.00  0.00     0.180 C 
HETATM    6  O   UNK N   1      36.231  11.257  10.540  0.00  0.00    -0.353 OA
HETATM    7  C   UNK N   1      37.048  11.993  11.439  0.00  0.00     0.263 C 
HETATM    8  C   UNK N   1      37.502  13.270  10.729  0.00  0.00     0.198 C 
HETATM    9  C   UNK N   1      37.071  13.012   9.324  0.00  0.00     0.182 C 
BRANCH   7  10
HETATM   10  N   UNK N   1      36.311  12.188  12.708  0.00  0.00    -0.280 N 
HETATM   11  C   UNK N   1      35.633  11.189  13.403  0.00  0.00     0.331 A 
HETATM   12  N   UNK N   1      35.024  11.477  14.596  0.00  0.00    -0.275 N 
HETATM   13  O   UNK N   1      35.586  10.047  12.983  0.00  0.00    -0.246 OA
HETATM   14  C   UNK N   1      35.064  12.737  15.122  0.00  0.00     0.250 A 
HETATM   15  H   UNK N   1      34.550  10.764  15.082  0.00  0.00     0.173 HD
HETATM   16  O   UNK N   1      34.520  12.972  16.184  0.00  0.00    -0.268 OA
HETATM   17  C   UNK N   1      35.729  13.747  14.442  0.00  0.00     0.092 A 
HETATM   18  C   UNK N   1      36.352  13.447  13.233  0.00  0.00     0.104 A 
ENDBRANCH   7  10
BRANCH   8  19
HETATM   19  O   UNK N   1      38.885  13.428  10.801  0.00  0.00    -0.388 OA
HETATM   20  H   UNK N   1      39.369  13.272  11.628  0.00  0.00     0.210 HD
ENDBRANCH   8  19
BRANCH   9  21
HETATM   21  O   UNK N   1      36.825  14.192   8.620  0.00  0.00    -0.390 OA
HETATM   22  H   UNK N   1      36.498  15.086   8.805  0.00  0.00     0.210 HD
ENDBRANCH   9  21
ENDBRANCH   4   5
ENDBRANCH   3   4
ENDBRANCH   1   3
BRANCH   1  23
HETATM   23  O   UNK N   1      34.557  16.264   8.474  0.00  0.00    -0.195 OA
BRANCH  23  24
HETATM   24  P   UNK N   1      33.450  17.196   7.482  0.00  0.00     0.404 P 
HETATM   25  O   UNK N   1      32.751  18.297   8.317  0.00  0.00    -0.631 OA
BRANCH  24  26
HETATM   26  O   UNK N   1      32.108  16.232   6.925  0.00  0.00    -0.263 OA
BRANCH  26  27
HETATM   27  C   UNK N   1      30.977  17.046   6.745  0.00  0.00     0.297 C 
HETATM   28  C   UNK N   1      30.501  17.174   5.269  0.00  0.00     0.171 C 
HETATM   29  C   UNK N   1      29.222  18.035   5.241  0.00  0.00     0.177 C 
HETATM   30  C   UNK N   1      28.211  17.613   6.309  0.00  0.00     0.180 C 
HETATM   31  C   UNK N   1      28.976  17.528   7.636  0.00  0.00     0.179 C 
HETATM   32  O   UNK N   1      29.936  16.515   7.523  0.00  0.00    -0.348 OA
BRANCH  28  33
HETATM   33  N   UNK N   1      30.333  15.882   4.635  0.00  0.00    -0.349 N 
HETATM   34  C   UNK N   1      31.205  15.436   3.692  0.00  0.00     0.214 C 
HETATM   35  C   UNK N   1      31.025  14.084   3.100  0.00  0.00     0.117 C 
HETATM   36  O   UNK N   1      32.145  16.128   3.330  0.00  0.00    -0.274 OA
HETATM   37  H   UNK N   1      29.571  15.315   4.892  0.00  0.00     0.163 HD
ENDBRANCH  28  33
BRANCH  29  38
HETATM   38  O   UNK N   1      28.634  18.067   3.974  0.00  0.00    -0.391 OA
HETATM   39  H   UNK N   1      28.540  17.272   3.425  0.00  0.00     0.210 HD
ENDBRANCH  29  38
BRANCH  30  40
HETATM   40  O   UNK N   1      27.195  18.569   6.383  0.00  0.00    -0.390 OA
HETATM   41  H   UNK N   1      26.757  19.051   7.101  0.00  0.00     0.210 HD
ENDBRANCH  30  40
BRANCH  31  42
HETATM   42  C   UNK N   1      28.081  17.235   8.825  0.00  0.00     0.198 C 
BRANCH  42  43
HETATM   43  O   UNK N   1      27.517  18.423   9.288  0.00  0.00    -0.398 OA
HETATM   44  H   UNK N   1      27.025  19.191   8.958  0.00  0.00     0.209 HD
ENDBRANCH  42  43
ENDBRANCH  31  42
ENDBRANCH  26  27
ENDBRANCH  24  26
BRANCH  24  45
HETATM   45  O   UNK N   1      34.246  18.000   6.166  0.00  0.00    -0.307 OA
HETATM   46  H   UNK N   1      34.054  17.744   5.251  0.00  0.00     0.222 HD
ENDBRANCH  24  45
ENDBRANCH  23  24
ENDBRANCH   1  23
BRANCH   1  47
HETATM   47  O   UNK N   1      31.995  15.695   9.667  0.00  0.00    -0.307 OA
HETATM   48  H   UNK N   1      31.343  15.133  10.114  0.00  0.00     0.222 HD
ENDBRANCH   1  47
TORSDOF 17
ENDMDL
MODEL 7
REMARK VINA RESULT:      -7.5      5.309      8.546
REMARK  17 active torsions:
REMARK  status: ('A' for Active; 'I' for Inactive)
REMARK    1  A    between atoms: C_1  and  N_2 
REMARK    2  A    between atoms: C_4  and  O_9 
REMARK    3  A    between atoms: C_7  and  C_13 
REMARK    4  A    between atoms: C_8  and  O_14 
REMARK    5  A    between atoms: C_13  and  O_16 
REMARK    6  A    between atoms: O_16  and  P_18 
REMARK    7  A    between atoms: P_18  and  O_19 
REMARK    8  A    between atoms: P_18  and  O_20 
REMARK    9  A    between atoms: O_19  and  P_22 
REMARK   10  A    between atoms: P_22  and  O_23 
REMARK   11  A    between atoms: P_22  and  O_24 
REMARK   12  A    between atoms: C_26  and  O_23 
REMARK   13  A    between atoms: C_27  and  N_30 
REMARK   14  A    between atoms: C_29  and  O_33 
REMARK       I    between atoms: N_30  and  C_34 
REMARK   15  A    between atoms: C_31  and  C_35 
REMARK   16  A    between atoms: C_32  and  O_36 
REMARK   17  A    between atoms: C_35  and  O_39 
ROOT
HETATM    1  P   UNK N   1      34.121  16.957   8.139  0.00  0.00     0.401 P 
HETATM    2  O   UNK N   1      35.118  17.772   9.004  0.00  0.00    -0.631 OA
ENDROOT
BRANCH   1   3
HETATM    3  O   UNK N   1      35.003  15.541   7.635  0.00  0.00    -0.294 OA
BRANCH   3   4
HETATM    4  C   UNK N   1      35.263  14.842   8.810  0.00  0.00     0.215 C 
BRANCH   4   5
HETATM    5  C   UNK N   1      36.757  14.546   8.992  0.00  0.00     0.180 C 
HETATM    6  O   UNK N   1      36.947  13.159   8.847  0.00  0.00    -0.353 OA
HETATM    7  C   UNK N   1      36.601  12.598  10.106  0.00  0.00     0.263 C 
HETATM    8  C   UNK N   1      36.633  13.719  11.148  0.00  0.00     0.198 C 
HETATM    9  C   UNK N   1      37.265  14.833  10.384  0.00  0.00     0.182 C 
BRANCH   7  10
HETATM   10  N   UNK N   1      35.315  11.878   9.974  0.00  0.00    -0.280 N 
HETATM   11  C   UNK N   1      34.490  11.511  11.036  0.00  0.00     0.331 A 
HETATM   12  N   UNK N   1      33.295  10.887  10.789  0.00  0.00    -0.275 N 
HETATM   13  O   UNK N   1      34.797  11.753  12.188  0.00  0.00    -0.246 OA
HETATM   14  C   UNK N   1      32.894  10.609   9.514  0.00  0.00     0.250 A 
HETATM   15  H   UNK N   1      32.717  10.633  11.545  0.00  0.00     0.173 HD
HETATM   16  O   UNK N   1      31.827  10.057   9.316  0.00  0.00    -0.268 OA
HETATM   17  C   UNK N   1      33.704  10.961   8.444  0.00  0.00     0.092 A 
HETATM   18  C   UNK N   1      34.914  11.602   8.699  0.00  0.00     0.104 A 
ENDBRANCH   7  10
BRANCH   8  19
HETATM   19  O   UNK N   1      37.413  13.368  12.248  0.00  0.00    -0.388 OA
HETATM   20  H   UNK N   1      37.362  13.860  13.082  0.00  0.00     0.210 HD
ENDBRANCH   8  19
BRANCH   9  21
HETATM   21  O   UNK N   1      36.887  16.087  10.866  0.00  0.00    -0.390 OA
HETATM   22  H   UNK N   1      36.895  16.568  11.708  0.00  0.00     0.210 HD
ENDBRANCH   9  21
ENDBRANCH   4   5
ENDBRANCH   3   4
ENDBRANCH   1   3
BRANCH   1  23
HETATM   23  O   UNK N   1      33.677  18.015   6.827  0.00  0.00    -0.195 OA
BRANCH  23  24
HETATM   24  P   UNK N   1      33.037  17.061   5.501  0.00  0.00     0.404 P 
HETATM   25  O   UNK N   1      32.619  17.968   4.318  0.00  0.00    -0.631 OA
BRANCH  24  26
HETATM   26  O   UNK N   1      31.539  16.278   5.928  0.00  0.00    -0.263 OA
BRANCH  26  27
HETATM   27  C   UNK N   1      30.622  17.231   6.407  0.00  0.00     0.297 C 
HETATM   28  C   UNK N   1      29.426  17.512   5.453  0.00  0.00     0.171 C 
HETATM   29  C   UNK N   1      28.479  18.519   6.138  0.00  0.00     0.177 C 
HETATM   30  C   UNK N   1      28.192  18.149   7.595  0.00  0.00     0.180 C 
HETATM   31  C   UNK N   1      29.547  17.885   8.263  0.00  0.00     0.179 C 
HETATM   32  O   UNK N   1      30.133  16.776   7.641  0.00  0.00    -0.348 OA
BRANCH  28  33
HETATM   33  N   UNK N   1      28.760  16.295   5.037  0.00  0.00    -0.349 N 
HETATM   34  C   UNK N   1      28.773  15.885   3.741  0.00  0.00     0.214 C 
HETATM   35  C   UNK N   1      28.119  14.604   3.363  0.00  0.00     0.117 C 
HETATM   36  O   UNK N   1      29.328  16.551   2.879  0.00  0.00    -0.274 OA
HETATM   37  H   UNK N   1      28.287  15.752   5.707  0.00  0.00     0.163 HD
ENDBRANCH  28  33
BRANCH  29  38
HETATM   38  O   UNK N   1      27.296  18.704   5.420  0.00  0.00    -0.391 OA
HETATM   39  H   UNK N   1      26.515  18.144   5.554  0.00  0.00     0.210 HD
ENDBRANCH  29  38
BRANCH  30  40
HETATM   40  O   UNK N   1      27.531  19.210   8.217  0.00  0.00    -0.390 OA
HETATM   41  H   UNK N   1      27.248  19.407   9.123  0.00  0.00     0.210 HD
ENDBRANCH  30  40
BRANCH  31  42
HETATM   42  C   UNK N   1      29.439  17.621   9.752  0.00  0.00     0.198 C 
BRANCH  42  43
HETATM   43  O   UNK N   1      29.758  18.781  10.457  0.00  0.00    -0.398 OA
HETATM   44  H   UNK N   1      29.808  19.741  10.325  0.00  0.00     0.209 HD
ENDBRANCH  42  43
ENDBRANCH  31  42
ENDBRANCH  26  27
ENDBRANCH  24  26
BRANCH  24  45
HETATM   45  O   UNK N   1      34.191  15.926   4.875  0.00  0.00    -0.307 OA
HETATM   46  H   UNK N   1      33.927  15.011   4.697  0.00  0.00     0.222 HD
ENDBRANCH  24  45
ENDBRANCH  23  24
ENDBRANCH   1  23
BRANCH   1  47
HETATM   47  O   UNK N   1      32.775  16.627   9.186  0.00  0.00    -0.307 OA
HETATM   48  H   UNK N   1      31.926  17.083   9.067  0.00  0.00     0.222 HD
ENDBRANCH   1  47
TORSDOF 17
ENDMDL
MODEL 8
REMARK VINA RESULT:      -7.5      5.800     12.672
REMARK  17 active torsions:
REMARK  status: ('A' for Active; 'I' for Inactive)
REMARK    1  A    between atoms: C_1  and  N_2 
REMARK    2  A    between atoms: C_4  and  O_9 
REMARK    3  A    between atoms: C_7  and  C_13 
REMARK    4  A    between atoms: C_8  and  O_14 
REMARK    5  A    between atoms: C_13  and  O_16 
REMARK    6  A    between atoms: O_16  and  P_18 
REMARK    7  A    between atoms: P_18  and  O_19 
REMARK    8  A    between atoms: P_18  and  O_20 
REMARK    9  A    between atoms: O_19  and  P_22 
REMARK   10  A    between atoms: P_22  and  O_23 
REMARK   11  A    between atoms: P_22  and  O_24 
REMARK   12  A    between atoms: C_26  and  O_23 
REMARK   13  A    between atoms: C_27  and  N_30 
REMARK   14  A    between atoms: C_29  and  O_33 
REMARK       I    between atoms: N_30  and  C_34 
REMARK   15  A    between atoms: C_31  and  C_35 
REMARK   16  A    between atoms: C_32  and  O_36 
REMARK   17  A    between atoms: C_35  and  O_39 
ROOT
HETATM    1  P   UNK N   1      34.508  17.445   8.216  0.00  0.00     0.401 P 
HETATM    2  O   UNK N   1      33.049  17.530   8.738  0.00  0.00    -0.631 OA
ENDROOT
BRANCH   1   3
HETATM    3  O   UNK N   1      34.393  17.691   6.494  0.00  0.00    -0.294 OA
BRANCH   3   4
HETATM    4  C   UNK N   1      33.059  17.444   6.183  0.00  0.00     0.215 C 
BRANCH   4   5
HETATM    5  C   UNK N   1      32.907  16.506   4.979  0.00  0.00     0.180 C 
HETATM    6  O   UNK N   1      31.627  16.706   4.430  0.00  0.00    -0.353 OA
HETATM    7  C   UNK N   1      30.746  15.940   5.239  0.00  0.00     0.263 C 
HETATM    8  C   UNK N   1      31.582  14.915   6.010  0.00  0.00     0.198 C 
HETATM    9  C   UNK N   1      32.913  15.042   5.348  0.00  0.00     0.182 C 
BRANCH   7  10
HETATM   10  N   UNK N   1      29.930  16.858   6.066  0.00  0.00    -0.280 N 
HETATM   11  C   UNK N   1      28.995  17.764   5.570  0.00  0.00     0.331 A 
HETATM   12  N   UNK N   1      28.262  18.533   6.436  0.00  0.00    -0.275 N 
HETATM   13  O   UNK N   1      28.794  17.876   4.375  0.00  0.00    -0.246 OA
HETATM   14  C   UNK N   1      28.434  18.433   7.786  0.00  0.00     0.250 A 
HETATM   15  H   UNK N   1      27.600  19.168   6.077  0.00  0.00     0.173 HD
HETATM   16  O   UNK N   1      27.770  19.122   8.539  0.00  0.00    -0.268 OA
HETATM   17  C   UNK N   1      29.365  17.541   8.299  0.00  0.00     0.092 A 
HETATM   18  C   UNK N   1      30.102  16.757   7.415  0.00  0.00     0.104 A 
ENDBRANCH   7  10
BRANCH   8  19
HETATM   19  O   UNK N   1      31.074  13.626   5.857  0.00  0.00    -0.388 OA
HETATM   20  H   UNK N   1      30.148  13.474   5.609  0.00  0.00     0.210 HD
ENDBRANCH   8  19
BRANCH   9  21
HETATM   21  O   UNK N   1      33.962  14.687   6.197  0.00  0.00    -0.390 OA
HETATM   22  H   UNK N   1      34.462  15.080   6.929  0.00  0.00     0.210 HD
ENDBRANCH   9  21
ENDBRANCH   4   5
ENDBRANCH   3   4
ENDBRANCH   1   3
BRANCH   1  23
HETATM   23  O   UNK N   1      35.066  15.856   8.664  0.00  0.00    -0.195 OA
BRANCH  23  24
HETATM   24  P   UNK N   1      34.900  15.648  10.399  0.00  0.00     0.404 P 
HETATM   25  O   UNK N   1      35.277  16.949  11.150  0.00  0.00    -0.631 OA
BRANCH  24  26
HETATM   26  O   UNK N   1      36.051  14.499  11.027  0.00  0.00    -0.263 OA
BRANCH  26  27
HETATM   27  C   UNK N   1      35.578  13.963  12.238  0.00  0.00     0.297 C 
HETATM   28  C   UNK N   1      35.008  12.520  12.126  0.00  0.00     0.171 C 
HETATM   29  C   UNK N   1      34.595  12.047  13.535  0.00  0.00     0.177 C 
HETATM   30  C   UNK N   1      35.668  12.337  14.585  0.00  0.00     0.180 C 
HETATM   31  C   UNK N   1      36.063  13.811  14.422  0.00  0.00     0.179 C 
HETATM   32  O   UNK N   1      36.640  13.972  13.156  0.00  0.00    -0.348 OA
BRANCH  28  33
HETATM   33  N   UNK N   1      35.929  11.616  11.469  0.00  0.00    -0.349 N 
HETATM   34  C   UNK N   1      35.670  11.113  10.233  0.00  0.00     0.214 C 
HETATM   35  C   UNK N   1      36.665  10.227   9.571  0.00  0.00     0.117 C 
HETATM   36  O   UNK N   1      34.632  11.388   9.649  0.00  0.00    -0.274 OA
HETATM   37  H   UNK N   1      36.762  11.361  11.926  0.00  0.00     0.163 HD
ENDBRANCH  28  33
BRANCH  29  38
HETATM   38  O   UNK N   1      34.222  10.701  13.552  0.00  0.00    -0.391 OA
HETATM   39  H   UNK N   1      33.487  10.373  14.095  0.00  0.00     0.210 HD
ENDBRANCH  29  38
BRANCH  30  40
HETATM   40  O   UNK N   1      35.142  12.104  15.858  0.00  0.00    -0.390 OA
HETATM   41  H   UNK N   1      34.446  12.508  16.398  0.00  0.00     0.210 HD
ENDBRANCH  30  40
BRANCH  31  42
HETATM   42  C   UNK N   1      37.041  14.289  15.478  0.00  0.00     0.198 C 
BRANCH  42  43
HETATM   43  O   UNK N   1      37.454  15.587  15.179  0.00  0.00    -0.398 OA
HETATM   44  H   UNK N   1      38.216  16.172  15.306  0.00  0.00     0.209 HD
ENDBRANCH  42  43
ENDBRANCH  31  42
ENDBRANCH  26  27
ENDBRANCH  24  26
BRANCH  24  45
HETATM   45  O   UNK N   1      33.279  15.250  10.873  0.00  0.00    -0.307 OA
HETATM   46  H   UNK N   1      32.960  14.338  10.799  0.00  0.00     0.222 HD
ENDBRANCH  24  45
ENDBRANCH  23  24
ENDBRANCH   1  23
BRANCH   1  47
HETATM   47  O   UNK N   1      35.368  18.694   9.062  0.00  0.00    -0.307 OA
HETATM   48  H   UNK N   1      34.899  19.455   9.440  0.00  0.00     0.222 HD
ENDBRANCH   1  47
TORSDOF 17
ENDMDL
MODEL 9
REMARK VINA RESULT:      -7.5      5.869     11.996
REMARK  17 active torsions:
REMARK  status: ('A' for Active; 'I' for Inactive)
REMARK    1  A    between atoms: C_1  and  N_2 
REMARK    2  A    between atoms: C_4  and  O_9 
REMARK    3  A    between atoms: C_7  and  C_13 
REMARK    4  A    between atoms: C_8  and  O_14 
REMARK    5  A    between atoms: C_13  and  O_16 
REMARK    6  A    between atoms: O_16  and  P_18 
REMARK    7  A    between atoms: P_18  and  O_19 
REMARK    8  A    between atoms: P_18  and  O_20 
REMARK    9  A    between atoms: O_19  and  P_22 
REMARK   10  A    between atoms: P_22  and  O_23 
REMARK   11  A    between atoms: P_22  and  O_24 
REMARK   12  A    between atoms: C_26  and  O_23 
REMARK   13  A    between atoms: C_27  and  N_30 
REMARK   14  A    between atoms: C_29  and  O_33 
REMARK       I    between atoms: N_30  and  C_34 
REMARK   15  A    between atoms: C_31  and  C_35 
REMARK   16  A    between atoms: C_32  and  O_36 
REMARK   17  A    between atoms: C_35  and  O_39 
ROOT
HETATM    1  P   UNK N   1      34.568  17.523   8.181  0.00  0.00     0.401 P 
HETATM    2  O   UNK N   1      33.099  17.626   8.670  0.00  0.00    -0.631 OA
ENDROOT
BRANCH   1   3
HETATM    3  O   UNK N   1      34.485  17.689   6.448  0.00  0.00    -0.294 OA
BRANCH   3   4
HETATM    4  C   UNK N   1      33.157  17.425   6.124  0.00  0.00     0.215 C 
BRANCH   4   5
HETATM    5  C   UNK N   1      33.028  16.401   4.989  0.00  0.00     0.180 C 
HETATM    6  O   UNK N   1      31.748  16.539   4.422  0.00  0.00    -0.353 OA
HETATM    7  C   UNK N   1      30.876  15.816   5.280  0.00  0.00     0.263 C 
HETATM    8  C   UNK N   1      31.727  14.863   6.124  0.00  0.00     0.198 C 
HETATM    9  C   UNK N   1      33.058  14.968   5.460  0.00  0.00     0.182 C 
BRANCH   7  10
HETATM   10  N   UNK N   1      30.040  16.776   6.036  0.00  0.00    -0.280 N 
HETATM   11  C   UNK N   1      29.133  17.667   5.468  0.00  0.00     0.331 A 
HETATM   12  N   UNK N   1      28.376  18.479   6.272  0.00  0.00    -0.275 N 
HETATM   13  O   UNK N   1      28.977  17.730   4.262  0.00  0.00    -0.246 OA
HETATM   14  C   UNK N   1      28.497  18.435   7.632  0.00  0.00     0.250 A 
HETATM   15  H   UNK N   1      27.735  19.104   5.863  0.00  0.00     0.173 HD
HETATM   16  O   UNK N   1      27.814  19.161   8.329  0.00  0.00    -0.268 OA
HETATM   17  C   UNK N   1      29.400  17.558   8.216  0.00  0.00     0.092 A 
HETATM   18  C   UNK N   1      30.161  16.731   7.394  0.00  0.00     0.104 A 
ENDBRANCH   7  10
BRANCH   8  19
HETATM   19  O   UNK N   1      31.243  13.558   6.061  0.00  0.00    -0.388 OA
HETATM   20  H   UNK N   1      30.602  13.289   5.384  0.00  0.00     0.210 HD
ENDBRANCH   8  19
BRANCH   9  21
HETATM   21  O   UNK N   1      34.110  14.693   6.336  0.00  0.00    -0.390 OA
HETATM   22  H   UNK N   1      34.680  15.178   6.952  0.00  0.00     0.210 HD
ENDBRANCH   9  21
ENDBRANCH   4   5
ENDBRANCH   3   4
ENDBRANCH   1   3
BRANCH   1  23
HETATM   23  O   UNK N   1      35.123  15.959   8.712  0.00  0.00    -0.195 OA
BRANCH  23  24
HETATM   24  P   UNK N   1      34.929  15.832  10.452  0.00  0.00     0.404 P 
HETATM   25  O   UNK N   1      35.190  17.195  11.138  0.00  0.00    -0.631 OA
BRANCH  24  26
HETATM   26  O   UNK N   1      36.143  14.805  11.167  0.00  0.00    -0.263 OA
BRANCH  26  27
HETATM   27  C   UNK N   1      35.923  13.470  10.788  0.00  0.00     0.297 C 
HETATM   28  C   UNK N   1      36.110  12.434  11.934  0.00  0.00     0.171 C 
HETATM   29  C   UNK N   1      35.771  11.032  11.386  0.00  0.00     0.177 C 
HETATM   30  C   UNK N   1      34.469  11.019  10.584  0.00  0.00     0.180 C 
HETATM   31  C   UNK N   1      34.557  12.170   9.574  0.00  0.00     0.179 C 
HETATM   32  O   UNK N   1      34.615  13.374  10.286  0.00  0.00    -0.348 OA
BRANCH  28  33
HETATM   33  N   UNK N   1      35.350  12.783  13.117  0.00  0.00    -0.349 N 
HETATM   34  C   UNK N   1      35.865  12.624  14.364  0.00  0.00     0.214 C 
HETATM   35  C   UNK N   1      35.071  13.040  15.551  0.00  0.00     0.117 C 
HETATM   36  O   UNK N   1      36.981  12.152  14.526  0.00  0.00    -0.274 OA
HETATM   37  H   UNK N   1      34.440  13.144  13.015  0.00  0.00     0.163 HD
ENDBRANCH  28  33
BRANCH  29  38
HETATM   38  O   UNK N   1      35.756  10.062  12.391  0.00  0.00    -0.391 OA
HETATM   39  H   UNK N   1      36.190  10.196  13.248  0.00  0.00     0.210 HD
ENDBRANCH  29  38
BRANCH  30  40
HETATM   40  O   UNK N   1      34.345   9.793   9.928  0.00  0.00    -0.390 OA
HETATM   41  H   UNK N   1      33.821   9.462   9.183  0.00  0.00     0.210 HD
ENDBRANCH  30  40
BRANCH  31  42
HETATM   42  C   UNK N   1      33.383  12.216   8.615  0.00  0.00     0.198 C 
BRANCH  42  43
HETATM   43  O   UNK N   1      32.454  13.157   9.058  0.00  0.00    -0.398 OA
HETATM   44  H   UNK N   1      31.755  13.733   8.711  0.00  0.00     0.209 HD
ENDBRANCH  42  43
ENDBRANCH  31  42
ENDBRANCH  26  27
ENDBRANCH  24  26
BRANCH  24  45
HETATM   45  O   UNK N   1      33.329  15.341  10.911  0.00  0.00    -0.307 OA
HETATM   46  H   UNK N   1      32.579  15.511  10.321  0.00  0.00     0.222 HD
ENDBRANCH  24  45
ENDBRANCH  23  24
ENDBRANCH   1  23
BRANCH   1  47
HETATM   47  O   UNK N   1      35.407  18.814   8.984  0.00  0.00    -0.307 OA
HETATM   48  H   UNK N   1      36.018  18.632   9.716  0.00  0.00     0.222 HD
ENDBRANCH   1  47
TORSDOF 17
ENDMDL
