MODEL 1
REMARK VINA RESULT:      -5.5      0.000      0.000
REMARK  2 active torsions:
REMARK  status: ('A' for Active; 'I' for Inactive)
REMARK    1  A    between atoms: C_8  and  C_9 
REMARK    2  A    between atoms: O_12  and  C_9 
ROOT
HETATM    1  C   UNK N   1      35.558  13.040  11.040  0.00  0.00     0.001 C 
HETATM    2  C   UNK N   1      36.319  14.018  11.955  0.00  0.00     0.002 C 
HETATM    3  C   UNK N   1      35.393  13.596   9.614  0.00  0.00     0.007 C 
HETATM    4  C   UNK N   1      35.696  15.421  11.942  0.00  0.00     0.025 C 
HETATM    5  C   UNK N   1      34.548  15.761   8.456  0.00  0.00     0.042 C 
HETATM    6  C   UNK N   1      34.721  14.958   9.713  0.00  0.00     0.010 C 
HETATM    7  C   UNK N   1      35.596  15.900  10.500  0.00  0.00     0.081 C 
HETATM    8  C   UNK N   1      34.265  17.142   9.067  0.00  0.00     0.176 C 
HETATM    9  N   UNK N   1      34.981  17.210  10.355  0.00  0.00    -0.404 N 
HETATM   10  H   UNK N   1      35.032  17.999  11.000  0.00  0.00     0.154 HD
ENDROOT
BRANCH   8  11
HETATM   11  C   UNK N   1      34.672  18.263   8.156  0.00  0.00     0.163 C 
HETATM   12  O   UNK N   1      34.367  18.223   6.969  0.00  0.00    -0.648 OA
BRANCH  11  13
HETATM   13  O   UNK N   1      35.347  19.325   8.631  0.00  0.00    -0.775 OA
HETATM   14  H   UNK N   1      36.275  19.381   8.515  0.00  0.00     0.167 HD
ENDBRANCH  11  13
ENDBRANCH   8  11
TORSDOF 2
ENDMDL
MODEL 2
REMARK VINA RESULT:      -5.3      4.554      5.735
REMARK  2 active torsions:
REMARK  status: ('A' for Active; 'I' for Inactive)
REMARK    1  A    between atoms: C_8  and  C_9 
REMARK    2  A    between atoms: O_12  and  C_9 
ROOT
HETATM    1  C   UNK N   1      33.858  16.976   6.270  0.00  0.00     0.001 C 
HETATM    2  C   UNK N   1      34.237  17.790   7.522  0.00  0.00     0.002 C 
HETATM    3  C   UNK N   1      32.419  17.268   5.809  0.00  0.00     0.007 C 
HETATM    4  C   UNK N   1      33.213  17.617   8.654  0.00  0.00     0.025 C 
HETATM    5  C   UNK N   1      30.028  17.337   6.821  0.00  0.00     0.042 C 
HETATM    6  C   UNK N   1      31.485  17.015   6.984  0.00  0.00     0.010 C 
HETATM    7  C   UNK N   1      31.828  17.950   8.115  0.00  0.00     0.081 C 
HETATM    8  C   UNK N   1      29.597  17.352   8.295  0.00  0.00     0.176 C 
HETATM    9  N   UNK N   1      30.762  17.784   9.091  0.00  0.00    -0.404 N 
HETATM   10  H   UNK N   1      30.809  17.932  10.100  0.00  0.00     0.154 HD
ENDROOT
BRANCH   8  11
HETATM   11  C   UNK N   1      28.412  18.240   8.535  0.00  0.00     0.163 C 
HETATM   12  O   UNK N   1      28.261  19.249   7.855  0.00  0.00    -0.648 OA
BRANCH  11  13
HETATM   13  O   UNK N   1      27.499  17.931   9.472  0.00  0.00    -0.775 OA
HETATM   14  H   UNK N   1      27.183  18.592  10.056  0.00  0.00     0.167 HD
ENDBRANCH  11  13
ENDBRANCH   8  11
TORSDOF 2
ENDMDL
MODEL 3
REMARK VINA RESULT:      -5.1      3.259      5.327
REMARK  2 active torsions:
REMARK  status: ('A' for Active; 'I' for Inactive)
REMARK    1  A    between atoms: C_8  and  C_9 
REMARK    2  A    between atoms: O_12  and  C_9 
ROOT
HETATM    1  C   UNK N   1      31.700  17.356   4.538  0.00  0.00     0.001 C 
HETATM    2  C   UNK N   1      30.608  16.720   5.418  0.00  0.00     0.002 C 
HETATM    3  C   UNK N   1      33.110  17.111   5.104  0.00  0.00     0.007 C 
HETATM    4  C   UNK N   1      30.730  17.148   6.888  0.00  0.00     0.025 C 
HETATM    5  C   UNK N   1      34.379  17.390   7.353  0.00  0.00     0.042 C 
HETATM    6  C   UNK N   1      33.138  17.617   6.540  0.00  0.00     0.010 C 
HETATM    7  C   UNK N   1      32.144  16.845   7.369  0.00  0.00     0.081 C 
HETATM    8  C   UNK N   1      33.817  17.639   8.761  0.00  0.00     0.176 C 
HETATM    9  N   UNK N   1      32.395  17.245   8.745  0.00  0.00    -0.404 N 
HETATM   10  H   UNK N   1      31.736  17.253   9.524  0.00  0.00     0.154 HD
ENDROOT
BRANCH   8  11
HETATM   11  C   UNK N   1      34.577  16.896   9.819  0.00  0.00     0.163 C 
HETATM   12  O   UNK N   1      35.626  17.361  10.254  0.00  0.00    -0.648 OA
BRANCH  11  13
HETATM   13  O   UNK N   1      34.112  15.736  10.315  0.00  0.00    -0.775 OA
HETATM   14  H   UNK N   1      34.434  14.921   9.983  0.00  0.00     0.167 HD
ENDBRANCH  11  13
ENDBRANCH   8  11
TORSDOF 2
ENDMDL
MODEL 4
REMARK VINA RESULT:      -5.0      4.109      6.001
REMARK  2 active torsions:
REMARK  status: ('A' for Active; 'I' for Inactive)
REMARK    1  A    between atoms: C_8  and  C_9 
REMARK    2  A    between atoms: O_12  and  C_9 
ROOT
HETATM    1  C   UNK N   1      28.540  18.226   9.059  0.00  0.00     0.001 C 
HETATM    2  C   UNK N   1      28.176  18.003   7.579  0.00  0.00     0.002 C 
HETATM    3  C   UNK N   1      30.013  18.638   9.233  0.00  0.00     0.007 C 
HETATM    4  C   UNK N   1      29.142  17.027   6.890  0.00  0.00     0.025 C 
HETATM    5  C   UNK N   1      32.363  17.812   8.499  0.00  0.00     0.042 C 
HETATM    6  C   UNK N   1      30.881  17.581   8.564  0.00  0.00     0.010 C 
HETATM    7  C   UNK N   1      30.567  17.525   7.091  0.00  0.00     0.081 C 
HETATM    8  C   UNK N   1      32.739  16.788   7.417  0.00  0.00     0.176 C 
HETATM    9  N   UNK N   1      31.581  16.657   6.512  0.00  0.00    -0.404 N 
HETATM   10  H   UNK N   1      31.508  16.086   5.670  0.00  0.00     0.154 HD
ENDROOT
BRANCH   8  11
HETATM   11  C   UNK N   1      33.977  17.180   6.666  0.00  0.00     0.163 C 
HETATM   12  O   UNK N   1      34.553  18.226   6.947  0.00  0.00    -0.648 OA
BRANCH  11  13
HETATM   13  O   UNK N   1      34.478  16.387   5.703  0.00  0.00    -0.775 OA
HETATM   14  H   UNK N   1      34.274  16.553   4.804  0.00  0.00     0.167 HD
ENDBRANCH  11  13
ENDBRANCH   8  11
TORSDOF 2
ENDMDL
MODEL 5
REMARK VINA RESULT:      -5.0      4.012      5.433
REMARK  2 active torsions:
REMARK  status: ('A' for Active; 'I' for Inactive)
REMARK    1  A    between atoms: C_8  and  C_9 
REMARK    2  A    between atoms: O_12  and  C_9 
ROOT
HETATM    1  C   UNK N   1      35.654  11.001  16.278  0.00  0.00     0.001 C 
HETATM    2  C   UNK N   1      34.378  10.433  15.629  0.00  0.00     0.002 C 
HETATM    3  C   UNK N   1      35.874  12.481  15.916  0.00  0.00     0.007 C 
HETATM    4  C   UNK N   1      34.347  10.675  14.113  0.00  0.00     0.025 C 
HETATM    5  C   UNK N   1      35.968  13.969  13.790  0.00  0.00     0.042 C 
HETATM    6  C   UNK N   1      35.880  12.600  14.398  0.00  0.00     0.010 C 
HETATM    7  C   UNK N   1      34.545  12.162  13.850  0.00  0.00     0.081 C 
HETATM    8  C   UNK N   1      35.512  13.649  12.359  0.00  0.00     0.176 C 
HETATM    9  N   UNK N   1      34.575  12.512  12.439  0.00  0.00    -0.404 N 
HETATM   10  H   UNK N   1      34.062  12.070  11.674  0.00  0.00     0.154 HD
ENDROOT
BRANCH   8  11
HETATM   11  C   UNK N   1      34.881  14.830  11.683  0.00  0.00     0.163 C 
HETATM   12  O   UNK N   1      35.557  15.825  11.443  0.00  0.00    -0.648 OA
BRANCH  11  13
HETATM   13  O   UNK N   1      33.588  14.803  11.314  0.00  0.00    -0.775 OA
HETATM   14  H   UNK N   1      32.948  14.415  11.876  0.00  0.00     0.167 HD
ENDBRANCH  11  13
ENDBRANCH   8  11
TORSDOF 2
ENDMDL
MODEL 6
REMARK VINA RESULT:      -4.9     12.858     13.747
REMARK  2 active torsions:
REMARK  status: ('A' for Active; 'I' for Inactive)
REMARK    1  A    between atoms: C_8  and  C_9 
REMARK    2  A    between atoms: O_12  and  C_9 
ROOT
HETATM    1  C   UNK N   1      20.681  14.486   7.325  0.00  0.00     0.001 C 
HETATM    2  C   UNK N   1      22.147  14.706   6.908  0.00  0.00     0.002 C 
HETATM    3  C   UNK N   1      20.540  14.272   8.842  0.00  0.00     0.007 C 
HETATM    4  C   UNK N   1      23.067  13.592   7.429  0.00  0.00     0.025 C 
HETATM    5  C   UNK N   1      21.574  12.781  10.700  0.00  0.00     0.042 C 
HETATM    6  C   UNK N   1      21.447  13.117   9.243  0.00  0.00     0.010 C 
HETATM    7  C   UNK N   1      22.881  13.469   8.936  0.00  0.00     0.081 C 
HETATM    8  C   UNK N   1      22.846  11.921  10.660  0.00  0.00     0.176 C 
HETATM    9  N   UNK N   1      23.676  12.413   9.543  0.00  0.00    -0.404 N 
HETATM   10  H   UNK N   1      24.600  12.084   9.260  0.00  0.00     0.154 HD
ENDROOT
BRANCH   8  11
HETATM   11  C   UNK N   1      23.600  11.956  11.957  0.00  0.00     0.163 C 
HETATM   12  O   UNK N   1      23.007  11.750  13.010  0.00  0.00    -0.648 OA
BRANCH  11  13
HETATM   13  O   UNK N   1      24.924  12.188  11.977  0.00  0.00    -0.775 OA
HETATM   14  H   UNK N   1      25.413  12.048  12.764  0.00  0.00     0.167 HD
ENDBRANCH  11  13
ENDBRANCH   8  11
TORSDOF 2
ENDMDL
MODEL 7
REMARK VINA RESULT:      -4.9      2.844      3.945
REMARK  2 active torsions:
REMARK  status: ('A' for Active; 'I' for Inactive)
REMARK    1  A    between atoms: C_8  and  C_9 
REMARK    2  A    between atoms: O_12  and  C_9 
ROOT
HETATM    1  C   UNK N   1      35.833  10.851  14.167  0.00  0.00     0.001 C 
HETATM    2  C   UNK N   1      37.022  11.554  14.847  0.00  0.00     0.002 C 
HETATM    3  C   UNK N   1      35.546  11.428  12.770  0.00  0.00     0.007 C 
HETATM    4  C   UNK N   1      36.853  13.081  14.868  0.00  0.00     0.025 C 
HETATM    5  C   UNK N   1      35.156  13.745  11.664  0.00  0.00     0.042 C 
HETATM    6  C   UNK N   1      35.342  12.930  12.911  0.00  0.00     0.010 C 
HETATM    7  C   UNK N   1      36.601  13.564  13.446  0.00  0.00     0.081 C 
HETATM    8  C   UNK N   1      35.428  15.148  12.228  0.00  0.00     0.176 C 
HETATM    9  N   UNK N   1      36.384  14.999  13.342  0.00  0.00    -0.404 N 
HETATM   10  H   UNK N   1      36.800  15.737  13.911  0.00  0.00     0.154 HD
ENDROOT
BRANCH   8  11
HETATM   11  C   UNK N   1      35.948  16.092  11.184  0.00  0.00     0.163 C 
HETATM   12  O   UNK N   1      35.247  17.023  10.802  0.00  0.00    -0.648 OA
BRANCH  11  13
HETATM   13  O   UNK N   1      37.185  15.944  10.677  0.00  0.00    -0.775 OA
HETATM   14  H   UNK N   1      37.745  15.265  10.998  0.00  0.00     0.167 HD
ENDBRANCH  11  13
ENDBRANCH   8  11
TORSDOF 2
ENDMDL
MODEL 8
REMARK VINA RESULT:      -4.8     13.505     14.012
REMARK  2 active torsions:
REMARK  status: ('A' for Active; 'I' for Inactive)
REMARK    1  A    between atoms: C_8  and  C_9 
REMARK    2  A    between atoms: O_12  and  C_9 
ROOT
HETATM    1  C   UNK N   1      23.695  11.770   9.984  0.00  0.00     0.001 C 
HETATM    2  C   UNK N   1      22.854  11.882  11.270  0.00  0.00     0.002 C 
HETATM    3  C   UNK N   1      23.625  13.054   9.138  0.00  0.00     0.007 C 
HETATM    4  C   UNK N   1      21.408  12.311  10.976  0.00  0.00     0.025 C 
HETATM    5  C   UNK N   1      21.818  14.630   8.141  0.00  0.00     0.042 C 
HETATM    6  C   UNK N   1      22.159  13.358   8.860  0.00  0.00     0.010 C 
HETATM    7  C   UNK N   1      21.436  13.597  10.161  0.00  0.00     0.081 C 
HETATM    8  C   UNK N   1      20.320  14.722   8.471  0.00  0.00     0.176 C 
HETATM    9  N   UNK N   1      20.118  14.084   9.785  0.00  0.00    -0.404 N 
HETATM   10  H   UNK N   1      19.247  14.003  10.312  0.00  0.00     0.154 HD
ENDROOT
BRANCH   8  11
HETATM   11  C   UNK N   1      19.820  16.136   8.466  0.00  0.00     0.163 C 
HETATM   12  O   UNK N   1      20.604  17.059   8.662  0.00  0.00    -0.648 OA
BRANCH  11  13
HETATM   13  O   UNK N   1      18.525  16.408   8.227  0.00  0.00    -0.775 OA
HETATM   14  H   UNK N   1      17.916  15.709   8.091  0.00  0.00     0.167 HD
ENDBRANCH  11  13
ENDBRANCH   8  11
TORSDOF 2
ENDMDL
MODEL 9
REMARK VINA RESULT:      -4.7     11.816     12.613
REMARK  2 active torsions:
REMARK  status: ('A' for Active; 'I' for Inactive)
REMARK    1  A    between atoms: C_8  and  C_9 
REMARK    2  A    between atoms: O_12  and  C_9 
ROOT
HETATM    1  C   UNK N   1      23.931  12.613   6.353  0.00  0.00     0.001 C 
HETATM    2  C   UNK N   1      24.567  13.924   6.852  0.00  0.00     0.002 C 
HETATM    3  C   UNK N   1      22.958  12.016   7.385  0.00  0.00     0.007 C 
HETATM    4  C   UNK N   1      25.212  13.759   8.237  0.00  0.00     0.025 C 
HETATM    5  C   UNK N   1      22.944  11.380   9.903  0.00  0.00     0.042 C 
HETATM    6  C   UNK N   1      23.709  11.845   8.699  0.00  0.00     0.010 C 
HETATM    7  C   UNK N   1      24.174  13.190   9.196  0.00  0.00     0.081 C 
HETATM    8  C   UNK N   1      23.937  11.768  11.009  0.00  0.00     0.176 C 
HETATM    9  N   UNK N   1      24.681  12.952  10.538  0.00  0.00    -0.404 N 
HETATM   10  H   UNK N   1      25.392  13.483  11.041  0.00  0.00     0.154 HD
ENDROOT
BRANCH   8  11
HETATM   11  C   UNK N   1      23.257  12.036  12.319  0.00  0.00     0.163 C 
HETATM   12  O   UNK N   1      22.045  11.872  12.420  0.00  0.00    -0.648 OA
BRANCH  11  13
HETATM   13  O   UNK N   1      23.962  12.432  13.393  0.00  0.00    -0.775 OA
HETATM   14  H   UNK N   1      24.882  12.262  13.439  0.00  0.00     0.167 HD
ENDBRANCH  11  13
ENDBRANCH   8  11
TORSDOF 2
ENDMDL
