MODEL 1
REMARK VINA RESULT:      -6.6      0.000      0.000
REMARK  10 active torsions:
REMARK  status: ('A' for Active; 'I' for Inactive)
REMARK    1  A    between atoms: C_7  and  C_4 
REMARK    2  A    between atoms: O_24  and  C_4 
REMARK    3  A    between atoms: C_6  and  N_15 
REMARK    4  A    between atoms: C_8  and  N_18 
REMARK    5  A    between atoms: O_19  and  C_9 
REMARK    6  A    between atoms: N_17  and  N_11 
REMARK    7  A    between atoms: N_17  and  N_15 
REMARK    8  A    between atoms: P_26  and  O_21 
REMARK    9  A    between atoms: P_26  and  O_22 
REMARK   10  A    between atoms: P_26  and  O_24 
ROOT
HETATM    1  C   UNK N   1      36.162  11.236  14.051  0.00  0.00     0.084 C 
HETATM    2  C   UNK N   1      36.664  12.401  13.267  0.00  0.00     0.149 C 
HETATM    3  C   UNK N   1      35.342  13.125  13.002  0.00  0.00     0.173 C 
HETATM    4  C   UNK N   1      34.995  11.855  14.827  0.00  0.00     0.234 C 
HETATM    5  O   UNK N   1      34.632  13.068  14.203  0.00  0.00    -0.356 OA
ENDROOT
BRANCH   4   6
HETATM    6  N   UNK N   1      35.228  12.082  16.269  0.00  0.00    -0.282 N 
HETATM    7  C   UNK N   1      35.324  13.381  16.677  0.00  0.00     0.109 A 
HETATM    8  C   UNK N   1      35.354  13.715  18.023  0.00  0.00     0.005 A 
HETATM    9  C   UNK N   1      35.452  15.146  18.426  0.00  0.00     0.054 C 
HETATM   10  C   UNK N   1      35.245  12.697  18.968  0.00  0.00     0.151 A 
HETATM   11  N   UNK N   1      35.173  11.406  18.559  0.00  0.00    -0.288 N 
HETATM   12  C   UNK N   1      35.165  11.080  17.228  0.00  0.00     0.330 A 
ATOM     13  HN  UNK N   1      35.123  10.663  19.257  1.00  0.00     0.172 HD
HETATM   14  O   UNK N   1      35.055   9.909  16.908  0.00  0.00    -0.246 OA
BRANCH  10  15
HETATM   15  O   UNK N   1      35.192  12.986  20.280  0.00  0.00    -0.346 OA
HETATM   16  H   UNK N   1      34.368  13.136  20.701  0.00  0.00     0.219 HD
ENDBRANCH  10  15
ENDBRANCH   4   6
BRANCH   2  17
HETATM   17  N   UNK N   1      37.409  11.955  12.104  0.00  0.00    -0.245 N 
ATOM     18  HN  UNK N   1      37.382  10.966  11.853  1.00  0.00     0.197 HD
BRANCH  17  19
HETATM   19  N   UNK N   1      38.064  12.718  11.415  0.00  0.00    -0.248 NA
BRANCH  19  20
HETATM   20  N   UNK N   1      38.714  13.462  10.704  0.00  0.00    -0.261 N 
HETATM   21  H   UNK N   1      39.685  13.342  10.591  0.00  0.00     0.193 HD
ATOM     22  HN  UNK N   1      38.244  14.224  10.214  1.00  0.00     0.193 HD
ENDBRANCH  19  20
ENDBRANCH  17  19
ENDBRANCH   2  17
BRANCH   3  23
HETATM   23  C   UNK N   1      35.470  14.594  12.620  0.00  0.00     0.214 C 
BRANCH  23  24
HETATM   24  O   UNK N   1      34.578  14.924  11.602  0.00  0.00    -0.294 OA
BRANCH  24  25
HETATM   25  P   UNK N   1      35.466  15.820  10.385  0.00  0.00     0.390 P 
HETATM   26  O   UNK N   1      35.009  17.307  10.347  0.00  0.00    -0.632 OA
BRANCH  25  27
HETATM   27  O   UNK N   1      37.125  15.848  10.870  0.00  0.00    -0.307 OA
HETATM   28  H   UNK N   1      37.444  16.387  11.611  0.00  0.00     0.222 HD
ENDBRANCH  25  27
BRANCH  25  29
HETATM   29  O   UNK N   1      35.361  15.164   8.776  0.00  0.00    -0.307 OA
HETATM   30  H   UNK N   1      35.146  14.686   7.961  0.00  0.00     0.222 HD
ENDBRANCH  25  29
ENDBRANCH  24  25
ENDBRANCH  23  24
ENDBRANCH   3  23
TORSDOF 10
ENDMDL
MODEL 2
REMARK VINA RESULT:      -6.2      8.714     11.031
REMARK  10 active torsions:
REMARK  status: ('A' for Active; 'I' for Inactive)
REMARK    1  A    between atoms: C_7  and  C_4 
REMARK    2  A    between atoms: O_24  and  C_4 
REMARK    3  A    between atoms: C_6  and  N_15 
REMARK    4  A    between atoms: C_8  and  N_18 
REMARK    5  A    between atoms: O_19  and  C_9 
REMARK    6  A    between atoms: N_17  and  N_11 
REMARK    7  A    between atoms: N_17  and  N_15 
REMARK    8  A    between atoms: P_26  and  O_21 
REMARK    9  A    between atoms: P_26  and  O_22 
REMARK   10  A    between atoms: P_26  and  O_24 
ROOT
HETATM    1  C   UNK N   1      31.996  17.921   8.604  0.00  0.00     0.084 C 
HETATM    2  C   UNK N   1      33.057  17.624   7.600  0.00  0.00     0.149 C 
HETATM    3  C   UNK N   1      32.767  16.143   7.345  0.00  0.00     0.173 C 
HETATM    4  C   UNK N   1      30.849  17.023   8.130  0.00  0.00     0.234 C 
HETATM    5  O   UNK N   1      31.376  16.038   7.265  0.00  0.00    -0.356 OA
ENDROOT
BRANCH   4   6
HETATM    6  N   UNK N   1      29.717  17.713   7.475  0.00  0.00    -0.282 N 
HETATM    7  C   UNK N   1      29.542  17.474   6.142  0.00  0.00     0.109 A 
HETATM    8  C   UNK N   1      28.411  17.915   5.472  0.00  0.00     0.005 A 
HETATM    9  C   UNK N   1      28.254  17.627   4.019  0.00  0.00     0.054 C 
HETATM   10  C   UNK N   1      27.424  18.583   6.193  0.00  0.00     0.151 A 
HETATM   11  N   UNK N   1      27.612  18.839   7.511  0.00  0.00    -0.288 N 
HETATM   12  C   UNK N   1      28.741  18.419   8.165  0.00  0.00     0.330 A 
ATOM     13  HN  UNK N   1      26.898  19.355   8.027  1.00  0.00     0.172 HD
HETATM   14  O   UNK N   1      28.847  18.634   9.359  0.00  0.00    -0.246 OA
BRANCH  10  15
HETATM   15  O   UNK N   1      26.279  18.959   5.597  0.00  0.00    -0.346 OA
HETATM   16  H   UNK N   1      26.032  18.594   4.769  0.00  0.00     0.219 HD
ENDBRANCH  10  15
ENDBRANCH   4   6
BRANCH   2  17
HETATM   17  N   UNK N   1      34.370  17.950   8.127  0.00  0.00    -0.245 N 
ATOM     18  HN  UNK N   1      35.020  18.471   7.538  1.00  0.00     0.197 HD
BRANCH  17  19
HETATM   19  N   UNK N   1      34.723  17.625   9.247  0.00  0.00    -0.248 NA
BRANCH  19  20
HETATM   20  N   UNK N   1      35.060  17.275  10.364  0.00  0.00    -0.261 N 
HETATM   21  H   UNK N   1      35.847  17.667  10.807  0.00  0.00     0.193 HD
ATOM     22  HN  UNK N   1      34.514  16.563  10.850  1.00  0.00     0.193 HD
ENDBRANCH  19  20
ENDBRANCH  17  19
ENDBRANCH   2  17
BRANCH   3  23
HETATM   23  C   UNK N   1      33.338  15.581   6.050  0.00  0.00     0.214 C 
BRANCH  23  24
HETATM   24  O   UNK N   1      33.686  16.605   5.172  0.00  0.00    -0.294 OA
BRANCH  24  25
HETATM   25  P   UNK N   1      32.590  16.534   3.806  0.00  0.00     0.390 P 
HETATM   26  O   UNK N   1      33.334  16.067   2.522  0.00  0.00    -0.632 OA
BRANCH  25  27
HETATM   27  O   UNK N   1      31.420  15.307   4.145  0.00  0.00    -0.307 OA
HETATM   28  H   UNK N   1      30.990  14.787   3.448  0.00  0.00     0.222 HD
ENDBRANCH  25  27
BRANCH  25  29
HETATM   29  O   UNK N   1      31.760  18.023   3.460  0.00  0.00    -0.307 OA
HETATM   30  H   UNK N   1      31.159  18.783   3.407  0.00  0.00     0.222 HD
ENDBRANCH  25  29
ENDBRANCH  24  25
ENDBRANCH  23  24
ENDBRANCH   3  23
TORSDOF 10
ENDMDL
MODEL 3
REMARK VINA RESULT:      -6.2      8.165     10.720
REMARK  10 active torsions:
REMARK  status: ('A' for Active; 'I' for Inactive)
REMARK    1  A    between atoms: C_7  and  C_4 
REMARK    2  A    between atoms: O_24  and  C_4 
REMARK    3  A    between atoms: C_6  and  N_15 
REMARK    4  A    between atoms: C_8  and  N_18 
REMARK    5  A    between atoms: O_19  and  C_9 
REMARK    6  A    between atoms: N_17  and  N_11 
REMARK    7  A    between atoms: N_17  and  N_15 
REMARK    8  A    between atoms: P_26  and  O_21 
REMARK    9  A    between atoms: P_26  and  O_22 
REMARK   10  A    between atoms: P_26  and  O_24 
ROOT
HETATM    1  C   UNK N   1      31.932  17.908   8.687  0.00  0.00     0.084 C 
HETATM    2  C   UNK N   1      32.986  17.778   7.641  0.00  0.00     0.149 C 
HETATM    3  C   UNK N   1      32.672  16.370   7.128  0.00  0.00     0.173 C 
HETATM    4  C   UNK N   1      30.770  17.125   8.066  0.00  0.00     0.234 C 
HETATM    5  O   UNK N   1      31.280  16.302   7.038  0.00  0.00    -0.356 OA
ENDROOT
BRANCH   4   6
HETATM    6  N   UNK N   1      29.648  17.938   7.550  0.00  0.00    -0.282 N 
HETATM    7  C   UNK N   1      29.397  17.855   6.211  0.00  0.00     0.109 A 
HETATM    8  C   UNK N   1      28.261  18.422   5.653  0.00  0.00     0.005 A 
HETATM    9  C   UNK N   1      28.020  18.303   4.188  0.00  0.00     0.054 C 
HETATM   10  C   UNK N   1      27.347  19.054   6.493  0.00  0.00     0.151 A 
HETATM   11  N   UNK N   1      27.610  19.154   7.819  0.00  0.00    -0.288 N 
HETATM   12  C   UNK N   1      28.745  18.610   8.363  0.00  0.00     0.330 A 
ATOM     13  HN  UNK N   1      26.951  19.644   8.424  1.00  0.00     0.172 HD
HETATM   14  O   UNK N   1      28.919  18.688   9.566  0.00  0.00    -0.246 OA
BRANCH  10  15
HETATM   15  O   UNK N   1      26.197  19.549   6.002  0.00  0.00    -0.346 OA
HETATM   16  H   UNK N   1      25.741  19.100   5.316  0.00  0.00     0.219 HD
ENDBRANCH  10  15
ENDBRANCH   4   6
BRANCH   2  17
HETATM   17  N   UNK N   1      34.305  17.985   8.211  0.00  0.00    -0.245 N 
ATOM     18  HN  UNK N   1      34.998  18.504   7.671  1.00  0.00     0.197 HD
BRANCH  17  19
HETATM   19  N   UNK N   1      34.615  17.563   9.312  0.00  0.00    -0.248 NA
BRANCH  19  20
HETATM   20  N   UNK N   1      34.938  17.118  10.398  0.00  0.00    -0.261 N 
HETATM   21  H   UNK N   1      35.112  17.712  11.163  0.00  0.00     0.193 HD
ATOM     22  HN  UNK N   1      35.029  16.108  10.517  1.00  0.00     0.193 HD
ENDBRANCH  19  20
ENDBRANCH  17  19
ENDBRANCH   2  17
BRANCH   3  23
HETATM   23  C   UNK N   1      33.232  16.039   5.751  0.00  0.00     0.214 C 
BRANCH  23  24
HETATM   24  O   UNK N   1      34.597  16.308   5.690  0.00  0.00    -0.294 OA
BRANCH  24  25
HETATM   25  P   UNK N   1      35.443  14.938   6.384  0.00  0.00     0.390 P 
HETATM   26  O   UNK N   1      34.765  13.600   5.970  0.00  0.00    -0.632 OA
BRANCH  25  27
HETATM   27  O   UNK N   1      37.025  14.899   5.687  0.00  0.00    -0.307 OA
HETATM   28  H   UNK N   1      37.174  14.835   4.731  0.00  0.00     0.222 HD
ENDBRANCH  25  27
BRANCH  25  29
HETATM   29  O   UNK N   1      35.591  14.975   8.117  0.00  0.00    -0.307 OA
HETATM   30  H   UNK N   1      35.692  14.789   9.063  0.00  0.00     0.222 HD
ENDBRANCH  25  29
ENDBRANCH  24  25
ENDBRANCH  23  24
ENDBRANCH   3  23
TORSDOF 10
ENDMDL
MODEL 4
REMARK VINA RESULT:      -6.1      7.535     10.351
REMARK  10 active torsions:
REMARK  status: ('A' for Active; 'I' for Inactive)
REMARK    1  A    between atoms: C_7  and  C_4 
REMARK    2  A    between atoms: O_24  and  C_4 
REMARK    3  A    between atoms: C_6  and  N_15 
REMARK    4  A    between atoms: C_8  and  N_18 
REMARK    5  A    between atoms: O_19  and  C_9 
REMARK    6  A    between atoms: N_17  and  N_11 
REMARK    7  A    between atoms: N_17  and  N_15 
REMARK    8  A    between atoms: P_26  and  O_21 
REMARK    9  A    between atoms: P_26  and  O_22 
REMARK   10  A    between atoms: P_26  and  O_24 
ROOT
HETATM    1  C   UNK N   1      31.038  14.770   5.989  0.00  0.00     0.084 C 
HETATM    2  C   UNK N   1      32.093  14.718   7.042  0.00  0.00     0.149 C 
HETATM    3  C   UNK N   1      33.058  15.774   6.495  0.00  0.00     0.173 C 
HETATM    4  C   UNK N   1      31.047  16.252   5.602  0.00  0.00     0.234 C 
HETATM    5  O   UNK N   1      32.255  16.828   6.055  0.00  0.00    -0.356 OA
ENDROOT
BRANCH   4   6
HETATM    6  N   UNK N   1      29.899  17.051   6.081  0.00  0.00    -0.282 N 
HETATM    7  C   UNK N   1      29.864  17.336   7.416  0.00  0.00     0.109 A 
HETATM    8  C   UNK N   1      28.942  18.229   7.940  0.00  0.00     0.005 A 
HETATM    9  C   UNK N   1      28.942  18.517   9.401  0.00  0.00     0.054 C 
HETATM   10  C   UNK N   1      28.063  18.871   7.070  0.00  0.00     0.151 A 
HETATM   11  N   UNK N   1      28.086  18.569   5.748  0.00  0.00    -0.288 N 
HETATM   12  C   UNK N   1      28.985  17.670   5.238  0.00  0.00     0.330 A 
ATOM     13  HN  UNK N   1      27.420  19.021   5.121  1.00  0.00     0.172 HD
HETATM   14  O   UNK N   1      28.996  17.462   4.038  0.00  0.00    -0.246 OA
BRANCH  10  15
HETATM   15  O   UNK N   1      27.207  19.800   7.528  0.00  0.00    -0.346 OA
HETATM   16  H   UNK N   1      26.935  20.509   6.977  0.00  0.00     0.219 HD
ENDBRANCH  10  15
ENDBRANCH   4   6
BRANCH   2  17
HETATM   17  N   UNK N   1      32.612  13.370   7.183  0.00  0.00    -0.245 N 
ATOM     18  HN  UNK N   1      32.928  12.876   6.348  1.00  0.00     0.197 HD
BRANCH  17  19
HETATM   19  N   UNK N   1      32.687  12.809   8.262  0.00  0.00    -0.248 NA
BRANCH  19  20
HETATM   20  N   UNK N   1      32.784  12.264   9.346  0.00  0.00    -0.261 N 
HETATM   21  H   UNK N   1      32.837  11.284   9.424  0.00  0.00     0.193 HD
ATOM     22  HN  UNK N   1      32.812  12.836  10.192  1.00  0.00     0.193 HD
ENDBRANCH  19  20
ENDBRANCH  17  19
ENDBRANCH   2  17
BRANCH   3  23
HETATM   23  C   UNK N   1      34.040  16.345   7.509  0.00  0.00     0.214 C 
BRANCH  23  24
HETATM   24  O   UNK N   1      33.403  16.630   8.715  0.00  0.00    -0.294 OA
BRANCH  24  25
HETATM   25  P   UNK N   1      34.303  15.840   9.995  0.00  0.00     0.390 P 
HETATM   26  O   UNK N   1      35.435  14.948   9.408  0.00  0.00    -0.632 OA
BRANCH  25  27
HETATM   27  O   UNK N   1      35.101  17.075  10.905  0.00  0.00    -0.307 OA
HETATM   28  H   UNK N   1      35.075  18.011  10.650  0.00  0.00     0.222 HD
ENDBRANCH  25  27
BRANCH  25  29
HETATM   29  O   UNK N   1      33.338  14.878  11.076  0.00  0.00    -0.307 OA
HETATM   30  H   UNK N   1      32.640  14.432  11.581  0.00  0.00     0.222 HD
ENDBRANCH  25  29
ENDBRANCH  24  25
ENDBRANCH  23  24
ENDBRANCH   3  23
TORSDOF 10
ENDMDL
MODEL 5
REMARK VINA RESULT:      -6.0      3.470      5.308
REMARK  10 active torsions:
REMARK  status: ('A' for Active; 'I' for Inactive)
REMARK    1  A    between atoms: C_7  and  C_4 
REMARK    2  A    between atoms: O_24  and  C_4 
REMARK    3  A    between atoms: C_6  and  N_15 
REMARK    4  A    between atoms: C_8  and  N_18 
REMARK    5  A    between atoms: O_19  and  C_9 
REMARK    6  A    between atoms: N_17  and  N_11 
REMARK    7  A    between atoms: N_17  and  N_15 
REMARK    8  A    between atoms: P_26  and  O_21 
REMARK    9  A    between atoms: P_26  and  O_22 
REMARK   10  A    between atoms: P_26  and  O_24 
ROOT
HETATM    1  C   UNK N   1      35.016  16.088  11.219  0.00  0.00     0.084 C 
HETATM    2  C   UNK N   1      34.305  15.685   9.972  0.00  0.00     0.149 C 
HETATM    3  C   UNK N   1      35.452  14.990   9.233  0.00  0.00     0.173 C 
HETATM    4  C   UNK N   1      35.996  14.927  11.416  0.00  0.00     0.234 C 
HETATM    5  O   UNK N   1      36.116  14.226  10.195  0.00  0.00    -0.356 OA
ENDROOT
BRANCH   4   6
HETATM    6  N   UNK N   1      35.669  13.984  12.507  0.00  0.00    -0.282 N 
HETATM    7  C   UNK N   1      35.043  12.825  12.148  0.00  0.00     0.109 A 
HETATM    8  C   UNK N   1      34.860  11.793  13.056  0.00  0.00     0.005 A 
HETATM    9  C   UNK N   1      34.179  10.541  12.622  0.00  0.00     0.054 C 
HETATM   10  C   UNK N   1      35.362  11.939  14.347  0.00  0.00     0.151 A 
HETATM   11  N   UNK N   1      35.962  13.101  14.706  0.00  0.00    -0.288 N 
HETATM   12  C   UNK N   1      36.123  14.127  13.812  0.00  0.00     0.330 A 
ATOM     13  HN  UNK N   1      36.302  13.213  15.662  1.00  0.00     0.172 HD
HETATM   14  O   UNK N   1      36.707  15.135  14.167  0.00  0.00    -0.246 OA
BRANCH  10  15
HETATM   15  O   UNK N   1      35.272  10.933  15.233  0.00  0.00    -0.346 OA
HETATM   16  H   UNK N   1      35.237  11.110  16.153  0.00  0.00     0.219 HD
ENDBRANCH  10  15
ENDBRANCH   4   6
BRANCH   2  17
HETATM   17  N   UNK N   1      33.715  16.839   9.320  0.00  0.00    -0.245 N 
ATOM     18  HN  UNK N   1      32.709  16.843   9.145  1.00  0.00     0.197 HD
BRANCH  17  19
HETATM   19  N   UNK N   1      34.374  17.804   8.976  0.00  0.00    -0.248 NA
BRANCH  19  20
HETATM   20  N   UNK N   1      35.043  18.753   8.608  0.00  0.00    -0.261 N 
HETATM   21  H   UNK N   1      35.716  19.164   9.198  0.00  0.00     0.193 HD
ATOM     22  HN  UNK N   1      34.903  19.130   7.670  1.00  0.00     0.193 HD
ENDBRANCH  19  20
ENDBRANCH  17  19
ENDBRANCH   2  17
BRANCH   3  23
HETATM   23  C   UNK N   1      35.029  14.044   8.117  0.00  0.00     0.214 C 
BRANCH  23  24
HETATM   24  O   UNK N   1      33.998  14.595   7.359  0.00  0.00    -0.294 OA
BRANCH  24  25
HETATM   25  P   UNK N   1      34.720  15.393   5.975  0.00  0.00     0.390 P 
HETATM   26  O   UNK N   1      33.953  15.038   4.668  0.00  0.00    -0.632 OA
BRANCH  25  27
HETATM   27  O   UNK N   1      34.515  17.095   6.195  0.00  0.00    -0.307 OA
HETATM   28  H   UNK N   1      33.732  17.477   6.622  0.00  0.00     0.222 HD
ENDBRANCH  25  27
BRANCH  25  29
HETATM   29  O   UNK N   1      36.410  15.055   5.739  0.00  0.00    -0.307 OA
HETATM   30  H   UNK N   1      37.319  14.716   5.750  0.00  0.00     0.222 HD
ENDBRANCH  25  29
ENDBRANCH  24  25
ENDBRANCH  23  24
ENDBRANCH   3  23
TORSDOF 10
ENDMDL
MODEL 6
REMARK VINA RESULT:      -6.0     20.576     23.798
REMARK  10 active torsions:
REMARK  status: ('A' for Active; 'I' for Inactive)
REMARK    1  A    between atoms: C_7  and  C_4 
REMARK    2  A    between atoms: O_24  and  C_4 
REMARK    3  A    between atoms: C_6  and  N_15 
REMARK    4  A    between atoms: C_8  and  N_18 
REMARK    5  A    between atoms: O_19  and  C_9 
REMARK    6  A    between atoms: N_17  and  N_11 
REMARK    7  A    between atoms: N_17  and  N_15 
REMARK    8  A    between atoms: P_26  and  O_21 
REMARK    9  A    between atoms: P_26  and  O_22 
REMARK   10  A    between atoms: P_26  and  O_24 
ROOT
HETATM    1  C   UNK N   1      28.814  25.691  -4.757  0.00  0.00     0.084 C 
HETATM    2  C   UNK N   1      29.821  24.772  -4.151  0.00  0.00     0.149 C 
HETATM    3  C   UNK N   1      28.966  24.141  -3.049  0.00  0.00     0.173 C 
HETATM    4  C   UNK N   1      27.518  24.889  -4.602  0.00  0.00     0.234 C 
HETATM    5  O   UNK N   1      27.725  23.880  -3.635  0.00  0.00    -0.356 OA
ENDROOT
BRANCH   4   6
HETATM    6  N   UNK N   1      26.976  24.293  -5.842  0.00  0.00    -0.282 N 
HETATM    7  C   UNK N   1      27.633  23.203  -6.336  0.00  0.00     0.109 A 
HETATM    8  C   UNK N   1      27.108  22.455  -7.379  0.00  0.00     0.005 A 
HETATM    9  C   UNK N   1      27.853  21.268  -7.883  0.00  0.00     0.054 C 
HETATM   10  C   UNK N   1      25.867  22.812  -7.900  0.00  0.00     0.151 A 
HETATM   11  N   UNK N   1      25.228  23.908  -7.423  0.00  0.00    -0.288 N 
HETATM   12  C   UNK N   1      25.761  24.657  -6.406  0.00  0.00     0.330 A 
ATOM     13  HN  UNK N   1      24.332  24.182  -7.829  1.00  0.00     0.172 HD
HETATM   14  O   UNK N   1      25.130  25.609  -5.980  0.00  0.00    -0.246 OA
BRANCH  10  15
HETATM   15  O   UNK N   1      25.289  22.067  -8.858  0.00  0.00    -0.346 OA
HETATM   16  H   UNK N   1      24.354  22.010  -8.917  0.00  0.00     0.219 HD
ENDBRANCH  10  15
ENDBRANCH   4   6
BRANCH   2  17
HETATM   17  N   UNK N   1      30.996  25.508  -3.723  0.00  0.00    -0.245 N 
ATOM     18  HN  UNK N   1      30.977  25.982  -2.820  1.00  0.00     0.197 HD
BRANCH  17  19
HETATM   19  N   UNK N   1      32.006  25.579  -4.402  0.00  0.00    -0.248 NA
BRANCH  19  20
HETATM   20  N   UNK N   1      32.998  25.644  -5.105  0.00  0.00    -0.261 N 
HETATM   21  H   UNK N   1      33.550  26.459  -5.136  0.00  0.00     0.193 HD
ATOM     22  HN  UNK N   1      33.263  24.838  -5.672  1.00  0.00     0.193 HD
ENDBRANCH  19  20
ENDBRANCH  17  19
ENDBRANCH   2  17
BRANCH   3  23
HETATM   23  C   UNK N   1      29.489  22.822  -2.494  0.00  0.00     0.214 C 
BRANCH  23  24
HETATM   24  O   UNK N   1      30.800  22.957  -2.042  0.00  0.00    -0.294 OA
BRANCH  24  25
HETATM   25  P   UNK N   1      31.796  21.838  -2.953  0.00  0.00     0.390 P 
HETATM   26  O   UNK N   1      30.918  20.790  -3.695  0.00  0.00    -0.632 OA
BRANCH  25  27
HETATM   27  O   UNK N   1      32.595  22.745  -4.190  0.00  0.00    -0.307 OA
HETATM   28  H   UNK N   1      32.272  23.607  -4.497  0.00  0.00     0.222 HD
ENDBRANCH  25  27
BRANCH  25  29
HETATM   29  O   UNK N   1      32.993  20.996  -2.011  0.00  0.00    -0.307 OA
HETATM   30  H   UNK N   1      33.508  20.517  -1.344  0.00  0.00     0.222 HD
ENDBRANCH  25  29
ENDBRANCH  24  25
ENDBRANCH  23  24
ENDBRANCH   3  23
TORSDOF 10
ENDMDL
MODEL 7
REMARK VINA RESULT:      -5.9      7.408     10.534
REMARK  10 active torsions:
REMARK  status: ('A' for Active; 'I' for Inactive)
REMARK    1  A    between atoms: C_7  and  C_4 
REMARK    2  A    between atoms: O_24  and  C_4 
REMARK    3  A    between atoms: C_6  and  N_15 
REMARK    4  A    between atoms: C_8  and  N_18 
REMARK    5  A    between atoms: O_19  and  C_9 
REMARK    6  A    between atoms: N_17  and  N_11 
REMARK    7  A    between atoms: N_17  and  N_15 
REMARK    8  A    between atoms: P_26  and  O_21 
REMARK    9  A    between atoms: P_26  and  O_22 
REMARK   10  A    between atoms: P_26  and  O_24 
ROOT
HETATM    1  C   UNK N   1      31.884  18.295   8.663  0.00  0.00     0.084 C 
HETATM    2  C   UNK N   1      32.979  17.458   8.095  0.00  0.00     0.149 C 
HETATM    3  C   UNK N   1      32.514  16.074   8.556  0.00  0.00     0.173 C 
HETATM    4  C   UNK N   1      30.672  17.368   8.528  0.00  0.00     0.234 C 
HETATM    5  O   UNK N   1      31.135  16.046   8.340  0.00  0.00    -0.356 OA
ENDROOT
BRANCH   4   6
HETATM    6  N   UNK N   1      29.706  17.719   7.466  0.00  0.00    -0.282 N 
HETATM    7  C   UNK N   1      29.975  17.248   6.213  0.00  0.00     0.109 A 
HETATM    8  C   UNK N   1      29.048  17.355   5.187  0.00  0.00     0.005 A 
HETATM    9  C   UNK N   1      29.379  16.822   3.836  0.00  0.00     0.054 C 
HETATM   10  C   UNK N   1      27.807  17.923   5.463  0.00  0.00     0.151 A 
HETATM   11  N   UNK N   1      27.551  18.410   6.703  0.00  0.00    -0.288 N 
HETATM   12  C   UNK N   1      28.478  18.321   7.708  0.00  0.00     0.330 A 
ATOM     13  HN  UNK N   1      26.651  18.852   6.890  1.00  0.00     0.172 HD
HETATM   14  O   UNK N   1      28.188  18.733   8.817  0.00  0.00    -0.246 OA
BRANCH  10  15
HETATM   15  O   UNK N   1      26.854  17.976   4.516  0.00  0.00    -0.346 OA
HETATM   16  H   UNK N   1      26.572  18.801   4.170  0.00  0.00     0.219 HD
ENDBRANCH  10  15
ENDBRANCH   4   6
BRANCH   2  17
HETATM   17  N   UNK N   1      34.273  17.905   8.577  0.00  0.00    -0.245 N 
ATOM     18  HN  UNK N   1      34.817  18.547   8.000  1.00  0.00     0.197 HD
BRANCH  17  19
HETATM   19  N   UNK N   1      34.732  17.545   9.647  0.00  0.00    -0.248 NA
BRANCH  19  20
HETATM   20  N   UNK N   1      35.163  17.176  10.724  0.00  0.00    -0.261 N 
HETATM   21  H   UNK N   1      34.846  17.577  11.566  0.00  0.00     0.193 HD
ATOM     22  HN  UNK N   1      35.866  16.437  10.755  1.00  0.00     0.193 HD
ENDBRANCH  19  20
ENDBRANCH  17  19
ENDBRANCH   2  17
BRANCH   3  23
HETATM   23  C   UNK N   1      33.115  14.898   7.797  0.00  0.00     0.214 C 
BRANCH  23  24
HETATM   24  O   UNK N   1      33.010  13.722   8.536  0.00  0.00    -0.294 OA
BRANCH  24  25
HETATM   25  P   UNK N   1      34.284  13.733   9.741  0.00  0.00     0.390 P 
HETATM   26  O   UNK N   1      34.830  12.296   9.984  0.00  0.00    -0.632 OA
BRANCH  25  27
HETATM   27  O   UNK N   1      35.606  14.636   9.088  0.00  0.00    -0.307 OA
HETATM   28  H   UNK N   1      35.798  14.668   8.138  0.00  0.00     0.222 HD
ENDBRANCH  25  27
BRANCH  25  29
HETATM   29  O   UNK N   1      33.832  14.424  11.272  0.00  0.00    -0.307 OA
HETATM   30  H   UNK N   1      33.785  14.847  12.143  0.00  0.00     0.222 HD
ENDBRANCH  25  29
ENDBRANCH  24  25
ENDBRANCH  23  24
ENDBRANCH   3  23
TORSDOF 10
ENDMDL
MODEL 8
REMARK VINA RESULT:      -5.8     20.357     23.479
REMARK  10 active torsions:
REMARK  status: ('A' for Active; 'I' for Inactive)
REMARK    1  A    between atoms: C_7  and  C_4 
REMARK    2  A    between atoms: O_24  and  C_4 
REMARK    3  A    between atoms: C_6  and  N_15 
REMARK    4  A    between atoms: C_8  and  N_18 
REMARK    5  A    between atoms: O_19  and  C_9 
REMARK    6  A    between atoms: N_17  and  N_11 
REMARK    7  A    between atoms: N_17  and  N_15 
REMARK    8  A    between atoms: P_26  and  O_21 
REMARK    9  A    between atoms: P_26  and  O_22 
REMARK   10  A    between atoms: P_26  and  O_24 
ROOT
HETATM    1  C   UNK N   1      28.216  24.413  -3.299  0.00  0.00     0.084 C 
HETATM    2  C   UNK N   1      27.280  24.544  -4.452  0.00  0.00     0.149 C 
HETATM    3  C   UNK N   1      28.196  25.258  -5.450  0.00  0.00     0.173 C 
HETATM    4  C   UNK N   1      29.561  24.205  -4.002  0.00  0.00     0.234 C 
HETATM    5  O   UNK N   1      29.437  24.625  -5.345  0.00  0.00    -0.356 OA
ENDROOT
BRANCH   4   6
HETATM    6  N   UNK N   1      30.110  22.833  -3.953  0.00  0.00    -0.282 N 
HETATM    7  C   UNK N   1      30.062  22.113  -5.112  0.00  0.00     0.109 A 
HETATM    8  C   UNK N   1      30.713  20.893  -5.230  0.00  0.00     0.005 A 
HETATM    9  C   UNK N   1      30.641  20.142  -6.515  0.00  0.00     0.054 C 
HETATM   10  C   UNK N   1      31.457  20.424  -4.151  0.00  0.00     0.151 A 
HETATM   11  N   UNK N   1      31.483  21.131  -2.995  0.00  0.00    -0.288 N 
HETATM   12  C   UNK N   1      30.822  22.326  -2.875  0.00  0.00     0.330 A 
ATOM     13  HN  UNK N   1      32.007  20.767  -2.198  1.00  0.00     0.172 HD
HETATM   14  O   UNK N   1      30.909  22.947  -1.830  0.00  0.00    -0.246 OA
BRANCH  10  15
HETATM   15  O   UNK N   1      32.164  19.285  -4.253  0.00  0.00    -0.346 OA
HETATM   16  H   UNK N   1      31.737  18.453  -4.187  0.00  0.00     0.219 HD
ENDBRANCH  10  15
ENDBRANCH   4   6
BRANCH   2  17
HETATM   17  N   UNK N   1      26.073  25.245  -4.058  0.00  0.00    -0.245 N 
ATOM     18  HN  UNK N   1      25.169  24.856  -4.326  1.00  0.00     0.197 HD
BRANCH  17  19
HETATM   19  N   UNK N   1      26.099  26.282  -3.417  0.00  0.00    -0.248 NA
BRANCH  19  20
HETATM   20  N   UNK N   1      26.105  27.329  -2.796  0.00  0.00    -0.261 N 
HETATM   21  H   UNK N   1      25.798  27.372  -1.862  0.00  0.00     0.193 HD
ATOM     22  HN  UNK N   1      26.435  28.180  -3.254  1.00  0.00     0.193 HD
ENDBRANCH  19  20
ENDBRANCH  17  19
ENDBRANCH   2  17
BRANCH   3  23
HETATM   23  C   UNK N   1      27.765  25.169  -6.908  0.00  0.00     0.214 C 
BRANCH  23  24
HETATM   24  O   UNK N   1      26.376  25.154  -7.017  0.00  0.00    -0.294 OA
BRANCH  24  25
HETATM   25  P   UNK N   1      25.917  23.646  -7.785  0.00  0.00     0.390 P 
HETATM   26  O   UNK N   1      27.174  22.824  -8.190  0.00  0.00    -0.632 OA
BRANCH  25  27
HETATM   27  O   UNK N   1      25.091  22.693  -6.602  0.00  0.00    -0.307 OA
HETATM   28  H   UNK N   1      24.954  21.738  -6.703  0.00  0.00     0.222 HD
ENDBRANCH  25  27
BRANCH  25  29
HETATM   29  O   UNK N   1      24.892  23.822  -9.181  0.00  0.00    -0.307 OA
HETATM   30  H   UNK N   1      24.308  23.712  -9.947  0.00  0.00     0.222 HD
ENDBRANCH  25  29
ENDBRANCH  24  25
ENDBRANCH  23  24
ENDBRANCH   3  23
TORSDOF 10
ENDMDL
MODEL 9
REMARK VINA RESULT:      -5.8      6.218      9.310
REMARK  10 active torsions:
REMARK  status: ('A' for Active; 'I' for Inactive)
REMARK    1  A    between atoms: C_7  and  C_4 
REMARK    2  A    between atoms: O_24  and  C_4 
REMARK    3  A    between atoms: C_6  and  N_15 
REMARK    4  A    between atoms: C_8  and  N_18 
REMARK    5  A    between atoms: O_19  and  C_9 
REMARK    6  A    between atoms: N_17  and  N_11 
REMARK    7  A    between atoms: N_17  and  N_15 
REMARK    8  A    between atoms: P_26  and  O_21 
REMARK    9  A    between atoms: P_26  and  O_22 
REMARK   10  A    between atoms: P_26  and  O_24 
ROOT
HETATM    1  C   UNK N   1      32.350  14.338   7.077  0.00  0.00     0.084 C 
HETATM    2  C   UNK N   1      32.967  14.096   8.412  0.00  0.00     0.149 C 
HETATM    3  C   UNK N   1      33.962  15.260   8.454  0.00  0.00     0.173 C 
HETATM    4  C   UNK N   1      32.358  15.868   6.995  0.00  0.00     0.234 C 
HETATM    5  O   UNK N   1      33.272  16.365   7.951  0.00  0.00    -0.356 OA
ENDROOT
BRANCH   4   6
HETATM    6  N   UNK N   1      31.047  16.530   7.161  0.00  0.00    -0.282 N 
HETATM    7  C   UNK N   1      30.822  17.153   8.355  0.00  0.00     0.109 A 
HETATM    8  C   UNK N   1      29.711  17.961   8.550  0.00  0.00     0.005 A 
HETATM    9  C   UNK N   1      29.506  18.628   9.866  0.00  0.00     0.054 C 
HETATM   10  C   UNK N   1      28.835  18.162   7.486  0.00  0.00     0.151 A 
HETATM   11  N   UNK N   1      29.050  17.524   6.309  0.00  0.00    -0.288 N 
HETATM   12  C   UNK N   1      30.138  16.710   6.127  0.00  0.00     0.330 A 
ATOM     13  HN  UNK N   1      28.388  17.652   5.542  1.00  0.00     0.172 HD
HETATM   14  O   UNK N   1      30.313  16.192   5.039  0.00  0.00    -0.246 OA
BRANCH  10  15
HETATM   15  O   UNK N   1      27.790  18.998   7.611  0.00  0.00    -0.346 OA
HETATM   16  H   UNK N   1      27.036  18.746   8.109  0.00  0.00     0.219 HD
ENDBRANCH  10  15
ENDBRANCH   4   6
BRANCH   2  17
HETATM   17  N   UNK N   1      33.526  12.759   8.486  0.00  0.00    -0.245 N 
ATOM     18  HN  UNK N   1      34.426  12.577   8.042  1.00  0.00     0.197 HD
BRANCH  17  19
HETATM   19  N   UNK N   1      32.959  11.844   9.059  0.00  0.00    -0.248 NA
BRANCH  19  20
HETATM   20  N   UNK N   1      32.380  10.923   9.606  0.00  0.00    -0.261 N 
HETATM   21  H   UNK N   1      32.661   9.989   9.468  0.00  0.00     0.193 HD
ATOM     22  HN  UNK N   1      31.589  11.123  10.219  1.00  0.00     0.193 HD
ENDBRANCH  19  20
ENDBRANCH  17  19
ENDBRANCH   2  17
BRANCH   3  23
HETATM   23  C   UNK N   1      34.468  15.634   9.840  0.00  0.00     0.214 C 
BRANCH  23  24
HETATM   24  O   UNK N   1      33.890  14.827  10.817  0.00  0.00    -0.294 OA
BRANCH  24  25
HETATM   25  P   UNK N   1      35.184  13.998  11.660  0.00  0.00     0.390 P 
HETATM   26  O   UNK N   1      34.772  13.669  13.124  0.00  0.00    -0.632 OA
BRANCH  25  27
HETATM   27  O   UNK N   1      35.415  12.472  10.881  0.00  0.00    -0.307 OA
HETATM   28  H   UNK N   1      35.925  12.375  10.061  0.00  0.00     0.222 HD
ENDBRANCH  25  27
BRANCH  25  29
HETATM   29  O   UNK N   1      36.700  14.851  11.686  0.00  0.00    -0.307 OA
HETATM   30  H   UNK N   1      37.451  15.444  11.846  0.00  0.00     0.222 HD
ENDBRANCH  25  29
ENDBRANCH  24  25
ENDBRANCH  23  24
ENDBRANCH   3  23
TORSDOF 10
ENDMDL
