MODEL 1
REMARK VINA RESULT:      -7.9      0.000      0.000
REMARK  5 active torsions:
REMARK  status: ('A' for Active; 'I' for Inactive)
REMARK    1  A    between atoms: C_5  and  C_9 
REMARK    2  A    between atoms: C_6  and  O_7 
REMARK    3  A    between atoms: C_10  and  O_11 
REMARK    4  A    between atoms: C_13  and  O_14 
REMARK    5  A    between atoms: C_18  and  C_22 
ROOT
HETATM    1  C   UNK N   1      30.217  21.513  -5.931  0.00  0.00     0.017 A 
HETATM    2  C   UNK N   1      31.274  20.604  -5.731  0.00  0.00     0.077 A 
HETATM    3  C   UNK N   1      31.890  20.520  -4.478  0.00  0.00     0.074 A 
HETATM    4  C   UNK N   1      31.469  21.325  -3.414  0.00  0.00     0.085 A 
HETATM    5  C   UNK N   1      30.415  22.247  -3.603  0.00  0.00     0.082 A 
HETATM    6  C   UNK N   1      29.803  22.333  -4.871  0.00  0.00     0.102 A 
HETATM    7  O   UNK N   1      28.823  23.203  -5.084  0.00  0.00    -0.308 OA
HETATM    8  C   UNK N   1      28.355  24.033  -4.161  0.00  0.00     0.091 A 
HETATM    9  C   UNK N   1      28.901  23.994  -2.874  0.00  0.00     0.094 A 
HETATM   10  C   UNK N   1      29.932  23.098  -2.587  0.00  0.00     0.190 A 
HETATM   11  O   UNK N   1      30.402  23.071  -1.462  0.00  0.00    -0.287 OA
ENDROOT
BRANCH   1  12
HETATM   12  C   UNK N   1      29.473  21.671  -7.236  0.00  0.00     0.056 C 
HETATM   13  C   UNK N   1      28.618  20.479  -7.633  0.00  0.00     0.042 C 
HETATM   14  C   UNK N   1      27.475  21.009  -8.487  0.00  0.00     0.272 C 
HETATM   15  N   UNK N   1      27.992  21.703  -9.668  0.00  0.00     0.086 N 
HETATM   16  C   UNK N   1      26.833  22.221 -10.373  0.00  0.00     0.310 C 
HETATM   17  C   UNK N   1      28.804  22.863  -9.275  0.00  0.00     0.304 C 
HETATM   18  C   UNK N   1      30.015  22.454  -8.426  0.00  0.00     0.155 C 
BRANCH  18  19
HETATM   19  O   UNK N   1      30.872  21.656  -9.188  0.00  0.00    -0.393 OA
HETATM   20  H   UNK N   1      31.141  21.671 -10.120  0.00  0.00     0.210 HD
ENDBRANCH  18  19
ENDBRANCH   1  12
BRANCH   2  21
HETATM   21  O   UNK N   1      31.706  19.812  -6.726  0.00  0.00    -0.360 OA
HETATM   22  H   UNK N   1      31.109  19.526  -7.389  0.00  0.00     0.217 HD
ENDBRANCH   2  21
BRANCH   4  23
HETATM   23  O   UNK N   1      32.088  21.207  -2.225  0.00  0.00    -0.360 OA
HETATM   24  H   UNK N   1      32.939  21.577  -2.100  0.00  0.00     0.217 HD
ENDBRANCH   4  23
BRANCH   8  25
HETATM   25  C   UNK N   1      27.286  24.988  -4.574  0.00  0.00     0.020 A 
HETATM   26  C   UNK N   1      27.389  26.302  -4.079  0.00  0.00     0.016 A 
HETATM   27  C   UNK N   1      26.435  27.271  -4.384  0.00  0.00     0.001 A 
HETATM   28  C   UNK N   1      25.350  26.944  -5.191  0.00  0.00     0.002 A 
HETATM   29  C   UNK N   1      25.223  25.651  -5.696  0.00  0.00     0.025 A 
HETATM   30  C   UNK N   1      26.175  24.666  -5.401  0.00  0.00     0.047 A 
HETATM   31 Cl   UNK N   1      25.898  23.070  -6.085  0.00  0.00    -0.083 Cl
ENDBRANCH   8  25
TORSDOF 5
ENDMDL
MODEL 2
REMARK VINA RESULT:      -7.6     12.309     14.327
REMARK  5 active torsions:
REMARK  status: ('A' for Active; 'I' for Inactive)
REMARK    1  A    between atoms: C_5  and  C_9 
REMARK    2  A    between atoms: C_6  and  O_7 
REMARK    3  A    between atoms: C_10  and  O_11 
REMARK    4  A    between atoms: C_13  and  O_14 
REMARK    5  A    between atoms: C_18  and  C_22 
ROOT
HETATM    1  C   UNK N   1      20.686  17.896   3.266  0.00  0.00     0.017 A 
HETATM    2  C   UNK N   1      19.707  18.793   2.799  0.00  0.00     0.077 A 
HETATM    3  C   UNK N   1      20.056  20.120   2.525  0.00  0.00     0.074 A 
HETATM    4  C   UNK N   1      21.368  20.572   2.705  0.00  0.00     0.085 A 
HETATM    5  C   UNK N   1      22.358  19.684   3.181  0.00  0.00     0.082 A 
HETATM    6  C   UNK N   1      21.999  18.348   3.463  0.00  0.00     0.102 A 
HETATM    7  O   UNK N   1      22.904  17.496   3.929  0.00  0.00    -0.308 OA
HETATM    8  C   UNK N   1      24.171  17.813   4.162  0.00  0.00     0.091 A 
HETATM    9  C   UNK N   1      24.606  19.115   3.890  0.00  0.00     0.094 A 
HETATM   10  C   UNK N   1      23.702  20.056   3.395  0.00  0.00     0.190 A 
HETATM   11  O   UNK N   1      24.090  21.188   3.161  0.00  0.00    -0.287 OA
ENDROOT
BRANCH   1  12
HETATM   12  C   UNK N   1      20.422  16.441   3.574  0.00  0.00     0.056 C 
HETATM   13  C   UNK N   1      20.226  15.554   2.355  0.00  0.00     0.042 C 
HETATM   14  C   UNK N   1      20.663  14.150   2.746  0.00  0.00     0.272 C 
HETATM   15  N   UNK N   1      19.879  13.662   3.882  0.00  0.00     0.086 N 
HETATM   16  C   UNK N   1      20.415  12.354   4.212  0.00  0.00     0.310 C 
HETATM   17  C   UNK N   1      20.087  14.515   5.061  0.00  0.00     0.304 C 
HETATM   18  C   UNK N   1      19.655  15.965   4.801  0.00  0.00     0.155 C 
BRANCH  18  19
HETATM   19  O   UNK N   1      18.278  16.007   4.565  0.00  0.00    -0.393 OA
HETATM   20  H   UNK N   1      17.636  16.731   4.504  0.00  0.00     0.210 HD
ENDBRANCH  18  19
ENDBRANCH   1  12
BRANCH   2  21
HETATM   21  O   UNK N   1      18.438  18.399   2.609  0.00  0.00    -0.360 OA
HETATM   22  H   UNK N   1      18.222  17.487   2.632  0.00  0.00     0.217 HD
ENDBRANCH   2  21
BRANCH   4  23
HETATM   23  O   UNK N   1      21.658  21.855   2.425  0.00  0.00    -0.360 OA
HETATM   24  H   UNK N   1      22.399  22.063   1.891  0.00  0.00     0.217 HD
ENDBRANCH   4  23
BRANCH   8  25
HETATM   25  C   UNK N   1      25.050  16.754   4.738  0.00  0.00     0.020 A 
HETATM   26  C   UNK N   1      26.345  16.646   4.195  0.00  0.00     0.016 A 
HETATM   27  C   UNK N   1      27.242  15.679   4.643  0.00  0.00     0.001 A 
HETATM   28  C   UNK N   1      26.861  14.792   5.645  0.00  0.00     0.002 A 
HETATM   29  C   UNK N   1      25.585  14.876   6.200  0.00  0.00     0.025 A 
HETATM   30  C   UNK N   1      24.672  15.844   5.764  0.00  0.00     0.047 A 
HETATM   31 Cl   UNK N   1      23.090  15.842   6.531  0.00  0.00    -0.083 Cl
ENDBRANCH   8  25
TORSDOF 5
ENDMDL
MODEL 3
REMARK VINA RESULT:      -7.6     12.442     14.430
REMARK  5 active torsions:
REMARK  status: ('A' for Active; 'I' for Inactive)
REMARK    1  A    between atoms: C_5  and  C_9 
REMARK    2  A    between atoms: C_6  and  O_7 
REMARK    3  A    between atoms: C_10  and  O_11 
REMARK    4  A    between atoms: C_13  and  O_14 
REMARK    5  A    between atoms: C_18  and  C_22 
ROOT
HETATM    1  C   UNK N   1      20.629  17.763   3.304  0.00  0.00     0.017 A 
HETATM    2  C   UNK N   1      19.731  18.743   2.837  0.00  0.00     0.077 A 
HETATM    3  C   UNK N   1      20.181  20.051   2.625  0.00  0.00     0.074 A 
HETATM    4  C   UNK N   1      21.513  20.402   2.866  0.00  0.00     0.085 A 
HETATM    5  C   UNK N   1      22.422  19.431   3.342  0.00  0.00     0.082 A 
HETATM    6  C   UNK N   1      21.962  18.115   3.562  0.00  0.00     0.102 A 
HETATM    7  O   UNK N   1      22.788  17.186   4.027  0.00  0.00    -0.308 OA
HETATM    8  C   UNK N   1      24.065  17.405   4.314  0.00  0.00     0.091 A 
HETATM    9  C   UNK N   1      24.598  18.682   4.105  0.00  0.00     0.094 A 
HETATM   10  C   UNK N   1      23.780  19.700   3.615  0.00  0.00     0.190 A 
HETATM   11  O   UNK N   1      24.253  20.810   3.436  0.00  0.00    -0.287 OA
ENDROOT
BRANCH   1  12
HETATM   12  C   UNK N   1      20.253  16.321   3.549  0.00  0.00     0.056 C 
HETATM   13  C   UNK N   1      19.913  15.527   2.298  0.00  0.00     0.042 C 
HETATM   14  C   UNK N   1      20.244  14.070   2.586  0.00  0.00     0.272 C 
HETATM   15  N   UNK N   1      19.483  13.586   3.739  0.00  0.00     0.086 N 
HETATM   16  C   UNK N   1      19.918  12.219   3.966  0.00  0.00     0.310 C 
HETATM   17  C   UNK N   1      19.831  14.347   4.948  0.00  0.00     0.304 C 
HETATM   18  C   UNK N   1      19.515  15.841   4.793  0.00  0.00     0.155 C 
BRANCH  18  19
HETATM   19  O   UNK N   1      18.137  16.014   4.641  0.00  0.00    -0.393 OA
HETATM   20  H   UNK N   1      17.429  16.276   5.251  0.00  0.00     0.210 HD
ENDBRANCH  18  19
ENDBRANCH   1  12
BRANCH   2  21
HETATM   21  O   UNK N   1      18.446  18.445   2.591  0.00  0.00    -0.360 OA
HETATM   22  H   UNK N   1      18.102  18.534   1.724  0.00  0.00     0.217 HD
ENDBRANCH   2  21
BRANCH   4  23
HETATM   23  O   UNK N   1      21.901  21.671   2.643  0.00  0.00    -0.360 OA
HETATM   24  H   UNK N   1      21.287  22.300   2.320  0.00  0.00     0.217 HD
ENDBRANCH   4  23
BRANCH   8  25
HETATM   25  C   UNK N   1      24.847  16.268   4.879  0.00  0.00     0.020 A 
HETATM   26  C   UNK N   1      24.469  15.818   6.159  0.00  0.00     0.016 A 
HETATM   27  C   UNK N   1      25.144  14.776   6.792  0.00  0.00     0.001 A 
HETATM   28  C   UNK N   1      26.219  14.161   6.157  0.00  0.00     0.002 A 
HETATM   29  C   UNK N   1      26.615  14.587   4.890  0.00  0.00     0.025 A 
HETATM   30  C   UNK N   1      25.946  15.630   4.239  0.00  0.00     0.047 A 
HETATM   31 Cl   UNK N   1      26.546  16.086   2.650  0.00  0.00    -0.083 Cl
ENDBRANCH   8  25
TORSDOF 5
ENDMDL
MODEL 4
REMARK VINA RESULT:      -7.5     11.736     13.915
REMARK  5 active torsions:
REMARK  status: ('A' for Active; 'I' for Inactive)
REMARK    1  A    between atoms: C_5  and  C_9 
REMARK    2  A    between atoms: C_6  and  O_7 
REMARK    3  A    between atoms: C_10  and  O_11 
REMARK    4  A    between atoms: C_13  and  O_14 
REMARK    5  A    between atoms: C_18  and  C_22 
ROOT
HETATM    1  C   UNK N   1      21.443  17.037   4.078  0.00  0.00     0.017 A 
HETATM    2  C   UNK N   1      20.074  16.916   3.771  0.00  0.00     0.077 A 
HETATM    3  C   UNK N   1      19.424  17.944   3.080  0.00  0.00     0.074 A 
HETATM    4  C   UNK N   1      20.115  19.094   2.683  0.00  0.00     0.085 A 
HETATM    5  C   UNK N   1      21.487  19.231   2.992  0.00  0.00     0.082 A 
HETATM    6  C   UNK N   1      22.136  18.194   3.696  0.00  0.00     0.102 A 
HETATM    7  O   UNK N   1      23.420  18.304   4.016  0.00  0.00    -0.308 OA
HETATM    8  C   UNK N   1      24.173  19.354   3.716  0.00  0.00     0.091 A 
HETATM    9  C   UNK N   1      23.603  20.415   3.003  0.00  0.00     0.094 A 
HETATM   10  C   UNK N   1      22.258  20.358   2.635  0.00  0.00     0.190 A 
HETATM   11  O   UNK N   1      21.771  21.287   2.013  0.00  0.00    -0.287 OA
ENDROOT
BRANCH   1  12
HETATM   12  C   UNK N   1      22.243  15.980   4.802  0.00  0.00     0.056 C 
HETATM   13  C   UNK N   1      22.671  14.801   3.944  0.00  0.00     0.042 C 
HETATM   14  C   UNK N   1      23.954  14.248   4.547  0.00  0.00     0.272 C 
HETATM   15  N   UNK N   1      23.737  13.837   5.936  0.00  0.00     0.086 N 
HETATM   16  C   UNK N   1      25.026  13.390   6.432  0.00  0.00     0.310 C 
HETATM   17  C   UNK N   1      23.340  14.986   6.761  0.00  0.00     0.304 C 
HETATM   18  C   UNK N   1      22.032  15.621   6.268  0.00  0.00     0.155 C 
BRANCH  18  19
HETATM   19  O   UNK N   1      20.988  14.702   6.401  0.00  0.00    -0.393 OA
HETATM   20  H   UNK N   1      20.606  14.236   7.162  0.00  0.00     0.210 HD
ENDBRANCH  18  19
ENDBRANCH   1  12
BRANCH   2  21
HETATM   21  O   UNK N   1      19.375  15.827   4.131  0.00  0.00    -0.360 OA
HETATM   22  H   UNK N   1      18.442  15.872   4.203  0.00  0.00     0.217 HD
ENDBRANCH   2  21
BRANCH   4  23
HETATM   23  O   UNK N   1      19.451  20.055   2.017  0.00  0.00    -0.360 OA
HETATM   24  H   UNK N   1      19.039  19.860   1.198  0.00  0.00     0.217 HD
ENDBRANCH   4  23
BRANCH   8  25
HETATM   25  C   UNK N   1      25.585  19.347   4.194  0.00  0.00     0.020 A 
HETATM   26  C   UNK N   1      26.011  20.477   4.918  0.00  0.00     0.016 A 
HETATM   27  C   UNK N   1      27.316  20.586   5.395  0.00  0.00     0.001 A 
HETATM   28  C   UNK N   1      28.228  19.564   5.153  0.00  0.00     0.002 A 
HETATM   29  C   UNK N   1      27.834  18.433   4.439  0.00  0.00     0.025 A 
HETATM   30  C   UNK N   1      26.526  18.307   3.955  0.00  0.00     0.047 A 
HETATM   31 Cl   UNK N   1      26.152  16.842   3.057  0.00  0.00    -0.083 Cl
ENDBRANCH   8  25
TORSDOF 5
ENDMDL
MODEL 5
REMARK VINA RESULT:      -7.4     11.607     13.795
REMARK  5 active torsions:
REMARK  status: ('A' for Active; 'I' for Inactive)
REMARK    1  A    between atoms: C_5  and  C_9 
REMARK    2  A    between atoms: C_6  and  O_7 
REMARK    3  A    between atoms: C_10  and  O_11 
REMARK    4  A    between atoms: C_13  and  O_14 
REMARK    5  A    between atoms: C_18  and  C_22 
ROOT
HETATM    1  C   UNK N   1      21.505  17.387   3.766  0.00  0.00     0.017 A 
HETATM    2  C   UNK N   1      20.203  17.887   3.575  0.00  0.00     0.077 A 
HETATM    3  C   UNK N   1      20.019  19.233   3.238  0.00  0.00     0.074 A 
HETATM    4  C   UNK N   1      21.112  20.092   3.083  0.00  0.00     0.085 A 
HETATM    5  C   UNK N   1      22.423  19.605   3.280  0.00  0.00     0.082 A 
HETATM    6  C   UNK N   1      22.603  18.250   3.627  0.00  0.00     0.102 A 
HETATM    7  O   UNK N   1      23.822  17.768   3.837  0.00  0.00    -0.308 OA
HETATM    8  C   UNK N   1      24.931  18.490   3.743  0.00  0.00     0.091 A 
HETATM    9  C   UNK N   1      24.834  19.840   3.386  0.00  0.00     0.094 A 
HETATM   10  C   UNK N   1      23.579  20.403   3.149  0.00  0.00     0.190 A 
HETATM   11  O   UNK N   1      23.504  21.580   2.838  0.00  0.00    -0.287 OA
ENDROOT
BRANCH   1  12
HETATM   12  C   UNK N   1      21.817  15.951   4.113  0.00  0.00     0.056 C 
HETATM   13  C   UNK N   1      21.792  14.988   2.937  0.00  0.00     0.042 C 
HETATM   14  C   UNK N   1      22.746  13.849   3.267  0.00  0.00     0.272 C 
HETATM   15  N   UNK N   1      22.340  13.179   4.504  0.00  0.00     0.086 N 
HETATM   16  C   UNK N   1      23.343  12.161   4.760  0.00  0.00     0.310 C 
HETATM   17  C   UNK N   1      22.383  14.112   5.639  0.00  0.00     0.304 C 
HETATM   18  C   UNK N   1      21.434  15.302   5.437  0.00  0.00     0.155 C 
BRANCH  18  19
HETATM   19  O   UNK N   1      20.115  14.845   5.396  0.00  0.00    -0.393 OA
HETATM   20  H   UNK N   1      19.703  14.030   5.066  0.00  0.00     0.210 HD
ENDBRANCH  18  19
ENDBRANCH   1  12
BRANCH   2  21
HETATM   21  O   UNK N   1      19.128  17.095   3.710  0.00  0.00    -0.360 OA
HETATM   22  H   UNK N   1      18.548  16.963   2.986  0.00  0.00     0.217 HD
ENDBRANCH   2  21
BRANCH   4  23
HETATM   23  O   UNK N   1      20.887  21.378   2.754  0.00  0.00    -0.360 OA
HETATM   24  H   UNK N   1      21.284  21.742   1.988  0.00  0.00     0.217 HD
ENDBRANCH   4  23
BRANCH   8  25
HETATM   25  C   UNK N   1      26.221  17.813   4.063  0.00  0.00     0.020 A 
HETATM   26  C   UNK N   1      26.998  18.389   5.086  0.00  0.00     0.016 A 
HETATM   27  C   UNK N   1      28.231  17.852   5.453  0.00  0.00     0.001 A 
HETATM   28  C   UNK N   1      28.717  16.724   4.798  0.00  0.00     0.002 A 
HETATM   29  C   UNK N   1      27.968  16.134   3.780  0.00  0.00     0.025 A 
HETATM   30  C   UNK N   1      26.726  16.660   3.402  0.00  0.00     0.047 A 
HETATM   31 Cl   UNK N   1      25.883  15.835   2.097  0.00  0.00    -0.083 Cl
ENDBRANCH   8  25
TORSDOF 5
ENDMDL
MODEL 6
REMARK VINA RESULT:      -7.3     12.438     15.393
REMARK  5 active torsions:
REMARK  status: ('A' for Active; 'I' for Inactive)
REMARK    1  A    between atoms: C_5  and  C_9 
REMARK    2  A    between atoms: C_6  and  O_7 
REMARK    3  A    between atoms: C_10  and  O_11 
REMARK    4  A    between atoms: C_13  and  O_14 
REMARK    5  A    between atoms: C_18  and  C_22 
ROOT
HETATM    1  C   UNK N   1      30.513  17.509   8.039  0.00  0.00     0.017 A 
HETATM    2  C   UNK N   1      29.673  18.289   8.856  0.00  0.00     0.077 A 
HETATM    3  C   UNK N   1      28.477  18.797   8.337  0.00  0.00     0.074 A 
HETATM    4  C   UNK N   1      28.099  18.539   7.014  0.00  0.00     0.085 A 
HETATM    5  C   UNK N   1      28.938  17.765   6.182  0.00  0.00     0.082 A 
HETATM    6  C   UNK N   1      30.146  17.261   6.708  0.00  0.00     0.102 A 
HETATM    7  O   UNK N   1      30.963  16.546   5.944  0.00  0.00    -0.308 OA
HETATM    8  C   UNK N   1      30.725  16.256   4.671  0.00  0.00     0.091 A 
HETATM    9  C   UNK N   1      29.538  16.708   4.084  0.00  0.00     0.094 A 
HETATM   10  C   UNK N   1      28.637  17.461   4.837  0.00  0.00     0.190 A 
HETATM   11  O   UNK N   1      27.604  17.849   4.317  0.00  0.00    -0.287 OA
ENDROOT
BRANCH   1  12
HETATM   12  C   UNK N   1      31.814  16.898   8.504  0.00  0.00     0.056 C 
HETATM   13  C   UNK N   1      33.066  17.581   7.978  0.00  0.00     0.042 C 
HETATM   14  C   UNK N   1      34.167  17.354   9.003  0.00  0.00     0.272 C 
HETATM   15  N   UNK N   1      34.396  15.923   9.208  0.00  0.00     0.086 N 
HETATM   16  C   UNK N   1      35.409  15.819  10.242  0.00  0.00     0.310 C 
HETATM   17  C   UNK N   1      33.186  15.274   9.733  0.00  0.00     0.304 C 
HETATM   18  C   UNK N   1      32.000  15.409   8.768  0.00  0.00     0.155 C 
BRANCH  18  19
HETATM   19  O   UNK N   1      32.285  14.733   7.579  0.00  0.00    -0.393 OA
HETATM   20  H   UNK N   1      32.983  14.827   6.912  0.00  0.00     0.210 HD
ENDBRANCH  18  19
ENDBRANCH   1  12
BRANCH   2  21
HETATM   21  O   UNK N   1      29.997  18.556  10.131  0.00  0.00    -0.360 OA
HETATM   22  H   UNK N   1      30.554  17.971  10.606  0.00  0.00     0.217 HD
ENDBRANCH   2  21
BRANCH   4  23
HETATM   23  O   UNK N   1      26.939  19.045   6.559  0.00  0.00    -0.360 OA
HETATM   24  H   UNK N   1      26.375  19.519   7.137  0.00  0.00     0.217 HD
ENDBRANCH   4  23
BRANCH   8  25
HETATM   25  C   UNK N   1      31.769  15.488   3.934  0.00  0.00     0.020 A 
HETATM   26  C   UNK N   1      32.756  16.243   3.271  0.00  0.00     0.016 A 
HETATM   27  C   UNK N   1      33.767  15.629   2.534  0.00  0.00     0.001 A 
HETATM   28  C   UNK N   1      33.811  14.241   2.441  0.00  0.00     0.002 A 
HETATM   29  C   UNK N   1      32.847  13.470   3.088  0.00  0.00     0.025 A 
HETATM   30  C   UNK N   1      31.826  14.070   3.835  0.00  0.00     0.047 A 
HETATM   31 Cl   UNK N   1      30.661  12.993   4.593  0.00  0.00    -0.083 Cl
ENDBRANCH   8  25
TORSDOF 5
ENDMDL
MODEL 7
REMARK VINA RESULT:      -7.3      2.484      5.619
REMARK  5 active torsions:
REMARK  status: ('A' for Active; 'I' for Inactive)
REMARK    1  A    between atoms: C_5  and  C_9 
REMARK    2  A    between atoms: C_6  and  O_7 
REMARK    3  A    between atoms: C_10  and  O_11 
REMARK    4  A    between atoms: C_13  and  O_14 
REMARK    5  A    between atoms: C_18  and  C_22 
ROOT
HETATM    1  C   UNK N   1      28.331  23.338  -5.019  0.00  0.00     0.017 A 
HETATM    2  C   UNK N   1      27.959  24.156  -3.935  0.00  0.00     0.077 A 
HETATM    3  C   UNK N   1      28.657  24.065  -2.726  0.00  0.00     0.074 A 
HETATM    4  C   UNK N   1      29.724  23.172  -2.576  0.00  0.00     0.085 A 
HETATM    5  C   UNK N   1      30.102  22.340  -3.653  0.00  0.00     0.082 A 
HETATM    6  C   UNK N   1      29.390  22.431  -4.868  0.00  0.00     0.102 A 
HETATM    7  O   UNK N   1      29.710  21.648  -5.891  0.00  0.00    -0.308 OA
HETATM    8  C   UNK N   1      30.685  20.749  -5.861  0.00  0.00     0.091 A 
HETATM    9  C   UNK N   1      31.447  20.613  -4.695  0.00  0.00     0.094 A 
HETATM   10  C   UNK N   1      31.161  21.410  -3.586  0.00  0.00     0.190 A 
HETATM   11  O   UNK N   1      31.831  21.285  -2.574  0.00  0.00    -0.287 OA
ENDROOT
BRANCH   1  12
HETATM   12  C   UNK N   1      27.658  23.369  -6.371  0.00  0.00     0.056 C 
HETATM   13  C   UNK N   1      28.085  24.517  -7.272  0.00  0.00     0.042 C 
HETATM   14  C   UNK N   1      27.909  24.051  -8.709  0.00  0.00     0.272 C 
HETATM   15  N   UNK N   1      26.517  23.673  -8.963  0.00  0.00     0.086 N 
HETATM   16  C   UNK N   1      26.473  23.186 -10.330  0.00  0.00     0.310 C 
HETATM   17  C   UNK N   1      26.119  22.551  -8.100  0.00  0.00     0.304 C 
HETATM   18  C   UNK N   1      26.226  22.908  -6.611  0.00  0.00     0.155 C 
BRANCH  18  19
HETATM   19  O   UNK N   1      25.325  23.932  -6.310  0.00  0.00    -0.393 OA
HETATM   20  H   UNK N   1      24.784  24.524  -6.857  0.00  0.00     0.210 HD
ENDBRANCH  18  19
ENDBRANCH   1  12
BRANCH   2  21
HETATM   21  O   UNK N   1      26.943  25.028  -4.039  0.00  0.00    -0.360 OA
HETATM   22  H   UNK N   1      26.385  25.009  -4.791  0.00  0.00     0.217 HD
ENDBRANCH   2  21
BRANCH   4  23
HETATM   23  O   UNK N   1      30.368  23.122  -1.396  0.00  0.00    -0.360 OA
HETATM   24  H   UNK N   1      30.812  22.339  -1.136  0.00  0.00     0.217 HD
ENDBRANCH   4  23
BRANCH   8  25
HETATM   25  C   UNK N   1      30.884  19.909  -7.078  0.00  0.00     0.020 A 
HETATM   26  C   UNK N   1      29.760  19.202  -7.545  0.00  0.00     0.016 A 
HETATM   27  C   UNK N   1      29.837  18.371  -8.661  0.00  0.00     0.001 A 
HETATM   28  C   UNK N   1      31.046  18.225  -9.334  0.00  0.00     0.002 A 
HETATM   29  C   UNK N   1      32.175  18.914  -8.893  0.00  0.00     0.025 A 
HETATM   30  C   UNK N   1      32.114  19.755  -7.775  0.00  0.00     0.047 A 
HETATM   31 Cl   UNK N   1      33.607  20.559  -7.308  0.00  0.00    -0.083 Cl
ENDBRANCH   8  25
TORSDOF 5
ENDMDL
MODEL 8
REMARK VINA RESULT:      -7.0     14.002     15.440
REMARK  5 active torsions:
REMARK  status: ('A' for Active; 'I' for Inactive)
REMARK    1  A    between atoms: C_5  and  C_9 
REMARK    2  A    between atoms: C_6  and  O_7 
REMARK    3  A    between atoms: C_10  and  O_11 
REMARK    4  A    between atoms: C_13  and  O_14 
REMARK    5  A    between atoms: C_18  and  C_22 
ROOT
HETATM    1  C   UNK N   1      20.483  16.380   2.524  0.00  0.00     0.017 A 
HETATM    2  C   UNK N   1      20.098  17.545   1.833  0.00  0.00     0.077 A 
HETATM    3  C   UNK N   1      20.182  18.789   2.469  0.00  0.00     0.074 A 
HETATM    4  C   UNK N   1      20.649  18.895   3.784  0.00  0.00     0.085 A 
HETATM    5  C   UNK N   1      21.031  17.733   4.491  0.00  0.00     0.082 A 
HETATM    6  C   UNK N   1      20.936  16.480   3.847  0.00  0.00     0.102 A 
HETATM    7  O   UNK N   1      21.271  15.369   4.493  0.00  0.00    -0.308 OA
HETATM    8  C   UNK N   1      21.704  15.341   5.747  0.00  0.00     0.091 A 
HETATM    9  C   UNK N   1      21.840  16.547   6.444  0.00  0.00     0.094 A 
HETATM   10  C   UNK N   1      21.507  17.749   5.819  0.00  0.00     0.190 A 
HETATM   11  O   UNK N   1      21.630  18.794   6.435  0.00  0.00    -0.287 OA
ENDROOT
BRANCH   1  12
HETATM   12  C   UNK N   1      20.449  14.993   1.927  0.00  0.00     0.056 C 
HETATM   13  C   UNK N   1      21.544  14.706   0.913  0.00  0.00     0.042 C 
HETATM   14  C   UNK N   1      21.808  13.208   0.948  0.00  0.00     0.272 C 
HETATM   15  N   UNK N   1      20.589  12.461   0.631  0.00  0.00     0.086 N 
HETATM   16  C   UNK N   1      20.932  11.055   0.756  0.00  0.00     0.310 C 
HETATM   17  C   UNK N   1      19.541  12.731   1.626  0.00  0.00     0.304 C 
HETATM   18  C   UNK N   1      19.163  14.218   1.668  0.00  0.00     0.155 C 
BRANCH  18  19
HETATM   19  O   UNK N   1      18.603  14.593   0.444  0.00  0.00    -0.393 OA
HETATM   20  H   UNK N   1      18.525  14.149  -0.415  0.00  0.00     0.210 HD
ENDBRANCH  18  19
ENDBRANCH   1  12
BRANCH   2  21
HETATM   21  O   UNK N   1      19.648  17.487   0.570  0.00  0.00    -0.360 OA
HETATM   22  H   UNK N   1      19.554  16.658   0.144  0.00  0.00     0.217 HD
ENDBRANCH   2  21
BRANCH   4  23
HETATM   23  O   UNK N   1      20.717  20.112   4.353  0.00  0.00    -0.360 OA
HETATM   24  H   UNK N   1      21.494  20.628   4.265  0.00  0.00     0.217 HD
ENDBRANCH   4  23
BRANCH   8  25
HETATM   25  C   UNK N   1      21.987  14.005   6.346  0.00  0.00     0.020 A 
HETATM   26  C   UNK N   1      23.163  13.895   7.113  0.00  0.00     0.016 A 
HETATM   27  C   UNK N   1      23.536  12.689   7.702  0.00  0.00     0.001 A 
HETATM   28  C   UNK N   1      22.740  11.560   7.533  0.00  0.00     0.002 A 
HETATM   29  C   UNK N   1      21.570  11.641   6.778  0.00  0.00     0.025 A 
HETATM   30  C   UNK N   1      21.179  12.846   6.182  0.00  0.00     0.047 A 
HETATM   31 Cl   UNK N   1      19.692  12.819   5.245  0.00  0.00    -0.083 Cl
ENDBRANCH   8  25
TORSDOF 5
ENDMDL
MODEL 9
REMARK VINA RESULT:      -6.9      1.883      2.241
REMARK  5 active torsions:
REMARK  status: ('A' for Active; 'I' for Inactive)
REMARK    1  A    between atoms: C_5  and  C_9 
REMARK    2  A    between atoms: C_6  and  O_7 
REMARK    3  A    between atoms: C_10  and  O_11 
REMARK    4  A    between atoms: C_13  and  O_14 
REMARK    5  A    between atoms: C_18  and  C_22 
ROOT
HETATM    1  C   UNK N   1      29.404  21.798  -6.544  0.00  0.00     0.017 A 
HETATM    2  C   UNK N   1      30.089  20.599  -6.818  0.00  0.00     0.077 A 
HETATM    3  C   UNK N   1      30.955  20.060  -5.861  0.00  0.00     0.074 A 
HETATM    4  C   UNK N   1      31.151  20.694  -4.629  0.00  0.00     0.085 A 
HETATM    5  C   UNK N   1      30.476  21.902  -4.345  0.00  0.00     0.082 A 
HETATM    6  C   UNK N   1      29.610  22.445  -5.317  0.00  0.00     0.102 A 
HETATM    7  O   UNK N   1      28.977  23.589  -5.085  0.00  0.00    -0.308 OA
HETATM    8  C   UNK N   1      29.100  24.292  -3.967  0.00  0.00     0.091 A 
HETATM    9  C   UNK N   1      29.929  23.808  -2.950  0.00  0.00     0.094 A 
HETATM   10  C   UNK N   1      30.619  22.609  -3.132  0.00  0.00     0.190 A 
HETATM   11  O   UNK N   1      31.339  22.194  -2.239  0.00  0.00    -0.287 OA
ENDROOT
BRANCH   1  12
HETATM   12  C   UNK N   1      28.435  22.455  -7.498  0.00  0.00     0.056 C 
HETATM   13  C   UNK N   1      27.058  21.812  -7.555  0.00  0.00     0.042 C 
HETATM   14  C   UNK N   1      26.069  22.900  -7.948  0.00  0.00     0.272 C 
HETATM   15  N   UNK N   1      26.431  23.484  -9.241  0.00  0.00     0.086 N 
HETATM   16  C   UNK N   1      25.471  24.545  -9.488  0.00  0.00     0.310 C 
HETATM   17  C   UNK N   1      27.755  24.118  -9.172  0.00  0.00     0.304 C 
HETATM   18  C   UNK N   1      28.854  23.110  -8.809  0.00  0.00     0.155 C 
BRANCH  18  19
HETATM   19  O   UNK N   1      28.964  22.153  -9.821  0.00  0.00    -0.393 OA
HETATM   20  H   UNK N   1      29.397  21.286  -9.872  0.00  0.00     0.210 HD
ENDBRANCH  18  19
ENDBRANCH   1  12
BRANCH   2  21
HETATM   21  O   UNK N   1      29.926  19.957  -7.987  0.00  0.00    -0.360 OA
HETATM   22  H   UNK N   1      29.694  19.050  -7.995  0.00  0.00     0.217 HD
ENDBRANCH   2  21
BRANCH   4  23
HETATM   23  O   UNK N   1      31.990  20.137  -3.737  0.00  0.00    -0.360 OA
HETATM   24  H   UNK N   1      32.511  19.397  -3.981  0.00  0.00     0.217 HD
ENDBRANCH   4  23
BRANCH   8  25
HETATM   25  C   UNK N   1      28.362  25.586  -3.884  0.00  0.00     0.020 A 
HETATM   26  C   UNK N   1      26.973  25.506  -3.671  0.00  0.00     0.016 A 
HETATM   27  C   UNK N   1      26.182  26.651  -3.597  0.00  0.00     0.001 A 
HETATM   28  C   UNK N   1      26.766  27.906  -3.740  0.00  0.00     0.002 A 
HETATM   29  C   UNK N   1      28.140  28.014  -3.952  0.00  0.00     0.025 A 
HETATM   30  C   UNK N   1      28.949  26.874  -4.026  0.00  0.00     0.047 A 
HETATM   31 Cl   UNK N   1      30.664  27.138  -4.310  0.00  0.00    -0.083 Cl
ENDBRANCH   8  25
TORSDOF 5
ENDMDL
