MODEL 1
REMARK VINA RESULT:      -7.9      0.000      0.000
REMARK  11 active torsions:
REMARK  status: ('A' for Active; 'I' for Inactive)
REMARK    1  A    between atoms: C_10  and  C_9 
REMARK    2  A    between atoms: C_19  and  C_9 
REMARK    3  A    between atoms: C_20  and  C_10 
REMARK    4  A    between atoms: C_21  and  C_16 
REMARK    5  A    between atoms: C_23  and  C_16 
REMARK    6  A    between atoms: C_22  and  C_17 
REMARK    7  A    between atoms: C_24  and  C_17 
REMARK    8  A    between atoms: C_25  and  C_23 
REMARK    9  A    between atoms: C_23  and  N_30 
REMARK   10  A    between atoms: C_24  and  O_33 
REMARK   11  A    between atoms: O_35  and  C_25 
REMARK       I    between atoms: N_29  and  C_26 
REMARK       I    between atoms: N_32  and  C_26 
ROOT
HETATM    1  C   UNK N   1      22.304  19.167   4.214  0.00  0.00     0.184 C 
ENDROOT
BRANCH   1   2
HETATM    2  C   UNK N   1      22.520  17.833   5.003  0.00  0.00     0.047 C 
BRANCH   2   3
HETATM    3  C   UNK N   1      22.963  16.544   4.286  0.00  0.00     0.033 C 
HETATM    4  C   UNK N   1      23.958  15.888   5.024  0.00  0.00    -0.017 C 
HETATM    5  C   UNK N   1      23.539  15.327   6.221  0.00  0.00     0.016 C 
HETATM    6  C   UNK N   1      22.163  15.173   6.397  0.00  0.00     0.009 C 
HETATM    7  C   UNK N   1      21.295  15.238   5.299  0.00  0.00     0.016 C 
HETATM    8  C   UNK N   1      21.797  15.800   4.132  0.00  0.00    -0.017 C 
BRANCH   6   9
HETATM    9  C   UNK N   1      21.678  14.818   7.627  0.00  0.00    -0.116 C 
BRANCH   9  10
HETATM   10  C   UNK N   1      21.339  14.560   8.719  0.00  0.00     0.068 C 
BRANCH  10  11
HETATM   11  C   UNK N   1      21.545  13.532   9.616  0.00  0.00    -0.029 A 
HETATM   12  C   UNK N   1      20.563  13.010  10.440  0.00  0.00     0.012 A 
HETATM   13  C   UNK N   1      20.969  12.179  11.488  0.00  0.00     0.001 A 
HETATM   14  C   UNK N   1      22.331  11.892  11.687  0.00  0.00     0.000 A 
HETATM   15  C   UNK N   1      23.296  12.405  10.826  0.00  0.00     0.001 A 
HETATM   16  C   UNK N   1      22.896  13.230   9.804  0.00  0.00     0.012 A 
ENDBRANCH  10  11
ENDBRANCH   9  10
ENDBRANCH   6   9
ENDBRANCH   2   3
ENDBRANCH   1   2
BRANCH   1  17
HETATM   17  C   UNK N   1      21.025  19.582   3.538  0.00  0.00     0.281 C 
HETATM   18  O   UNK N   1      20.487  20.621   3.904  0.00  0.00    -0.263 OA
BRANCH  17  19
HETATM   19  O   UNK N   1      20.838  19.161   2.264  0.00  0.00    -0.325 OA
HETATM   20  C   UNK N   1      20.733  20.052   1.221  0.00  0.00     0.213 C 
ENDBRANCH  17  19
ENDBRANCH   1  17
BRANCH   1  21
HETATM   21  N   UNK N   1      23.355  19.147   3.262  0.00  0.00    -0.361 N 
HETATM   22  C   UNK N   1      24.057  20.191   3.051  0.00  0.00     0.112 C 
ATOM     23  HN  UNK N   1      23.550  18.292   2.741  1.00  0.00     0.162 HD
BRANCH  22  24
HETATM   24  C   UNK N   1      25.499  20.065   3.436  0.00  0.00     0.090 C 
BRANCH  24  25
HETATM   25  C   UNK N   1      25.625  19.827   4.975  0.00  0.00     0.012 C 
HETATM   26  C   UNK N   1      26.058  21.023   5.875  0.00  0.00     0.008 C 
HETATM   27  C   UNK N   1      27.515  21.068   6.352  0.00  0.00     0.021 C 
HETATM   28  C   UNK N   1      28.054  19.672   6.649  0.00  0.00     0.141 C 
HETATM   29  N   UNK N   1      27.739  18.833   5.519  0.00  0.00    -0.218 N 
HETATM   30  C   UNK N   1      26.369  18.570   5.238  0.00  0.00     0.146 C 
HETATM   31  C   UNK N   1      28.721  18.099   4.821  0.00  0.00     0.667 C 
HETATM   32  N   UNK N   1      29.729  17.637   5.458  0.00  0.00    -0.235 N 
HETATM   33  N   UNK N   1      28.437  17.610   3.524  0.00  0.00    -0.235 N 
HETATM   34  H   UNK N   1      30.358  17.021   5.017  0.00  0.00     0.174 HD
ATOM     35  HN  UNK N   1      29.884  17.908   6.429  1.00  0.00     0.174 HD
HETATM   36  H   UNK N   1      27.669  17.962   3.018  0.00  0.00     0.174 HD
HETATM   37  H   UNK N   1      29.010  16.916   3.125  0.00  0.00     0.174 HD
ENDBRANCH  24  25
ENDBRANCH  22  24
BRANCH  22  38
HETATM   38  O   UNK N   1      23.480  21.410   3.055  0.00  0.00    -0.350 OA
HETATM   39  H   UNK N   1      23.207  22.125   3.595  0.00  0.00     0.219 HD
ENDBRANCH  22  38
ENDBRANCH   1  21
TORSDOF 11
ENDMDL
MODEL 2
REMARK VINA RESULT:      -7.6      4.334      7.298
REMARK  11 active torsions:
REMARK  status: ('A' for Active; 'I' for Inactive)
REMARK    1  A    between atoms: C_10  and  C_9 
REMARK    2  A    between atoms: C_19  and  C_9 
REMARK    3  A    between atoms: C_20  and  C_10 
REMARK    4  A    between atoms: C_21  and  C_16 
REMARK    5  A    between atoms: C_23  and  C_16 
REMARK    6  A    between atoms: C_22  and  C_17 
REMARK    7  A    between atoms: C_24  and  C_17 
REMARK    8  A    between atoms: C_25  and  C_23 
REMARK    9  A    between atoms: C_23  and  N_30 
REMARK   10  A    between atoms: C_24  and  O_33 
REMARK   11  A    between atoms: O_35  and  C_25 
REMARK       I    between atoms: N_29  and  C_26 
REMARK       I    between atoms: N_32  and  C_26 
ROOT
HETATM    1  C   UNK N   1      20.515  16.283   7.898  0.00  0.00     0.184 C 
ENDROOT
BRANCH   1   2
HETATM    2  C   UNK N   1      20.507  14.722   7.987  0.00  0.00     0.047 C 
BRANCH   2   3
HETATM    3  C   UNK N   1      21.658  13.955   8.662  0.00  0.00     0.033 C 
HETATM    4  C   UNK N   1      21.499  12.572   8.487  0.00  0.00    -0.017 C 
HETATM    5  C   UNK N   1      21.674  12.113   7.190  0.00  0.00     0.016 C 
HETATM    6  C   UNK N   1      22.308  12.977   6.296  0.00  0.00     0.009 C 
HETATM    7  C   UNK N   1      23.041  14.075   6.767  0.00  0.00     0.016 C 
HETATM    8  C   UNK N   1      22.817  14.463   8.082  0.00  0.00    -0.017 C 
BRANCH   6   9
HETATM    9  C   UNK N   1      22.329  12.668   4.963  0.00  0.00    -0.116 C 
BRANCH   9  10
HETATM   10  C   UNK N   1      22.338  12.310   3.847  0.00  0.00     0.068 C 
BRANCH  10  11
HETATM   11  C   UNK N   1      22.944  12.704   2.672  0.00  0.00    -0.029 A 
HETATM   12  C   UNK N   1      23.819  13.770   2.567  0.00  0.00     0.012 A 
HETATM   13  C   UNK N   1      24.133  14.231   1.285  0.00  0.00     0.001 A 
HETATM   14  C   UNK N   1      23.570  13.621   0.149  0.00  0.00     0.000 A 
HETATM   15  C   UNK N   1      22.717  12.531   0.280  0.00  0.00     0.001 A 
HETATM   16  C   UNK N   1      22.402  12.088   1.541  0.00  0.00     0.012 A 
ENDBRANCH  10  11
ENDBRANCH   9  10
ENDBRANCH   6   9
ENDBRANCH   2   3
ENDBRANCH   1   2
BRANCH   1  17
HETATM   17  C   UNK N   1      19.781  17.213   8.828  0.00  0.00     0.281 C 
HETATM   18  O   UNK N   1      19.941  18.420   8.685  0.00  0.00    -0.263 OA
BRANCH  17  19
HETATM   19  O   UNK N   1      18.616  16.764   9.354  0.00  0.00    -0.325 OA
HETATM   20  C   UNK N   1      17.400  17.174   8.858  0.00  0.00     0.213 C 
ENDBRANCH  17  19
ENDBRANCH   1  17
BRANCH   1  21
HETATM   21  N   UNK N   1      20.101  16.528   6.565  0.00  0.00    -0.361 N 
HETATM   22  C   UNK N   1      20.900  17.063   5.726  0.00  0.00     0.112 C 
ATOM     23  HN  UNK N   1      19.156  16.277   6.274  1.00  0.00     0.162 HD
BRANCH  22  24
HETATM   24  C   UNK N   1      21.289  16.181   4.580  0.00  0.00     0.090 C 
BRANCH  24  25
HETATM   25  C   UNK N   1      20.127  16.110   3.539  0.00  0.00     0.012 C 
HETATM   26  C   UNK N   1      20.313  15.206   2.283  0.00  0.00     0.008 C 
HETATM   27  C   UNK N   1      20.678  15.888   0.959  0.00  0.00     0.021 C 
HETATM   28  C   UNK N   1      19.989  17.240   0.814  0.00  0.00     0.141 C 
HETATM   29  N   UNK N   1      20.208  17.976   2.034  0.00  0.00    -0.218 N 
HETATM   30  C   UNK N   1      19.630  17.475   3.234  0.00  0.00     0.146 C 
HETATM   31  C   UNK N   1      20.780  19.265   2.051  0.00  0.00     0.667 C 
HETATM   32  N   UNK N   1      20.556  20.065   1.078  0.00  0.00    -0.235 N 
HETATM   33  N   UNK N   1      21.316  19.775   3.257  0.00  0.00    -0.235 N 
HETATM   34  H   UNK N   1      20.842  21.005   1.130  0.00  0.00     0.174 HD
ATOM     35  HN  UNK N   1      20.078  19.726   0.243  1.00  0.00     0.174 HD
HETATM   36  H   UNK N   1      21.502  19.172   4.013  0.00  0.00     0.174 HD
HETATM   37  H   UNK N   1      21.505  20.738   3.342  0.00  0.00     0.174 HD
ENDBRANCH  24  25
ENDBRANCH  22  24
BRANCH  22  38
HETATM   38  O   UNK N   1      21.743  18.040   6.119  0.00  0.00    -0.350 OA
HETATM   39  H   UNK N   1      22.640  18.308   6.152  0.00  0.00     0.219 HD
ENDBRANCH  22  38
ENDBRANCH   1  21
TORSDOF 11
ENDMDL
MODEL 3
REMARK VINA RESULT:      -7.5      3.130      7.563
REMARK  11 active torsions:
REMARK  status: ('A' for Active; 'I' for Inactive)
REMARK    1  A    between atoms: C_10  and  C_9 
REMARK    2  A    between atoms: C_19  and  C_9 
REMARK    3  A    between atoms: C_20  and  C_10 
REMARK    4  A    between atoms: C_21  and  C_16 
REMARK    5  A    between atoms: C_23  and  C_16 
REMARK    6  A    between atoms: C_22  and  C_17 
REMARK    7  A    between atoms: C_24  and  C_17 
REMARK    8  A    between atoms: C_25  and  C_23 
REMARK    9  A    between atoms: C_23  and  N_30 
REMARK   10  A    between atoms: C_24  and  O_33 
REMARK   11  A    between atoms: O_35  and  C_25 
REMARK       I    between atoms: N_29  and  C_26 
REMARK       I    between atoms: N_32  and  C_26 
ROOT
HETATM    1  C   UNK N   1      23.945  19.177   3.870  0.00  0.00     0.184 C 
ENDROOT
BRANCH   1   2
HETATM    2  C   UNK N   1      25.240  19.293   4.739  0.00  0.00     0.047 C 
BRANCH   2   3
HETATM    3  C   UNK N   1      26.089  20.578   4.741  0.00  0.00     0.033 C 
HETATM    4  C   UNK N   1      26.455  20.925   6.049  0.00  0.00    -0.017 C 
HETATM    5  C   UNK N   1      27.366  20.073   6.657  0.00  0.00     0.016 C 
HETATM    6  C   UNK N   1      28.062  19.197   5.823  0.00  0.00     0.009 C 
HETATM    7  C   UNK N   1      28.108  19.417   4.440  0.00  0.00     0.016 C 
HETATM    8  C   UNK N   1      27.170  20.296   3.912  0.00  0.00    -0.017 C 
BRANCH   6   9
HETATM    9  C   UNK N   1      28.819  18.200   6.378  0.00  0.00    -0.116 C 
BRANCH   9  10
HETATM   10  C   UNK N   1      29.537  17.411   6.863  0.00  0.00     0.068 C 
BRANCH  10  11
HETATM   11  C   UNK N   1      30.895  17.287   7.074  0.00  0.00    -0.029 A 
HETATM   12  C   UNK N   1      31.517  17.504   8.291  0.00  0.00     0.012 A 
HETATM   13  C   UNK N   1      32.909  17.622   8.298  0.00  0.00     0.001 A 
HETATM   14  C   UNK N   1      33.642  17.521   7.101  0.00  0.00     0.000 A 
HETATM   15  C   UNK N   1      32.995  17.272   5.895  0.00  0.00     0.001 A 
HETATM   16  C   UNK N   1      31.626  17.169   5.890  0.00  0.00     0.012 A 
ENDBRANCH  10  11
ENDBRANCH   9  10
ENDBRANCH   6   9
ENDBRANCH   2   3
ENDBRANCH   1   2
BRANCH   1  17
HETATM   17  C   UNK N   1      23.300  20.307   3.112  0.00  0.00     0.281 C 
HETATM   18  O   UNK N   1      23.877  20.745   2.124  0.00  0.00    -0.263 OA
BRANCH  17  19
HETATM   19  O   UNK N   1      21.950  20.400   3.179  0.00  0.00    -0.325 OA
HETATM   20  C   UNK N   1      21.188  20.596   2.050  0.00  0.00     0.213 C 
ENDBRANCH  17  19
ENDBRANCH   1  17
BRANCH   1  21
HETATM   21  N   UNK N   1      23.005  18.619   4.773  0.00  0.00    -0.361 N 
HETATM   22  C   UNK N   1      22.630  17.406   4.649  0.00  0.00     0.112 C 
ATOM     23  HN  UNK N   1      22.625  19.192   5.527  1.00  0.00     0.162 HD
BRANCH  22  24
HETATM   24  C   UNK N   1      23.025  16.508   5.780  0.00  0.00     0.090 C 
BRANCH  24  25
HETATM   25  C   UNK N   1      21.813  15.619   6.208  0.00  0.00     0.012 C 
HETATM   26  C   UNK N   1      20.768  16.219   7.196  0.00  0.00     0.008 C 
HETATM   27  C   UNK N   1      20.850  15.797   8.668  0.00  0.00     0.021 C 
HETATM   28  C   UNK N   1      21.265  14.336   8.811  0.00  0.00     0.141 C 
HETATM   29  N   UNK N   1      22.427  14.128   7.983  0.00  0.00    -0.218 N 
HETATM   30  C   UNK N   1      22.281  14.259   6.574  0.00  0.00     0.146 C 
HETATM   31  C   UNK N   1      23.634  13.598   8.487  0.00  0.00     0.667 C 
HETATM   32  N   UNK N   1      23.594  12.737   9.432  0.00  0.00    -0.235 N 
HETATM   33  N   UNK N   1      24.831  13.767   7.752  0.00  0.00    -0.235 N 
HETATM   34  H   UNK N   1      24.412  12.266   9.711  0.00  0.00     0.174 HD
ATOM     35  HN  UNK N   1      22.710  12.536   9.899  1.00  0.00     0.174 HD
HETATM   36  H   UNK N   1      24.880  14.431   7.028  0.00  0.00     0.174 HD
HETATM   37  H   UNK N   1      25.620  13.218   7.967  0.00  0.00     0.174 HD
ENDBRANCH  24  25
ENDBRANCH  22  24
BRANCH  22  38
HETATM   38  O   UNK N   1      22.442  16.876   3.423  0.00  0.00    -0.350 OA
HETATM   39  H   UNK N   1      22.833  16.732   2.584  0.00  0.00     0.219 HD
ENDBRANCH  22  38
ENDBRANCH   1  21
TORSDOF 11
ENDMDL
MODEL 4
REMARK VINA RESULT:      -7.5     13.504     15.386
REMARK  11 active torsions:
REMARK  status: ('A' for Active; 'I' for Inactive)
REMARK    1  A    between atoms: C_10  and  C_9 
REMARK    2  A    between atoms: C_19  and  C_9 
REMARK    3  A    between atoms: C_20  and  C_10 
REMARK    4  A    between atoms: C_21  and  C_16 
REMARK    5  A    between atoms: C_23  and  C_16 
REMARK    6  A    between atoms: C_22  and  C_17 
REMARK    7  A    between atoms: C_24  and  C_17 
REMARK    8  A    between atoms: C_25  and  C_23 
REMARK    9  A    between atoms: C_23  and  N_30 
REMARK   10  A    between atoms: C_24  and  O_33 
REMARK   11  A    between atoms: O_35  and  C_25 
REMARK       I    between atoms: N_29  and  C_26 
REMARK       I    between atoms: N_32  and  C_26 
ROOT
HETATM    1  C   UNK N   1      29.432  26.965  -4.013  0.00  0.00     0.184 C 
ENDROOT
BRANCH   1   2
HETATM    2  C   UNK N   1      28.219  27.420  -4.888  0.00  0.00     0.047 C 
BRANCH   2   3
HETATM    3  C   UNK N   1      26.885  27.843  -4.245  0.00  0.00     0.033 C 
HETATM    4  C   UNK N   1      25.867  27.890  -5.208  0.00  0.00    -0.017 C 
HETATM    5  C   UNK N   1      25.473  26.662  -5.718  0.00  0.00     0.016 C 
HETATM    6  C   UNK N   1      25.861  25.529  -5.001  0.00  0.00     0.009 C 
HETATM    7  C   UNK N   1      26.298  25.642  -3.674  0.00  0.00     0.016 C 
HETATM    8  C   UNK N   1      26.660  26.909  -3.237  0.00  0.00    -0.017 C 
BRANCH   6   9
HETATM    9  C   UNK N   1      25.681  24.290  -5.554  0.00  0.00    -0.116 C 
BRANCH   9  10
HETATM   10  C   UNK N   1      25.603  23.199  -5.977  0.00  0.00     0.068 C 
BRANCH  10  11
HETATM   11  C   UNK N   1      25.562  22.606  -7.222  0.00  0.00    -0.029 A 
HETATM   12  C   UNK N   1      25.295  21.266  -7.438  0.00  0.00     0.012 A 
HETATM   13  C   UNK N   1      25.563  20.745  -8.707  0.00  0.00     0.001 A 
HETATM   14  C   UNK N   1      26.085  21.568  -9.721  0.00  0.00     0.000 A 
HETATM   15  C   UNK N   1      26.316  22.920  -9.488  0.00  0.00     0.001 A 
HETATM   16  C   UNK N   1      26.063  23.425  -8.237  0.00  0.00     0.012 A 
ENDBRANCH  10  11
ENDBRANCH   9  10
ENDBRANCH   6   9
ENDBRANCH   2   3
ENDBRANCH   1   2
BRANCH   1  17
HETATM   17  C   UNK N   1      30.553  27.855  -3.545  0.00  0.00     0.281 C 
HETATM   18  O   UNK N   1      31.198  27.506  -2.562  0.00  0.00    -0.263 OA
BRANCH  17  19
HETATM   19  O   UNK N   1      31.150  28.634  -4.478  0.00  0.00    -0.325 OA
HETATM   20  C   UNK N   1      30.993  30.001  -4.479  0.00  0.00     0.213 C 
ENDBRANCH  17  19
ENDBRANCH   1  17
BRANCH   1  21
HETATM   21  N   UNK N   1      29.970  25.882  -4.754  0.00  0.00    -0.361 N 
HETATM   22  C   UNK N   1      30.033  24.715  -4.241  0.00  0.00     0.112 C 
ATOM     23  HN  UNK N   1      30.310  26.037  -5.703  1.00  0.00     0.162 HD
BRANCH  22  24
HETATM   24  C   UNK N   1      29.177  23.687  -4.914  0.00  0.00     0.090 C 
BRANCH  24  25
HETATM   25  C   UNK N   1      29.962  23.020  -6.089  0.00  0.00     0.012 C 
HETATM   26  C   UNK N   1      29.186  22.074  -7.054  0.00  0.00     0.008 C 
HETATM   27  C   UNK N   1      29.350  20.561  -6.857  0.00  0.00     0.021 C 
HETATM   28  C   UNK N   1      30.770  20.200  -6.433  0.00  0.00     0.141 C 
HETATM   29  N   UNK N   1      31.133  21.066  -5.339  0.00  0.00    -0.218 N 
HETATM   30  C   UNK N   1      31.245  22.461  -5.594  0.00  0.00     0.146 C 
HETATM   31  C   UNK N   1      31.585  20.572  -4.097  0.00  0.00     0.667 C 
HETATM   32  N   UNK N   1      32.269  19.492  -4.063  0.00  0.00    -0.235 N 
HETATM   33  N   UNK N   1      31.561  21.414  -2.960  0.00  0.00    -0.235 N 
HETATM   34  H   UNK N   1      32.696  19.199  -3.225  0.00  0.00     0.174 HD
ATOM     35  HN  UNK N   1      32.374  18.931  -4.907  1.00  0.00     0.174 HD
HETATM   36  H   UNK N   1      31.032  22.245  -2.968  0.00  0.00     0.174 HD
HETATM   37  H   UNK N   1      32.075  21.169  -2.157  0.00  0.00     0.174 HD
ENDBRANCH  24  25
ENDBRANCH  22  24
BRANCH  22  38
HETATM   38  O   UNK N   1      30.342  24.561  -2.938  0.00  0.00    -0.350 OA
HETATM   39  H   UNK N   1      30.161  24.069  -2.162  0.00  0.00     0.219 HD
ENDBRANCH  22  38
ENDBRANCH   1  21
TORSDOF 11
ENDMDL
MODEL 5
REMARK VINA RESULT:      -7.5     13.174     16.155
REMARK  11 active torsions:
REMARK  status: ('A' for Active; 'I' for Inactive)
REMARK    1  A    between atoms: C_10  and  C_9 
REMARK    2  A    between atoms: C_19  and  C_9 
REMARK    3  A    between atoms: C_20  and  C_10 
REMARK    4  A    between atoms: C_21  and  C_16 
REMARK    5  A    between atoms: C_23  and  C_16 
REMARK    6  A    between atoms: C_22  and  C_17 
REMARK    7  A    between atoms: C_24  and  C_17 
REMARK    8  A    between atoms: C_25  and  C_23 
REMARK    9  A    between atoms: C_23  and  N_30 
REMARK   10  A    between atoms: C_24  and  O_33 
REMARK   11  A    between atoms: O_35  and  C_25 
REMARK       I    between atoms: N_29  and  C_26 
REMARK       I    between atoms: N_32  and  C_26 
ROOT
HETATM    1  C   UNK N   1      30.496  22.579  -3.875  0.00  0.00     0.184 C 
ENDROOT
BRANCH   1   2
HETATM    2  C   UNK N   1      30.112  21.348  -4.761  0.00  0.00     0.047 C 
BRANCH   2   3
HETATM    3  C   UNK N   1      31.074  20.805  -5.833  0.00  0.00     0.033 C 
HETATM    4  C   UNK N   1      30.454  19.799  -6.588  0.00  0.00    -0.017 C 
HETATM    5  C   UNK N   1      29.432  20.226  -7.422  0.00  0.00     0.016 C 
HETATM    6  C   UNK N   1      29.360  21.596  -7.680  0.00  0.00     0.009 C 
HETATM    7  C   UNK N   1      30.457  22.428  -7.415  0.00  0.00     0.016 C 
HETATM    8  C   UNK N   1      31.444  21.919  -6.581  0.00  0.00    -0.017 C 
BRANCH   6   9
HETATM    9  C   UNK N   1      28.264  22.102  -8.325  0.00  0.00    -0.116 C 
BRANCH   9  10
HETATM   10  C   UNK N   1      27.316  22.598  -8.804  0.00  0.00     0.068 C 
BRANCH  10  11
HETATM   11  C   UNK N   1      26.969  23.847  -9.277  0.00  0.00    -0.029 A 
HETATM   12  C   UNK N   1      27.774  24.967  -9.182  0.00  0.00     0.012 A 
HETATM   13  C   UNK N   1      27.192  26.211  -9.440  0.00  0.00     0.001 A 
HETATM   14  C   UNK N   1      25.831  26.306  -9.784  0.00  0.00     0.000 A 
HETATM   15  C   UNK N   1      25.050  25.161  -9.903  0.00  0.00     0.001 A 
HETATM   16  C   UNK N   1      25.622  23.942  -9.638  0.00  0.00     0.012 A 
ENDBRANCH  10  11
ENDBRANCH   9  10
ENDBRANCH   6   9
ENDBRANCH   2   3
ENDBRANCH   1   2
BRANCH   1  17
HETATM   17  C   UNK N   1      31.117  22.508  -2.506  0.00  0.00     0.281 C 
HETATM   18  O   UNK N   1      30.519  23.027  -1.571  0.00  0.00    -0.263 OA
BRANCH  17  19
HETATM   19  O   UNK N   1      31.939  21.460  -2.257  0.00  0.00    -0.325 OA
HETATM   20  C   UNK N   1      33.177  21.362  -2.850  0.00  0.00     0.213 C 
ENDBRANCH  17  19
ENDBRANCH   1  17
BRANCH   1  21
HETATM   21  N   UNK N   1      29.283  23.310  -3.804  0.00  0.00    -0.361 N 
HETATM   22  C   UNK N   1      29.192  24.467  -4.334  0.00  0.00     0.112 C 
ATOM     23  HN  UNK N   1      28.477  22.909  -3.324  1.00  0.00     0.162 HD
BRANCH  22  24
HETATM   24  C   UNK N   1      28.231  24.559  -5.479  0.00  0.00     0.090 C 
BRANCH  24  25
HETATM   25  C   UNK N   1      26.788  24.840  -4.947  0.00  0.00     0.012 C 
HETATM   26  C   UNK N   1      25.661  25.128  -5.984  0.00  0.00     0.008 C 
HETATM   27  C   UNK N   1      25.239  26.588  -6.194  0.00  0.00     0.021 C 
HETATM   28  C   UNK N   1      25.280  27.378  -4.890  0.00  0.00     0.141 C 
HETATM   29  N   UNK N   1      26.555  27.128  -4.266  0.00  0.00    -0.218 N 
HETATM   30  C   UNK N   1      26.838  25.806  -3.822  0.00  0.00     0.146 C 
HETATM   31  C   UNK N   1      27.433  28.165  -3.890  0.00  0.00     0.667 C 
HETATM   32  N   UNK N   1      26.952  29.283  -3.496  0.00  0.00    -0.235 N 
HETATM   33  N   UNK N   1      28.795  27.872  -3.643  0.00  0.00    -0.235 N 
HETATM   34  H   UNK N   1      27.541  29.973  -3.114  0.00  0.00     0.174 HD
ATOM     35  HN  UNK N   1      25.951  29.462  -3.579  1.00  0.00     0.174 HD
HETATM   36  H   UNK N   1      29.183  27.020  -3.947  0.00  0.00     0.174 HD
HETATM   37  H   UNK N   1      29.359  28.524  -3.166  0.00  0.00     0.174 HD
ENDBRANCH  24  25
ENDBRANCH  22  24
BRANCH  22  38
HETATM   38  O   UNK N   1      30.233  25.323  -4.280  0.00  0.00    -0.350 OA
HETATM   39  H   UNK N   1      30.566  26.141  -4.590  0.00  0.00     0.219 HD
ENDBRANCH  22  38
ENDBRANCH   1  21
TORSDOF 11
ENDMDL
MODEL 6
REMARK VINA RESULT:      -7.4      4.729      8.104
REMARK  11 active torsions:
REMARK  status: ('A' for Active; 'I' for Inactive)
REMARK    1  A    between atoms: C_10  and  C_9 
REMARK    2  A    between atoms: C_19  and  C_9 
REMARK    3  A    between atoms: C_20  and  C_10 
REMARK    4  A    between atoms: C_21  and  C_16 
REMARK    5  A    between atoms: C_23  and  C_16 
REMARK    6  A    between atoms: C_22  and  C_17 
REMARK    7  A    between atoms: C_24  and  C_17 
REMARK    8  A    between atoms: C_25  and  C_23 
REMARK    9  A    between atoms: C_23  and  N_30 
REMARK   10  A    between atoms: C_24  and  O_33 
REMARK   11  A    between atoms: O_35  and  C_25 
REMARK       I    between atoms: N_29  and  C_26 
REMARK       I    between atoms: N_32  and  C_26 
ROOT
HETATM    1  C   UNK N   1      20.011  16.850   7.508  0.00  0.00     0.184 C 
ENDROOT
BRANCH   1   2
HETATM    2  C   UNK N   1      20.331  17.106   5.998  0.00  0.00     0.047 C 
BRANCH   2   3
HETATM    3  C   UNK N   1      21.692  17.672   5.555  0.00  0.00     0.033 C 
HETATM    4  C   UNK N   1      22.477  16.668   4.970  0.00  0.00    -0.017 C 
HETATM    5  C   UNK N   1      22.032  16.208   3.739  0.00  0.00     0.016 C 
HETATM    6  C   UNK N   1      21.093  16.998   3.073  0.00  0.00     0.009 C 
HETATM    7  C   UNK N   1      20.894  18.333   3.448  0.00  0.00     0.016 C 
HETATM    8  C   UNK N   1      21.383  18.718   4.690  0.00  0.00    -0.017 C 
BRANCH   6   9
HETATM    9  C   UNK N   1      20.468  16.503   1.961  0.00  0.00    -0.116 C 
BRANCH   9  10
HETATM   10  C   UNK N   1      19.966  15.992   1.033  0.00  0.00     0.068 C 
BRANCH  10  11
HETATM   11  C   UNK N   1      19.691  14.703   0.624  0.00  0.00    -0.029 A 
HETATM   12  C   UNK N   1      18.440  14.260   0.234  0.00  0.00     0.012 A 
HETATM   13  C   UNK N   1      18.245  12.881   0.119  0.00  0.00     0.001 A 
HETATM   14  C   UNK N   1      19.293  11.985   0.394  0.00  0.00     0.000 A 
HETATM   15  C   UNK N   1      20.551  12.457   0.755  0.00  0.00     0.001 A 
HETATM   16  C   UNK N   1      20.737  13.812   0.878  0.00  0.00     0.012 A 
ENDBRANCH  10  11
ENDBRANCH   9  10
ENDBRANCH   6   9
ENDBRANCH   2   3
ENDBRANCH   1   2
BRANCH   1  17
HETATM   17  C   UNK N   1      19.887  17.914   8.565  0.00  0.00     0.281 C 
HETATM   18  O   UNK N   1      20.342  19.026   8.324  0.00  0.00    -0.263 OA
BRANCH  17  19
HETATM   19  O   UNK N   1      18.850  17.803   9.430  0.00  0.00    -0.325 OA
HETATM   20  C   UNK N   1      17.640  17.280   9.036  0.00  0.00     0.213 C 
ENDBRANCH  17  19
ENDBRANCH   1  17
BRANCH   1  21
HETATM   21  N   UNK N   1      21.011  15.920   7.891  0.00  0.00    -0.361 N 
HETATM   22  C   UNK N   1      20.699  14.718   8.185  0.00  0.00     0.112 C 
ATOM     23  HN  UNK N   1      21.987  16.215   7.934  1.00  0.00     0.162 HD
BRANCH  22  24
HETATM   24  C   UNK N   1      21.246  13.683   7.252  0.00  0.00     0.090 C 
BRANCH  24  25
HETATM   25  C   UNK N   1      22.761  13.441   7.546  0.00  0.00     0.012 C 
HETATM   26  C   UNK N   1      23.477  12.263   6.819  0.00  0.00     0.008 C 
HETATM   27  C   UNK N   1      23.715  10.972   7.612  0.00  0.00     0.021 C 
HETATM   28  C   UNK N   1      24.043  11.262   9.073  0.00  0.00     0.141 C 
HETATM   29  N   UNK N   1      23.053  12.185   9.569  0.00  0.00    -0.218 N 
HETATM   30  C   UNK N   1      23.012  13.492   9.008  0.00  0.00     0.146 C 
HETATM   31  C   UNK N   1      22.277  11.923  10.717  0.00  0.00     0.667 C 
HETATM   32  N   UNK N   1      22.786  11.251  11.679  0.00  0.00    -0.235 N 
HETATM   33  N   UNK N   1      21.087  12.656  10.938  0.00  0.00    -0.235 N 
HETATM   34  H   UNK N   1      22.307  11.163  12.534  0.00  0.00     0.174 HD
ATOM     35  HN  UNK N   1      23.694  10.802  11.559  1.00  0.00     0.174 HD
HETATM   36  H   UNK N   1      20.678  13.171  10.206  0.00  0.00     0.174 HD
HETATM   37  H   UNK N   1      20.665  12.650  11.827  0.00  0.00     0.174 HD
ENDBRANCH  24  25
ENDBRANCH  22  24
BRANCH  22  38
HETATM   38  O   UNK N   1      19.563  14.458   8.863  0.00  0.00    -0.350 OA
HETATM   39  H   UNK N   1      19.122  13.833   9.403  0.00  0.00     0.219 HD
ENDBRANCH  22  38
ENDBRANCH   1  21
TORSDOF 11
ENDMDL
MODEL 7
REMARK VINA RESULT:      -7.3      6.952     10.986
REMARK  11 active torsions:
REMARK  status: ('A' for Active; 'I' for Inactive)
REMARK    1  A    between atoms: C_10  and  C_9 
REMARK    2  A    between atoms: C_19  and  C_9 
REMARK    3  A    between atoms: C_20  and  C_10 
REMARK    4  A    between atoms: C_21  and  C_16 
REMARK    5  A    between atoms: C_23  and  C_16 
REMARK    6  A    between atoms: C_22  and  C_17 
REMARK    7  A    between atoms: C_24  and  C_17 
REMARK    8  A    between atoms: C_25  and  C_23 
REMARK    9  A    between atoms: C_23  and  N_30 
REMARK   10  A    between atoms: C_24  and  O_33 
REMARK   11  A    between atoms: O_35  and  C_25 
REMARK       I    between atoms: N_29  and  C_26 
REMARK       I    between atoms: N_32  and  C_26 
ROOT
HETATM    1  C   UNK N   1      31.817  16.956   8.285  0.00  0.00     0.184 C 
ENDROOT
BRANCH   1   2
HETATM    2  C   UNK N   1      32.621  17.420   7.025  0.00  0.00     0.047 C 
BRANCH   2   3
HETATM    3  C   UNK N   1      33.062  16.415   5.945  0.00  0.00     0.033 C 
HETATM    4  C   UNK N   1      32.155  15.349   5.864  0.00  0.00    -0.017 C 
HETATM    5  C   UNK N   1      30.905  15.668   5.354  0.00  0.00     0.016 C 
HETATM    6  C   UNK N   1      30.795  16.883   4.675  0.00  0.00     0.009 C 
HETATM    7  C   UNK N   1      31.940  17.553   4.224  0.00  0.00     0.016 C 
HETATM    8  C   UNK N   1      33.154  17.163   4.775  0.00  0.00    -0.017 C 
BRANCH   6   9
HETATM    9  C   UNK N   1      29.555  17.348   4.328  0.00  0.00    -0.116 C 
BRANCH   9  10
HETATM   10  C   UNK N   1      28.526  17.835   4.048  0.00  0.00     0.068 C 
BRANCH  10  11
HETATM   11  C   UNK N   1      27.714  18.827   4.557  0.00  0.00    -0.029 A 
HETATM   12  C   UNK N   1      26.888  19.628   3.789  0.00  0.00     0.012 A 
HETATM   13  C   UNK N   1      26.343  20.767   4.390  0.00  0.00     0.001 A 
HETATM   14  C   UNK N   1      26.634  21.076   5.731  0.00  0.00     0.000 A 
HETATM   15  C   UNK N   1      27.444  20.238   6.491  0.00  0.00     0.001 A 
HETATM   16  C   UNK N   1      27.986  19.126   5.894  0.00  0.00     0.012 A 
ENDBRANCH  10  11
ENDBRANCH   9  10
ENDBRANCH   6   9
ENDBRANCH   2   3
ENDBRANCH   1   2
BRANCH   1  17
HETATM   17  C   UNK N   1      30.842  17.804   9.058  0.00  0.00     0.281 C 
HETATM   18  O   UNK N   1      30.761  18.994   8.777  0.00  0.00    -0.263 OA
BRANCH  17  19
HETATM   19  O   UNK N   1      29.759  17.177   9.576  0.00  0.00    -0.325 OA
HETATM   20  C   UNK N   1      28.483  17.633   9.338  0.00  0.00     0.213 C 
ENDBRANCH  17  19
ENDBRANCH   1  17
BRANCH   1  21
HETATM   21  N   UNK N   1      32.834  16.495   9.159  0.00  0.00    -0.361 N 
HETATM   22  C   UNK N   1      32.713  15.376   9.760  0.00  0.00     0.112 C 
ATOM     23  HN  UNK N   1      33.669  17.062   9.308  1.00  0.00     0.162 HD
BRANCH  22  24
HETATM   24  C   UNK N   1      33.715  14.337   9.362  0.00  0.00     0.090 C 
BRANCH  24  25
HETATM   25  C   UNK N   1      35.138  14.975   9.263  0.00  0.00     0.012 C 
HETATM   26  C   UNK N   1      36.127  14.413   8.197  0.00  0.00     0.008 C 
HETATM   27  C   UNK N   1      37.226  13.457   8.676  0.00  0.00     0.021 C 
HETATM   28  C   UNK N   1      37.750  13.847  10.054  0.00  0.00     0.141 C 
HETATM   29  N   UNK N   1      36.611  14.049  10.914  0.00  0.00    -0.218 N 
HETATM   30  C   UNK N   1      35.727  15.124  10.616  0.00  0.00     0.146 C 
HETATM   31  C   UNK N   1      36.456  13.373  12.142  0.00  0.00     0.667 C 
HETATM   32  N   UNK N   1      37.492  13.077  12.831  0.00  0.00    -0.235 N 
HETATM   33  N   UNK N   1      35.179  13.312  12.749  0.00  0.00    -0.235 N 
HETATM   34  H   UNK N   1      37.398  12.717  13.742  0.00  0.00     0.174 HD
ATOM     35  HN  UNK N   1      38.421  13.214  12.433  1.00  0.00     0.174 HD
HETATM   36  H   UNK N   1      34.371  13.529  12.230  0.00  0.00     0.174 HD
HETATM   37  H   UNK N   1      35.098  13.051  13.695  0.00  0.00     0.174 HD
ENDBRANCH  24  25
ENDBRANCH  22  24
BRANCH  22  38
HETATM   38  O   UNK N   1      31.510  14.984  10.228  0.00  0.00    -0.350 OA
HETATM   39  H   UNK N   1      30.781  14.414  10.080  0.00  0.00     0.219 HD
ENDBRANCH  22  38
ENDBRANCH   1  21
TORSDOF 11
ENDMDL
MODEL 8
REMARK VINA RESULT:      -7.2     11.477     14.291
REMARK  11 active torsions:
REMARK  status: ('A' for Active; 'I' for Inactive)
REMARK    1  A    between atoms: C_10  and  C_9 
REMARK    2  A    between atoms: C_19  and  C_9 
REMARK    3  A    between atoms: C_20  and  C_10 
REMARK    4  A    between atoms: C_21  and  C_16 
REMARK    5  A    between atoms: C_23  and  C_16 
REMARK    6  A    between atoms: C_22  and  C_17 
REMARK    7  A    between atoms: C_24  and  C_17 
REMARK    8  A    between atoms: C_25  and  C_23 
REMARK    9  A    between atoms: C_23  and  N_30 
REMARK   10  A    between atoms: C_24  and  O_33 
REMARK   11  A    between atoms: O_35  and  C_25 
REMARK       I    between atoms: N_29  and  C_26 
REMARK       I    between atoms: N_32  and  C_26 
ROOT
HETATM    1  C   UNK N   1      34.567  11.608  10.327  0.00  0.00     0.184 C 
ENDROOT
BRANCH   1   2
HETATM    2  C   UNK N   1      35.157  12.184  11.656  0.00  0.00     0.047 C 
BRANCH   2   3
HETATM    3  C   UNK N   1      36.550  12.839  11.694  0.00  0.00     0.033 C 
HETATM    4  C   UNK N   1      36.455  14.174  12.113  0.00  0.00    -0.017 C 
HETATM    5  C   UNK N   1      36.103  14.357  13.442  0.00  0.00     0.016 C 
HETATM    6  C   UNK N   1      36.217  13.247  14.281  0.00  0.00     0.009 C 
HETATM    7  C   UNK N   1      36.978  12.137  13.893  0.00  0.00     0.016 C 
HETATM    8  C   UNK N   1      37.302  12.036  12.546  0.00  0.00    -0.017 C 
BRANCH   6   9
HETATM    9  C   UNK N   1      35.696  13.307  15.546  0.00  0.00    -0.116 C 
BRANCH   9  10
HETATM   10  C   UNK N   1      35.210  13.271  16.612  0.00  0.00     0.068 C 
BRANCH  10  11
HETATM   11  C   UNK N   1      35.269  12.443  17.714  0.00  0.00    -0.029 A 
HETATM   12  C   UNK N   1      35.177  12.882  19.023  0.00  0.00     0.012 A 
HETATM   13  C   UNK N   1      35.534  11.987  20.036  0.00  0.00     0.001 A 
HETATM   14  C   UNK N   1      35.970  10.687  19.721  0.00  0.00     0.000 A 
HETATM   15  C   UNK N   1      36.024  10.260  18.397  0.00  0.00     0.001 A 
HETATM   16  C   UNK N   1      35.684  11.146  17.405  0.00  0.00     0.012 A 
ENDBRANCH  10  11
ENDBRANCH   9  10
ENDBRANCH   6   9
ENDBRANCH   2   3
ENDBRANCH   1   2
BRANCH   1  17
HETATM   17  C   UNK N   1      35.052  10.368   9.623  0.00  0.00     0.281 C 
HETATM   18  O   UNK N   1      34.215   9.590   9.179  0.00  0.00    -0.263 OA
BRANCH  17  19
HETATM   19  O   UNK N   1      36.267  10.435   9.028  0.00  0.00    -0.325 OA
HETATM   20  C   UNK N   1      37.292   9.592   9.393  0.00  0.00     0.213 C 
ENDBRANCH  17  19
ENDBRANCH   1  17
BRANCH   1  21
HETATM   21  N   UNK N   1      34.642  12.712   9.440  0.00  0.00    -0.361 N 
HETATM   22  C   UNK N   1      33.604  13.410   9.186  0.00  0.00     0.112 C 
ATOM     23  HN  UNK N   1      35.532  12.950   9.002  1.00  0.00     0.162 HD
BRANCH  22  24
HETATM   24  C   UNK N   1      33.671  14.829   9.660  0.00  0.00     0.090 C 
BRANCH  24  25
HETATM   25  C   UNK N   1      34.458  15.702   8.631  0.00  0.00     0.012 C 
HETATM   26  C   UNK N   1      34.530  17.241   8.869  0.00  0.00     0.008 C 
HETATM   27  C   UNK N   1      33.602  18.137   8.039  0.00  0.00     0.021 C 
HETATM   28  C   UNK N   1      33.428  17.604   6.621  0.00  0.00     0.141 C 
HETATM   29  N   UNK N   1      33.103  16.203   6.716  0.00  0.00    -0.218 N 
HETATM   30  C   UNK N   1      34.086  15.320   7.247  0.00  0.00     0.146 C 
HETATM   31  C   UNK N   1      31.954  15.646   6.118  0.00  0.00     0.667 C 
HETATM   32  N   UNK N   1      31.521  16.134   5.017  0.00  0.00    -0.235 N 
HETATM   33  N   UNK N   1      31.485  14.382   6.547  0.00  0.00    -0.235 N 
HETATM   34  H   UNK N   1      30.799  15.684   4.522  0.00  0.00     0.174 HD
ATOM     35  HN  UNK N   1      31.927  16.994   4.649  1.00  0.00     0.174 HD
HETATM   36  H   UNK N   1      31.802  13.997   7.396  0.00  0.00     0.174 HD
HETATM   37  H   UNK N   1      30.838  13.886   5.996  0.00  0.00     0.174 HD
ENDBRANCH  24  25
ENDBRANCH  22  24
BRANCH  22  38
HETATM   38  O   UNK N   1      32.401  12.816   9.058  0.00  0.00    -0.350 OA
HETATM   39  H   UNK N   1      31.482  12.908   9.216  0.00  0.00     0.219 HD
ENDBRANCH  22  38
ENDBRANCH   1  21
TORSDOF 11
ENDMDL
MODEL 9
REMARK VINA RESULT:      -7.2      9.208     12.232
REMARK  11 active torsions:
REMARK  status: ('A' for Active; 'I' for Inactive)
REMARK    1  A    between atoms: C_10  and  C_9 
REMARK    2  A    between atoms: C_19  and  C_9 
REMARK    3  A    between atoms: C_20  and  C_10 
REMARK    4  A    between atoms: C_21  and  C_16 
REMARK    5  A    between atoms: C_23  and  C_16 
REMARK    6  A    between atoms: C_22  and  C_17 
REMARK    7  A    between atoms: C_24  and  C_17 
REMARK    8  A    between atoms: C_25  and  C_23 
REMARK    9  A    between atoms: C_23  and  N_30 
REMARK   10  A    between atoms: C_24  and  O_33 
REMARK   11  A    between atoms: O_35  and  C_25 
REMARK       I    between atoms: N_29  and  C_26 
REMARK       I    between atoms: N_32  and  C_26 
ROOT
HETATM    1  C   UNK N   1      34.427  16.089   9.338  0.00  0.00     0.184 C 
ENDROOT
BRANCH   1   2
HETATM    2  C   UNK N   1      33.650  14.750   9.115  0.00  0.00     0.047 C 
BRANCH   2   3
HETATM    3  C   UNK N   1      34.054  13.769   8.000  0.00  0.00     0.033 C 
HETATM    4  C   UNK N   1      35.447  13.618   7.957  0.00  0.00    -0.017 C 
HETATM    5  C   UNK N   1      36.007  12.949   9.036  0.00  0.00     0.016 C 
HETATM    6  C   UNK N   1      35.135  12.218   9.844  0.00  0.00     0.009 C 
HETATM    7  C   UNK N   1      33.852  11.885   9.388  0.00  0.00     0.016 C 
HETATM    8  C   UNK N   1      33.371  12.591   8.293  0.00  0.00    -0.017 C 
BRANCH   6   9
HETATM    9  C   UNK N   1      35.588  11.707  11.031  0.00  0.00    -0.116 C 
BRANCH   9  10
HETATM   10  C   UNK N   1      36.034  11.212  11.995  0.00  0.00     0.068 C 
BRANCH  10  11
HETATM   11  C   UNK N   1      35.635  11.023  13.302  0.00  0.00    -0.029 A 
HETATM   12  C   UNK N   1      36.462  10.556  14.309  0.00  0.00     0.012 A 
HETATM   13  C   UNK N   1      35.863  10.146  15.504  0.00  0.00     0.001 A 
HETATM   14  C   UNK N   1      34.468  10.211  15.664  0.00  0.00     0.000 A 
HETATM   15  C   UNK N   1      33.661  10.714  14.647  0.00  0.00     0.001 A 
HETATM   16  C   UNK N   1      34.251  11.105  13.471  0.00  0.00     0.012 A 
ENDBRANCH  10  11
ENDBRANCH   9  10
ENDBRANCH   6   9
ENDBRANCH   2   3
ENDBRANCH   1   2
BRANCH   1  17
HETATM   17  C   UNK N   1      35.375  16.368  10.474  0.00  0.00     0.281 C 
HETATM   18  O   UNK N   1      35.993  17.427  10.465  0.00  0.00    -0.263 OA
BRANCH  17  19
HETATM   19  O   UNK N   1      35.102  15.779  11.662  0.00  0.00    -0.325 OA
HETATM   20  C   UNK N   1      36.065  15.084  12.357  0.00  0.00     0.213 C 
ENDBRANCH  17  19
ENDBRANCH   1  17
BRANCH   1  21
HETATM   21  N   UNK N   1      33.394  17.060   9.338  0.00  0.00    -0.361 N 
HETATM   22  C   UNK N   1      33.343  17.951   8.426  0.00  0.00     0.112 C 
ATOM     23  HN  UNK N   1      32.687  17.047  10.073  1.00  0.00     0.162 HD
BRANCH  22  24
HETATM   24  C   UNK N   1      32.146  17.864   7.530  0.00  0.00     0.090 C 
BRANCH  24  25
HETATM   25  C   UNK N   1      32.369  16.763   6.444  0.00  0.00     0.012 C 
HETATM   26  C   UNK N   1      33.435  17.021   5.337  0.00  0.00     0.008 C 
HETATM   27  C   UNK N   1      32.938  17.462   3.954  0.00  0.00     0.021 C 
HETATM   28  C   UNK N   1      31.624  16.781   3.586  0.00  0.00     0.141 C 
HETATM   29  N   UNK N   1      30.726  16.929   4.704  0.00  0.00    -0.218 N 
HETATM   30  C   UNK N   1      31.063  16.284   5.927  0.00  0.00     0.146 C 
HETATM   31  C   UNK N   1      29.442  17.499   4.577  0.00  0.00     0.667 C 
HETATM   32  N   UNK N   1      28.786  17.331   3.492  0.00  0.00    -0.235 N 
HETATM   33  N   UNK N   1      28.768  17.965   5.730  0.00  0.00    -0.235 N 
HETATM   34  H   UNK N   1      27.845  17.613   3.430  0.00  0.00     0.174 HD
ATOM     35  HN  UNK N   1      29.239  16.902   2.686  1.00  0.00     0.174 HD
HETATM   36  H   UNK N   1      29.260  18.107   6.570  0.00  0.00     0.174 HD
HETATM   37  H   UNK N   1      27.801  18.148   5.693  0.00  0.00     0.174 HD
ENDBRANCH  24  25
ENDBRANCH  22  24
BRANCH  22  38
HETATM   38  O   UNK N   1      34.478  18.506   7.955  0.00  0.00    -0.350 OA
HETATM   39  H   UNK N   1      35.081  18.521   7.238  0.00  0.00     0.219 HD
ENDBRANCH  22  38
ENDBRANCH   1  21
TORSDOF 11
ENDMDL
