REMARK  4 active torsions:
REMARK  status: ('A' for Active; 'I' for Inactive)
REMARK    1  A    between atoms: C_4  and  O_5 
REMARK    2  A    between atoms: C_6  and  O_7 
REMARK    3  A    between atoms: C_8  and  O_9 
REMARK    4  A    between atoms: C_10  and  O_11 
ROOT
HETATM    1  C   UNK N   1      -1.987   2.049   0.000  0.00  0.00     0.042 C 
HETATM    2  C   UNK N   1      -0.691   1.258  -0.000  0.00  0.00     0.152 A 
HETATM    3  O   UNK N   1       0.501   2.038   0.000  0.00  0.00    -0.351 OA
HETATM    4  C   UNK N   1       1.718   1.304  -0.000  0.00  0.00     0.288 A 
HETATM    5  C   UNK N   1       1.831  -0.217   0.000  0.00  0.00     0.204 A 
HETATM    6  C   UNK N   1       0.590  -1.026  -0.000  0.00  0.00     0.182 A 
HETATM    7  C   UNK N   1      -0.700  -0.282   0.000  0.00  0.00     0.178 A 
ENDROOT
BRANCH   4   8
HETATM    8  O   UNK N   1       2.885   2.068   0.000  0.00  0.00    -0.369 OA
HETATM    9  H   UNK N   1       3.751   1.630   0.000  0.00  0.00     0.212 HD
ENDBRANCH   4   8
BRANCH   5  10
HETATM   10  O   UNK N   1       3.066  -0.862  -0.000  0.00  0.00    -0.388 OA
HETATM   11  H   UNK N   1       3.107  -1.831  -0.000  0.00  0.00     0.210 HD
ENDBRANCH   5  10
BRANCH   6  12
HETATM   12  O   UNK N   1       0.640  -2.418   0.000  0.00  0.00    -0.390 OA
HETATM   13  H   UNK N   1      -0.183  -2.933   0.000  0.00  0.00     0.210 HD
ENDBRANCH   6  12
BRANCH   7  14
HETATM   14  O   UNK N   1      -1.890  -1.011  -0.000  0.00  0.00    -0.390 OA
HETATM   15  H   UNK N   1      -2.742  -0.548  -0.000  0.00  0.00     0.210 HD
ENDBRANCH   7  14
TORSDOF 4
