MODEL 1
REMARK VINA RESULT:      -7.0      0.000      0.000
REMARK  12 active torsions:
REMARK  status: ('A' for Active; 'I' for Inactive)
REMARK    1  A    between atoms: C_10  and  C_8 
REMARK    2  A    between atoms: C_13  and  C_8 
REMARK    3  A    between atoms: C_11  and  C_9 
REMARK    4  A    between atoms: C_12  and  C_9 
REMARK    5  A    between atoms: C_14  and  C_12 
REMARK    6  A    between atoms: C_12  and  N_17 
REMARK    7  A    between atoms: C_16  and  C_13 
REMARK    8  A    between atoms: C_13  and  N_18 
REMARK    9  A    between atoms: C_15  and  C_14 
REMARK   10  A    between atoms: C_14  and  O_20 
REMARK   11  A    between atoms: C_15  and  O_21 
REMARK   12  A    between atoms: O_23  and  C_16 
ROOT
HETATM    1  C   UNK N   1      34.758  14.862  10.850  0.00  0.00     0.214 C 
ENDROOT
BRANCH   1   2
HETATM    2  C   UNK N   1      36.074  14.827  11.667  0.00  0.00     0.115 C 
BRANCH   2   3
HETATM    3  C   UNK N   1      36.223  13.427  12.299  0.00  0.00     0.066 C 
BRANCH   3   4
HETATM    4  C   UNK N   1      35.995  13.350  13.785  0.00  0.00    -0.056 A 
HETATM    5  C   UNK N   1      36.728  14.168  14.649  0.00  0.00     0.007 A 
HETATM    6  C   UNK N   1      36.483  14.128  16.028  0.00  0.00     0.001 A 
HETATM    7  C   UNK N   1      35.507  13.270  16.545  0.00  0.00     0.000 A 
HETATM    8  C   UNK N   1      34.763  12.461  15.684  0.00  0.00     0.001 A 
HETATM    9  C   UNK N   1      34.998  12.512  14.310  0.00  0.00     0.007 A 
ENDBRANCH   3   4
ENDBRANCH   2   3
BRANCH   2  10
HETATM   10  N   UNK N   1      37.212  15.108  10.802  0.00  0.00    -0.423 N 
HETATM   11  H   UNK N   1      37.092  15.685   9.970  0.00  0.00     0.150 HD
HETATM   12  H   UNK N   1      38.130  14.727  11.030  0.00  0.00     0.150 HD
ENDBRANCH   2  10
ENDBRANCH   1   2
BRANCH   1  13
HETATM   13  C   UNK N   1      34.442  16.228  10.279  0.00  0.00     0.143 C 
HETATM   14  N   UNK N   1      33.599  16.369   9.300  0.00  0.00    -0.358 N 
ATOM     15  HN  UNK N   1      33.138  15.517   8.981  1.00  0.00     0.162 HD
BRANCH  14  16
HETATM   16  C   UNK N   1      33.229  17.604   8.599  0.00  0.00     0.181 C 
BRANCH  16  17
HETATM   17  C   UNK N   1      32.031  17.270   7.697  0.00  0.00     0.040 C 
BRANCH  17  18
HETATM   18  C   UNK N   1      30.657  17.307   8.376  0.00  0.00    -0.020 C 
HETATM   19  C   UNK N   1      30.492  18.634   9.084  0.00  0.00     0.009 C 
HETATM   20  C   UNK N   1      29.510  17.119   7.399  0.00  0.00     0.009 C 
ENDBRANCH  17  18
ENDBRANCH  16  17
BRANCH  16  21
HETATM   21  C   UNK N   1      34.357  18.294   7.842  0.00  0.00     0.163 C 
HETATM   22  O   UNK N   1      34.512  18.070   6.651  0.00  0.00    -0.648 OA
BRANCH  21  23
HETATM   23  O   UNK N   1      35.202  19.137   8.469  0.00  0.00    -0.775 OA
HETATM   24  H   UNK N   1      36.019  19.579   8.356  0.00  0.00     0.167 HD
ENDBRANCH  21  23
ENDBRANCH  16  21
ENDBRANCH  14  16
BRANCH  13  25
HETATM   25  O   UNK N   1      35.119  17.281  10.777  0.00  0.00    -0.348 OA
HETATM   26  H   UNK N   1      35.046  17.618  11.648  0.00  0.00     0.219 HD
ENDBRANCH  13  25
ENDBRANCH   1  13
BRANCH   1  27
HETATM   27  O   UNK N   1      33.704  14.371  11.628  0.00  0.00    -0.385 OA
HETATM   28  H   UNK N   1      33.487  13.427  11.688  0.00  0.00     0.210 HD
ENDBRANCH   1  27
TORSDOF 12
ENDMDL
MODEL 2
REMARK VINA RESULT:      -6.4     16.151     20.262
REMARK  12 active torsions:
REMARK  status: ('A' for Active; 'I' for Inactive)
REMARK    1  A    between atoms: C_10  and  C_8 
REMARK    2  A    between atoms: C_13  and  C_8 
REMARK    3  A    between atoms: C_11  and  C_9 
REMARK    4  A    between atoms: C_12  and  C_9 
REMARK    5  A    between atoms: C_14  and  C_12 
REMARK    6  A    between atoms: C_12  and  N_17 
REMARK    7  A    between atoms: C_16  and  C_13 
REMARK    8  A    between atoms: C_13  and  N_18 
REMARK    9  A    between atoms: C_15  and  C_14 
REMARK   10  A    between atoms: C_14  and  O_20 
REMARK   11  A    between atoms: C_15  and  O_21 
REMARK   12  A    between atoms: O_23  and  C_16 
ROOT
HETATM    1  C   UNK N   1      26.941  24.824  -4.126  0.00  0.00     0.214 C 
ENDROOT
BRANCH   1   2
HETATM    2  C   UNK N   1      26.030  24.583  -5.355  0.00  0.00     0.115 C 
BRANCH   2   3
HETATM    3  C   UNK N   1      25.215  25.866  -5.623  0.00  0.00     0.066 C 
BRANCH   3   4
HETATM    4  C   UNK N   1      25.927  27.164  -5.351  0.00  0.00    -0.056 A 
HETATM    5  C   UNK N   1      26.868  27.651  -6.264  0.00  0.00     0.007 A 
HETATM    6  C   UNK N   1      27.498  28.880  -6.033  0.00  0.00     0.001 A 
HETATM    7  C   UNK N   1      27.190  29.624  -4.889  0.00  0.00     0.000 A 
HETATM    8  C   UNK N   1      26.243  29.149  -3.981  0.00  0.00     0.001 A 
HETATM    9  C   UNK N   1      25.605  27.931  -4.219  0.00  0.00     0.007 A 
ENDBRANCH   3   4
ENDBRANCH   2   3
BRANCH   2  10
HETATM   10  N   UNK N   1      26.835  24.252  -6.523  0.00  0.00    -0.423 N 
HETATM   11  H   UNK N   1      26.604  23.436  -7.089  0.00  0.00     0.150 HD
HETATM   12  H   UNK N   1      27.632  24.838  -6.774  0.00  0.00     0.150 HD
ENDBRANCH   2  10
ENDBRANCH   1   2
BRANCH   1  13
HETATM   13  C   UNK N   1      28.367  24.361  -4.336  0.00  0.00     0.143 C 
HETATM   14  N   UNK N   1      28.823  23.299  -3.743  0.00  0.00    -0.358 N 
ATOM     15  HN  UNK N   1      28.152  22.782  -3.174  1.00  0.00     0.162 HD
BRANCH  14  16
HETATM   16  C   UNK N   1      30.183  22.752  -3.793  0.00  0.00     0.181 C 
BRANCH  16  17
HETATM   17  C   UNK N   1      30.115  21.438  -4.587  0.00  0.00     0.040 C 
BRANCH  17  18
HETATM   18  C   UNK N   1      30.389  21.554  -6.090  0.00  0.00    -0.020 C 
HETATM   19  C   UNK N   1      31.356  20.464  -6.501  0.00  0.00     0.009 C 
HETATM   20  C   UNK N   1      29.130  21.445  -6.930  0.00  0.00     0.009 C 
ENDBRANCH  17  18
ENDBRANCH  16  17
BRANCH  16  21
HETATM   21  C   UNK N   1      30.876  22.586  -2.446  0.00  0.00     0.163 C 
HETATM   22  O   UNK N   1      30.424  23.146  -1.459  0.00  0.00    -0.648 OA
BRANCH  21  23
HETATM   23  O   UNK N   1      31.996  21.845  -2.327  0.00  0.00    -0.775 OA
HETATM   24  H   UNK N   1      32.930  21.916  -2.329  0.00  0.00     0.167 HD
ENDBRANCH  21  23
ENDBRANCH  16  21
ENDBRANCH  14  16
BRANCH  13  25
HETATM   25  O   UNK N   1      29.163  25.130  -5.105  0.00  0.00    -0.348 OA
HETATM   26  H   UNK N   1      28.961  25.992  -5.413  0.00  0.00     0.219 HD
ENDBRANCH  13  25
ENDBRANCH   1  13
BRANCH   1  27
HETATM   27  O   UNK N   1      26.370  24.240  -2.991  0.00  0.00    -0.385 OA
HETATM   28  H   UNK N   1      25.851  23.420  -3.023  0.00  0.00     0.210 HD
ENDBRANCH   1  27
TORSDOF 12
ENDMDL
MODEL 3
REMARK VINA RESULT:      -6.3      1.591      1.934
REMARK  12 active torsions:
REMARK  status: ('A' for Active; 'I' for Inactive)
REMARK    1  A    between atoms: C_10  and  C_8 
REMARK    2  A    between atoms: C_13  and  C_8 
REMARK    3  A    between atoms: C_11  and  C_9 
REMARK    4  A    between atoms: C_12  and  C_9 
REMARK    5  A    between atoms: C_14  and  C_12 
REMARK    6  A    between atoms: C_12  and  N_17 
REMARK    7  A    between atoms: C_16  and  C_13 
REMARK    8  A    between atoms: C_13  and  N_18 
REMARK    9  A    between atoms: C_15  and  C_14 
REMARK   10  A    between atoms: C_14  and  O_20 
REMARK   11  A    between atoms: C_15  and  O_21 
REMARK   12  A    between atoms: O_23  and  C_16 
ROOT
HETATM    1  C   UNK N   1      36.012  14.757  10.911  0.00  0.00     0.214 C 
ENDROOT
BRANCH   1   2
HETATM    2  C   UNK N   1      35.781  14.232  12.351  0.00  0.00     0.115 C 
BRANCH   2   3
HETATM    3  C   UNK N   1      36.367  12.808  12.455  0.00  0.00     0.066 C 
BRANCH   3   4
HETATM    4  C   UNK N   1      35.776  11.932  13.527  0.00  0.00    -0.056 A 
HETATM    5  C   UNK N   1      36.582  11.452  14.563  0.00  0.00     0.007 A 
HETATM    6  C   UNK N   1      36.021  10.674  15.584  0.00  0.00     0.001 A 
HETATM    7  C   UNK N   1      34.655  10.374  15.571  0.00  0.00     0.000 A 
HETATM    8  C   UNK N   1      33.844  10.862  14.546  0.00  0.00     0.001 A 
HETATM    9  C   UNK N   1      34.400  11.649  13.536  0.00  0.00     0.007 A 
ENDBRANCH   3   4
ENDBRANCH   2   3
BRANCH   2  10
HETATM   10  N   UNK N   1      36.429  15.109  13.317  0.00  0.00    -0.423 N 
HETATM   11  H   UNK N   1      36.686  16.060  13.053  0.00  0.00     0.150 HD
HETATM   12  H   UNK N   1      36.626  14.771  14.259  0.00  0.00     0.150 HD
ENDBRANCH   2  10
ENDBRANCH   1   2
BRANCH   1  13
HETATM   13  C   UNK N   1      35.161  15.961  10.568  0.00  0.00     0.143 C 
HETATM   14  N   UNK N   1      34.568  16.059   9.417  0.00  0.00    -0.358 N 
ATOM     15  HN  UNK N   1      34.675  15.261   8.789  1.00  0.00     0.162 HD
BRANCH  14  16
HETATM   16  C   UNK N   1      33.763  17.175   8.908  0.00  0.00     0.181 C 
BRANCH  16  17
HETATM   17  C   UNK N   1      32.489  16.573   8.295  0.00  0.00     0.040 C 
BRANCH  17  18
HETATM   18  C   UNK N   1      31.386  17.575   7.938  0.00  0.00    -0.020 C 
HETATM   19  C   UNK N   1      30.723  17.140   6.649  0.00  0.00     0.009 C 
HETATM   20  C   UNK N   1      30.330  17.702   9.021  0.00  0.00     0.009 C 
ENDBRANCH  17  18
ENDBRANCH  16  17
BRANCH  16  21
HETATM   21  C   UNK N   1      34.479  18.123   7.954  0.00  0.00     0.163 C 
HETATM   22  O   UNK N   1      35.034  19.120   8.393  0.00  0.00    -0.648 OA
BRANCH  21  23
HETATM   23  O   UNK N   1      34.495  17.892   6.626  0.00  0.00    -0.775 OA
HETATM   24  H   UNK N   1      34.322  18.306   5.804  0.00  0.00     0.167 HD
ENDBRANCH  21  23
ENDBRANCH  16  21
ENDBRANCH  14  16
BRANCH  13  25
HETATM   25  O   UNK N   1      35.099  16.956  11.475  0.00  0.00    -0.348 OA
HETATM   26  H   UNK N   1      34.319  17.389  11.762  0.00  0.00     0.219 HD
ENDBRANCH  13  25
ENDBRANCH   1  13
BRANCH   1  27
HETATM   27  O   UNK N   1      35.830  13.718   9.994  0.00  0.00    -0.385 OA
HETATM   28  H   UNK N   1      35.371  12.891  10.215  0.00  0.00     0.210 HD
ENDBRANCH   1  27
TORSDOF 12
ENDMDL
MODEL 4
REMARK VINA RESULT:      -6.3      2.160      3.611
REMARK  12 active torsions:
REMARK  status: ('A' for Active; 'I' for Inactive)
REMARK    1  A    between atoms: C_10  and  C_8 
REMARK    2  A    between atoms: C_13  and  C_8 
REMARK    3  A    between atoms: C_11  and  C_9 
REMARK    4  A    between atoms: C_12  and  C_9 
REMARK    5  A    between atoms: C_14  and  C_12 
REMARK    6  A    between atoms: C_12  and  N_17 
REMARK    7  A    between atoms: C_16  and  C_13 
REMARK    8  A    between atoms: C_13  and  N_18 
REMARK    9  A    between atoms: C_15  and  C_14 
REMARK   10  A    between atoms: C_14  and  O_20 
REMARK   11  A    between atoms: C_15  and  O_21 
REMARK   12  A    between atoms: O_23  and  C_16 
ROOT
HETATM    1  C   UNK N   1      35.534  12.740  13.259  0.00  0.00     0.214 C 
ENDROOT
BRANCH   1   2
HETATM    2  C   UNK N   1      36.355  12.694  14.572  0.00  0.00     0.115 C 
BRANCH   2   3
HETATM    3  C   UNK N   1      35.788  11.572  15.467  0.00  0.00     0.066 C 
BRANCH   3   4
HETATM    4  C   UNK N   1      35.557  11.938  16.909  0.00  0.00    -0.056 A 
HETATM    5  C   UNK N   1      35.669  10.964  17.906  0.00  0.00     0.007 A 
HETATM    6  C   UNK N   1      35.498  11.315  19.251  0.00  0.00     0.001 A 
HETATM    7  C   UNK N   1      35.213  12.639  19.602  0.00  0.00     0.000 A 
HETATM    8  C   UNK N   1      35.113  13.617  18.612  0.00  0.00     0.001 A 
HETATM    9  C   UNK N   1      35.298  13.270  17.273  0.00  0.00     0.007 A 
ENDBRANCH   3   4
ENDBRANCH   2   3
BRANCH   2  10
HETATM   10  N   UNK N   1      37.759  12.436  14.279  0.00  0.00    -0.423 N 
HETATM   11  H   UNK N   1      38.026  11.618  13.731  0.00  0.00     0.150 HD
HETATM   12  H   UNK N   1      38.476  13.074  14.624  0.00  0.00     0.150 HD
ENDBRANCH   2  10
ENDBRANCH   1   2
BRANCH   1  13
HETATM   13  C   UNK N   1      35.478  14.118  12.634  0.00  0.00     0.143 C 
HETATM   14  N   UNK N   1      34.774  14.344  11.566  0.00  0.00    -0.358 N 
ATOM     15  HN  UNK N   1      34.235  13.553  11.211  1.00  0.00     0.162 HD
BRANCH  14  16
HETATM   16  C   UNK N   1      34.660  15.595  10.809  0.00  0.00     0.181 C 
BRANCH  16  17
HETATM   17  C   UNK N   1      34.004  15.251   9.462  0.00  0.00     0.040 C 
BRANCH  17  18
HETATM   18  C   UNK N   1      33.198  16.378   8.808  0.00  0.00    -0.020 C 
HETATM   19  C   UNK N   1      33.931  16.858   7.574  0.00  0.00     0.009 C 
HETATM   20  C   UNK N   1      31.794  15.951   8.417  0.00  0.00     0.009 C 
ENDBRANCH  17  18
ENDBRANCH  16  17
BRANCH  16  21
HETATM   21  C   UNK N   1      35.951  16.386  10.645  0.00  0.00     0.163 C 
HETATM   22  O   UNK N   1      35.904  17.596  10.481  0.00  0.00    -0.648 OA
BRANCH  21  23
HETATM   23  O   UNK N   1      37.150  15.770  10.657  0.00  0.00    -0.775 OA
HETATM   24  H   UNK N   1      38.012  15.841  11.017  0.00  0.00     0.167 HD
ENDBRANCH  21  23
ENDBRANCH  16  21
ENDBRANCH  14  16
BRANCH  13  25
HETATM   25  O   UNK N   1      36.238  15.082  13.189  0.00  0.00    -0.348 OA
HETATM   26  H   UNK N   1      35.921  15.847  13.628  0.00  0.00     0.219 HD
ENDBRANCH  13  25
ENDBRANCH   1  13
BRANCH   1  27
HETATM   27  O   UNK N   1      34.255  12.221  13.482  0.00  0.00    -0.385 OA
HETATM   28  H   UNK N   1      33.864  11.522  12.933  0.00  0.00     0.210 HD
ENDBRANCH   1  27
TORSDOF 12
ENDMDL
MODEL 5
REMARK VINA RESULT:      -6.1     16.066     19.732
REMARK  12 active torsions:
REMARK  status: ('A' for Active; 'I' for Inactive)
REMARK    1  A    between atoms: C_10  and  C_8 
REMARK    2  A    between atoms: C_13  and  C_8 
REMARK    3  A    between atoms: C_11  and  C_9 
REMARK    4  A    between atoms: C_12  and  C_9 
REMARK    5  A    between atoms: C_14  and  C_12 
REMARK    6  A    between atoms: C_12  and  N_17 
REMARK    7  A    between atoms: C_16  and  C_13 
REMARK    8  A    between atoms: C_13  and  N_18 
REMARK    9  A    between atoms: C_15  and  C_14 
REMARK   10  A    between atoms: C_14  and  O_20 
REMARK   11  A    between atoms: C_15  and  O_21 
REMARK   12  A    between atoms: O_23  and  C_16 
ROOT
HETATM    1  C   UNK N   1      27.338  24.870  -3.792  0.00  0.00     0.214 C 
ENDROOT
BRANCH   1   2
HETATM    2  C   UNK N   1      26.707  24.994  -5.202  0.00  0.00     0.115 C 
BRANCH   2   3
HETATM    3  C   UNK N   1      25.717  23.826  -5.402  0.00  0.00     0.066 C 
BRANCH   3   4
HETATM    4  C   UNK N   1      26.058  22.859  -6.503  0.00  0.00    -0.056 A 
HETATM    5  C   UNK N   1      27.372  22.765  -6.971  0.00  0.00     0.007 A 
HETATM    6  C   UNK N   1      27.697  21.833  -7.965  0.00  0.00     0.001 A 
HETATM    7  C   UNK N   1      26.710  20.994  -8.493  0.00  0.00     0.000 A 
HETATM    8  C   UNK N   1      25.399  21.075  -8.020  0.00  0.00     0.001 A 
HETATM    9  C   UNK N   1      25.079  21.994  -7.020  0.00  0.00     0.007 A 
ENDBRANCH   3   4
ENDBRANCH   2   3
BRANCH   2  10
HETATM   10  N   UNK N   1      26.009  26.266  -5.332  0.00  0.00    -0.423 N 
HETATM   11  H   UNK N   1      25.024  26.337  -5.080  0.00  0.00     0.150 HD
HETATM   12  H   UNK N   1      26.509  27.087  -5.674  0.00  0.00     0.150 HD
ENDBRANCH   2  10
ENDBRANCH   1   2
BRANCH   1  13
HETATM   13  C   UNK N   1      28.779  24.405  -3.819  0.00  0.00     0.143 C 
HETATM   14  N   UNK N   1      29.076  23.143  -3.901  0.00  0.00    -0.358 N 
ATOM     15  HN  UNK N   1      28.288  22.502  -3.992  1.00  0.00     0.162 HD
BRANCH  14  16
HETATM   16  C   UNK N   1      30.408  22.528  -3.880  0.00  0.00     0.181 C 
BRANCH  16  17
HETATM   17  C   UNK N   1      30.302  21.193  -4.634  0.00  0.00     0.040 C 
BRANCH  17  18
HETATM   18  C   UNK N   1      30.853  21.192  -6.064  0.00  0.00    -0.020 C 
HETATM   19  C   UNK N   1      32.349  21.416  -6.018  0.00  0.00     0.009 C 
HETATM   20  C   UNK N   1      30.566  19.899  -6.807  0.00  0.00     0.009 C 
ENDBRANCH  17  18
ENDBRANCH  16  17
BRANCH  16  21
HETATM   21  C   UNK N   1      31.039  22.372  -2.502  0.00  0.00     0.163 C 
HETATM   22  O   UNK N   1      30.653  23.069  -1.576  0.00  0.00    -0.648 OA
BRANCH  21  23
HETATM   23  O   UNK N   1      32.035  21.488  -2.290  0.00  0.00    -0.775 OA
HETATM   24  H   UNK N   1      32.964  21.393  -2.361  0.00  0.00     0.167 HD
ENDBRANCH  21  23
ENDBRANCH  16  21
ENDBRANCH  14  16
BRANCH  13  25
HETATM   25  O   UNK N   1      29.736  25.344  -3.685  0.00  0.00    -0.348 OA
HETATM   26  H   UNK N   1      30.644  25.234  -3.891  0.00  0.00     0.219 HD
ENDBRANCH  13  25
ENDBRANCH   1  13
BRANCH   1  27
HETATM   27  O   UNK N   1      26.544  24.045  -2.989  0.00  0.00    -0.385 OA
HETATM   28  H   UNK N   1      26.790  23.792  -2.084  0.00  0.00     0.210 HD
ENDBRANCH   1  27
TORSDOF 12
ENDMDL
MODEL 6
REMARK VINA RESULT:      -6.1      2.991      5.022
REMARK  12 active torsions:
REMARK  status: ('A' for Active; 'I' for Inactive)
REMARK    1  A    between atoms: C_10  and  C_8 
REMARK    2  A    between atoms: C_13  and  C_8 
REMARK    3  A    between atoms: C_11  and  C_9 
REMARK    4  A    between atoms: C_12  and  C_9 
REMARK    5  A    between atoms: C_14  and  C_12 
REMARK    6  A    between atoms: C_12  and  N_17 
REMARK    7  A    between atoms: C_16  and  C_13 
REMARK    8  A    between atoms: C_13  and  N_18 
REMARK    9  A    between atoms: C_15  and  C_14 
REMARK   10  A    between atoms: C_14  and  O_20 
REMARK   11  A    between atoms: C_15  and  O_21 
REMARK   12  A    between atoms: O_23  and  C_16 
ROOT
HETATM    1  C   UNK N   1      36.237  14.227  14.411  0.00  0.00     0.214 C 
ENDROOT
BRANCH   1   2
HETATM    2  C   UNK N   1      36.838  12.901  14.941  0.00  0.00     0.115 C 
BRANCH   2   3
HETATM    3  C   UNK N   1      35.691  12.025  15.490  0.00  0.00     0.066 C 
BRANCH   3   4
HETATM    4  C   UNK N   1      35.558  11.983  16.988  0.00  0.00    -0.056 A 
HETATM    5  C   UNK N   1      35.860  10.809  17.685  0.00  0.00     0.007 A 
HETATM    6  C   UNK N   1      35.778  10.783  19.084  0.00  0.00     0.001 A 
HETATM    7  C   UNK N   1      35.394  11.930  19.787  0.00  0.00     0.000 A 
HETATM    8  C   UNK N   1      35.104  13.107  19.097  0.00  0.00     0.001 A 
HETATM    9  C   UNK N   1      35.199  13.136  17.705  0.00  0.00     0.007 A 
ENDBRANCH   3   4
ENDBRANCH   2   3
BRANCH   2  10
HETATM   10  N   UNK N   1      37.533  12.199  13.871  0.00  0.00    -0.423 N 
HETATM   11  H   UNK N   1      37.556  11.179  13.858  0.00  0.00     0.150 HD
HETATM   12  H   UNK N   1      37.998  12.728  13.133  0.00  0.00     0.150 HD
ENDBRANCH   2  10
ENDBRANCH   1   2
BRANCH   1  13
HETATM   13  C   UNK N   1      35.783  14.144  12.968  0.00  0.00     0.143 C 
HETATM   14  N   UNK N   1      36.406  14.793  12.030  0.00  0.00    -0.358 N 
ATOM     15  HN  UNK N   1      37.234  15.314  12.320  1.00  0.00     0.162 HD
BRANCH  14  16
HETATM   16  C   UNK N   1      36.063  14.867  10.606  0.00  0.00     0.181 C 
BRANCH  16  17
HETATM   17  C   UNK N   1      37.349  14.577   9.815  0.00  0.00     0.040 C 
BRANCH  17  18
HETATM   18  C   UNK N   1      37.449  13.177   9.199  0.00  0.00    -0.020 C 
HETATM   19  C   UNK N   1      38.672  12.480   9.754  0.00  0.00     0.009 C 
HETATM   20  C   UNK N   1      36.224  12.323   9.471  0.00  0.00     0.009 C 
ENDBRANCH  17  18
ENDBRANCH  16  17
BRANCH  16  21
HETATM   21  C   UNK N   1      35.380  16.153  10.158  0.00  0.00     0.163 C 
HETATM   22  O   UNK N   1      34.383  16.096   9.455  0.00  0.00    -0.648 OA
BRANCH  21  23
HETATM   23  O   UNK N   1      35.870  17.359  10.510  0.00  0.00    -0.775 OA
HETATM   24  H   UNK N   1      36.627  17.768  10.881  0.00  0.00     0.167 HD
ENDBRANCH  21  23
ENDBRANCH  16  21
ENDBRANCH  14  16
BRANCH  13  25
HETATM   25  O   UNK N   1      34.671  13.430  12.707  0.00  0.00    -0.348 OA
HETATM   26  H   UNK N   1      33.939  13.326  13.282  0.00  0.00     0.219 HD
ENDBRANCH  13  25
ENDBRANCH   1  13
BRANCH   1  27
HETATM   27  O   UNK N   1      37.146  15.271  14.608  0.00  0.00    -0.385 OA
HETATM   28  H   UNK N   1      36.983  16.004  15.223  0.00  0.00     0.210 HD
ENDBRANCH   1  27
TORSDOF 12
ENDMDL
MODEL 7
REMARK VINA RESULT:      -6.0      2.103      8.313
REMARK  12 active torsions:
REMARK  status: ('A' for Active; 'I' for Inactive)
REMARK    1  A    between atoms: C_10  and  C_8 
REMARK    2  A    between atoms: C_13  and  C_8 
REMARK    3  A    between atoms: C_11  and  C_9 
REMARK    4  A    between atoms: C_12  and  C_9 
REMARK    5  A    between atoms: C_14  and  C_12 
REMARK    6  A    between atoms: C_12  and  N_17 
REMARK    7  A    between atoms: C_16  and  C_13 
REMARK    8  A    between atoms: C_13  and  N_18 
REMARK    9  A    between atoms: C_15  and  C_14 
REMARK   10  A    between atoms: C_14  and  O_20 
REMARK   11  A    between atoms: C_15  and  O_21 
REMARK   12  A    between atoms: O_23  and  C_16 
ROOT
HETATM    1  C   UNK N   1      34.942  16.321   9.527  0.00  0.00     0.214 C 
ENDROOT
BRANCH   1   2
HETATM    2  C   UNK N   1      33.662  16.326   8.654  0.00  0.00     0.115 C 
BRANCH   2   3
HETATM    3  C   UNK N   1      33.791  17.444   7.598  0.00  0.00     0.066 C 
BRANCH   3   4
HETATM    4  C   UNK N   1      32.832  17.367   6.440  0.00  0.00    -0.056 A 
HETATM    5  C   UNK N   1      31.461  17.226   6.675  0.00  0.00     0.007 A 
HETATM    6  C   UNK N   1      30.565  17.198   5.598  0.00  0.00     0.001 A 
HETATM    7  C   UNK N   1      31.038  17.311   4.287  0.00  0.00     0.000 A 
HETATM    8  C   UNK N   1      32.404  17.465   4.048  0.00  0.00     0.001 A 
HETATM    9  C   UNK N   1      33.295  17.506   5.121  0.00  0.00     0.007 A 
ENDBRANCH   3   4
ENDBRANCH   2   3
BRANCH   2  10
HETATM   10  N   UNK N   1      33.495  15.037   7.997  0.00  0.00    -0.423 N 
HETATM   11  H   UNK N   1      33.477  14.180   8.549  0.00  0.00     0.150 HD
HETATM   12  H   UNK N   1      33.396  14.992   6.982  0.00  0.00     0.150 HD
ENDBRANCH   2  10
ENDBRANCH   1   2
BRANCH   1  13
HETATM   13  C   UNK N   1      34.857  15.382  10.711  0.00  0.00     0.143 C 
HETATM   14  N   UNK N   1      35.925  14.847  11.223  0.00  0.00    -0.358 N 
ATOM     15  HN  UNK N   1      36.812  15.135  10.808  1.00  0.00     0.162 HD
BRANCH  14  16
HETATM   16  C   UNK N   1      36.011  13.880  12.323  0.00  0.00     0.181 C 
BRANCH  16  17
HETATM   17  C   UNK N   1      36.293  14.678  13.606  0.00  0.00     0.040 C 
BRANCH  17  18
HETATM   18  C   UNK N   1      36.600  13.843  14.854  0.00  0.00    -0.020 C 
HETATM   19  C   UNK N   1      37.199  14.741  15.914  0.00  0.00     0.009 C 
HETATM   20  C   UNK N   1      35.371  13.154  15.421  0.00  0.00     0.009 C 
ENDBRANCH  17  18
ENDBRANCH  16  17
BRANCH  16  21
HETATM   21  C   UNK N   1      36.995  12.735  12.118  0.00  0.00     0.163 C 
HETATM   22  O   UNK N   1      36.640  11.586  12.334  0.00  0.00    -0.648 OA
BRANCH  21  23
HETATM   23  O   UNK N   1      38.262  12.969  11.721  0.00  0.00    -0.775 OA
HETATM   24  H   UNK N   1      38.780  13.577  11.232  0.00  0.00     0.167 HD
ENDBRANCH  21  23
ENDBRANCH  16  21
ENDBRANCH  14  16
BRANCH  13  25
HETATM   25  O   UNK N   1      33.629  15.069  11.169  0.00  0.00    -0.348 OA
HETATM   26  H   UNK N   1      32.935  14.693  10.664  0.00  0.00     0.219 HD
ENDBRANCH  13  25
ENDBRANCH   1  13
BRANCH   1  27
HETATM   27  O   UNK N   1      35.251  17.626   9.923  0.00  0.00    -0.385 OA
HETATM   28  H   UNK N   1      36.128  17.888  10.246  0.00  0.00     0.210 HD
ENDBRANCH   1  27
TORSDOF 12
ENDMDL
MODEL 8
REMARK VINA RESULT:      -6.0      2.168      3.122
REMARK  12 active torsions:
REMARK  status: ('A' for Active; 'I' for Inactive)
REMARK    1  A    between atoms: C_10  and  C_8 
REMARK    2  A    between atoms: C_13  and  C_8 
REMARK    3  A    between atoms: C_11  and  C_9 
REMARK    4  A    between atoms: C_12  and  C_9 
REMARK    5  A    between atoms: C_14  and  C_12 
REMARK    6  A    between atoms: C_12  and  N_17 
REMARK    7  A    between atoms: C_16  and  C_13 
REMARK    8  A    between atoms: C_13  and  N_18 
REMARK    9  A    between atoms: C_15  and  C_14 
REMARK   10  A    between atoms: C_14  and  O_20 
REMARK   11  A    between atoms: C_15  and  O_21 
REMARK   12  A    between atoms: O_23  and  C_16 
ROOT
HETATM    1  C   UNK N   1      36.342  15.285  11.694  0.00  0.00     0.214 C 
ENDROOT
BRANCH   1   2
HETATM    2  C   UNK N   1      35.953  14.510  12.978  0.00  0.00     0.115 C 
BRANCH   2   3
HETATM    3  C   UNK N   1      36.217  13.007  12.744  0.00  0.00     0.066 C 
BRANCH   3   4
HETATM    4  C   UNK N   1      35.655  12.074  13.783  0.00  0.00    -0.056 A 
HETATM    5  C   UNK N   1      34.323  11.656  13.702  0.00  0.00     0.007 A 
HETATM    6  C   UNK N   1      33.814  10.753  14.644  0.00  0.00     0.001 A 
HETATM    7  C   UNK N   1      34.634  10.266  15.667  0.00  0.00     0.000 A 
HETATM    8  C   UNK N   1      35.967  10.670  15.744  0.00  0.00     0.001 A 
HETATM    9  C   UNK N   1      36.478  11.559  14.798  0.00  0.00     0.007 A 
ENDBRANCH   3   4
ENDBRANCH   2   3
BRANCH   2  10
HETATM   10  N   UNK N   1      36.738  14.984  14.110  0.00  0.00    -0.423 N 
HETATM   11  H   UNK N   1      36.296  15.114  15.020  0.00  0.00     0.150 HD
HETATM   12  H   UNK N   1      37.731  15.185  13.992  0.00  0.00     0.150 HD
ENDBRANCH   2  10
ENDBRANCH   1   2
BRANCH   1  13
HETATM   13  C   UNK N   1      35.151  15.674  10.844  0.00  0.00     0.143 C 
HETATM   14  N   UNK N   1      35.303  16.349   9.744  0.00  0.00    -0.358 N 
ATOM     15  HN  UNK N   1      36.265  16.555   9.474  1.00  0.00     0.162 HD
BRANCH  14  16
HETATM   16  C   UNK N   1      34.259  16.852   8.844  0.00  0.00     0.181 C 
BRANCH  16  17
HETATM   17  C   UNK N   1      33.857  15.689   7.923  0.00  0.00     0.040 C 
BRANCH  17  18
HETATM   18  C   UNK N   1      35.010  14.825   7.401  0.00  0.00    -0.020 C 
HETATM   19  C   UNK N   1      34.711  13.371   7.696  0.00  0.00     0.009 C 
HETATM   20  C   UNK N   1      35.244  14.991   5.910  0.00  0.00     0.009 C 
ENDBRANCH  17  18
ENDBRANCH  16  17
BRANCH  16  21
HETATM   21  C   UNK N   1      34.610  18.116   8.069  0.00  0.00     0.163 C 
HETATM   22  O   UNK N   1      34.289  18.215   6.894  0.00  0.00    -0.648 OA
BRANCH  21  23
HETATM   23  O   UNK N   1      35.289  19.124   8.653  0.00  0.00    -0.775 OA
HETATM   24  H   UNK N   1      35.181  19.998   8.972  0.00  0.00     0.167 HD
ENDBRANCH  21  23
ENDBRANCH  16  21
ENDBRANCH  14  16
BRANCH  13  25
HETATM   25  O   UNK N   1      33.927  15.353  11.306  0.00  0.00    -0.348 OA
HETATM   26  H   UNK N   1      33.405  14.630  11.020  0.00  0.00     0.219 HD
ENDBRANCH  13  25
ENDBRANCH   1  13
BRANCH   1  27
HETATM   27  O   UNK N   1      37.281  14.550  10.963  0.00  0.00    -0.385 OA
HETATM   28  H   UNK N   1      38.083  14.173  11.360  0.00  0.00     0.210 HD
ENDBRANCH   1  27
TORSDOF 12
ENDMDL
MODEL 9
REMARK VINA RESULT:      -5.9      1.739      2.351
REMARK  12 active torsions:
REMARK  status: ('A' for Active; 'I' for Inactive)
REMARK    1  A    between atoms: C_10  and  C_8 
REMARK    2  A    between atoms: C_13  and  C_8 
REMARK    3  A    between atoms: C_11  and  C_9 
REMARK    4  A    between atoms: C_12  and  C_9 
REMARK    5  A    between atoms: C_14  and  C_12 
REMARK    6  A    between atoms: C_12  and  N_17 
REMARK    7  A    between atoms: C_16  and  C_13 
REMARK    8  A    between atoms: C_13  and  N_18 
REMARK    9  A    between atoms: C_15  and  C_14 
REMARK   10  A    between atoms: C_14  and  O_20 
REMARK   11  A    between atoms: C_15  and  O_21 
REMARK   12  A    between atoms: O_23  and  C_16 
ROOT
HETATM    1  C   UNK N   1      35.673  16.048  10.983  0.00  0.00     0.214 C 
ENDROOT
BRANCH   1   2
HETATM    2  C   UNK N   1      35.142  14.603  11.152  0.00  0.00     0.115 C 
BRANCH   2   3
HETATM    3  C   UNK N   1      35.855  13.954  12.357  0.00  0.00     0.066 C 
BRANCH   3   4
HETATM    4  C   UNK N   1      35.137  12.796  12.999  0.00  0.00    -0.056 A 
HETATM    5  C   UNK N   1      34.848  11.651  12.251  0.00  0.00     0.007 A 
HETATM    6  C   UNK N   1      34.219  10.557  12.860  0.00  0.00     0.001 A 
HETATM    7  C   UNK N   1      33.879  10.606  14.216  0.00  0.00     0.000 A 
HETATM    8  C   UNK N   1      34.177  11.742  14.969  0.00  0.00     0.001 A 
HETATM    9  C   UNK N   1      34.816  12.826  14.366  0.00  0.00     0.007 A 
ENDBRANCH   3   4
ENDBRANCH   2   3
BRANCH   2  10
HETATM   10  N   UNK N   1      33.702  14.618  11.374  0.00  0.00    -0.423 N 
HETATM   11  H   UNK N   1      33.075  14.952  10.642  0.00  0.00     0.150 HD
HETATM   12  H   UNK N   1      33.321  14.293  12.262  0.00  0.00     0.150 HD
ENDBRANCH   2  10
ENDBRANCH   1   2
BRANCH   1  13
HETATM   13  C   UNK N   1      35.001  16.807   9.859  0.00  0.00     0.143 C 
HETATM   14  N   UNK N   1      34.118  16.236   9.096  0.00  0.00    -0.358 N 
ATOM     15  HN  UNK N   1      33.879  15.272   9.333  1.00  0.00     0.162 HD
BRANCH  14  16
HETATM   16  C   UNK N   1      33.423  16.806   7.937  0.00  0.00     0.181 C 
BRANCH  16  17
HETATM   17  C   UNK N   1      32.144  15.981   7.725  0.00  0.00     0.040 C 
BRANCH  17  18
HETATM   18  C   UNK N   1      30.835  16.778   7.698  0.00  0.00    -0.020 C 
HETATM   19  C   UNK N   1      30.970  17.980   8.608  0.00  0.00     0.009 C 
HETATM   20  C   UNK N   1      30.459  17.249   6.305  0.00  0.00     0.009 C 
ENDBRANCH  17  18
ENDBRANCH  16  17
BRANCH  16  21
HETATM   21  C   UNK N   1      34.255  16.932   6.667  0.00  0.00     0.163 C 
HETATM   22  O   UNK N   1      34.114  17.909   5.945  0.00  0.00    -0.648 OA
BRANCH  21  23
HETATM   23  O   UNK N   1      35.133  15.973   6.312  0.00  0.00    -0.775 OA
HETATM   24  H   UNK N   1      35.933  15.843   5.844  0.00  0.00     0.167 HD
ENDBRANCH  21  23
ENDBRANCH  16  21
ENDBRANCH  14  16
BRANCH  13  25
HETATM   25  O   UNK N   1      35.404  18.073   9.636  0.00  0.00    -0.348 OA
HETATM   26  H   UNK N   1      35.445  18.497   8.802  0.00  0.00     0.219 HD
ENDBRANCH  13  25
ENDBRANCH   1  13
BRANCH   1  27
HETATM   27  O   UNK N   1      37.064  16.027  10.835  0.00  0.00    -0.385 OA
HETATM   28  H   UNK N   1      37.555  16.716  10.359  0.00  0.00     0.210 HD
ENDBRANCH   1  27
TORSDOF 12
ENDMDL
