REMARK  4 active torsions:
REMARK  status: ('A' for Active; 'I' for Inactive)
REMARK    1  A    between atoms: O_7  and  C_1 
REMARK    2  A    between atoms: C_6  and  C_4 
REMARK    3  A    between atoms: C_14  and  O_7 
REMARK    4  A    between atoms: O_15  and  C_9 
ROOT
HETATM    1  C   UNK N   1      -1.240  -0.284   0.057  0.00  0.00     0.103 A 
HETATM    2  C   UNK N   1       0.307   1.597  -0.107  0.00  0.00    -0.049 A 
HETATM    3  C   UNK N   1       0.061   0.229  -0.033  0.00  0.00     0.047 A 
HETATM    4  C   UNK N   1      -2.337   0.621   0.071  0.00  0.00     0.101 A 
HETATM    5  C   UNK N   1      -0.772   2.488  -0.068  0.00  0.00     0.010 A 
HETATM    6  C   UNK N   1      -2.080   2.000   0.023  0.00  0.00     0.040 A 
ENDROOT
BRANCH   2   7
HETATM    7  C   UNK N   1       1.728   2.055  -0.293  0.00  0.00     0.045 C 
HETATM    8  C   UNK N   1       1.955   3.572  -0.402  0.00  0.00     0.113 C 
HETATM    9  C   UNK N   1       3.316   3.665   0.176  0.00  0.00     0.218 C 
HETATM   10  O   UNK N   1       4.026   4.649   0.081  0.00  0.00    -0.274 OA
HETATM   11  N   UNK N   1       3.698   2.571   0.838  0.00  0.00    -0.360 N 
HETATM   12  C   UNK N   1       2.676   1.570   0.818  0.00  0.00     0.132 C 
HETATM   13  H   UNK N   1       4.571   2.466   1.282  0.00  0.00     0.162 HD
ENDBRANCH   2   7
BRANCH   1  14
HETATM   14  O   UNK N   1      -1.435  -1.629   0.124  0.00  0.00    -0.343 OA
BRANCH  14  15
HETATM   15  C   UNK N   1      -0.427  -2.549   0.369  0.00  0.00     0.129 C 
HETATM   16  C   UNK N   1       0.638  -2.584  -0.705  0.00  0.00     0.032 C 
HETATM   17  C   UNK N   1       1.324  -3.912  -0.473  0.00  0.00     0.002 C 
HETATM   18  C   UNK N   1       0.263  -4.823   0.132  0.00  0.00     0.002 C 
HETATM   19  C   UNK N   1      -0.962  -3.957   0.376  0.00  0.00     0.032 C 
ENDBRANCH  14  15
ENDBRANCH   1  14
BRANCH   4  20
HETATM   20  O   UNK N   1      -3.636   0.224   0.135  0.00  0.00    -0.353 OA
HETATM   21  C   UNK N   1      -4.074  -1.080   0.125  0.00  0.00     0.210 C 
ENDBRANCH   4  20
TORSDOF 4
