REMARK  4 active torsions:
REMARK  status: ('A' for Active; 'I' for Inactive)
REMARK    1  A    between atoms: C_4  and  C_2 
REMARK    2  A    between atoms: O_11  and  C_2 
REMARK    3  A    between atoms: C_6  and  O_12 
REMARK    4  A    between atoms: C_7  and  O_13 
ROOT
HETATM    1  C   UNK N   1      -1.875   1.744  -0.794  0.00  0.00     0.076 C 
HETATM    2  C   UNK N   1      -0.471   1.466  -0.384  0.00  0.00     0.041 C 
HETATM    3  C   UNK N   1       3.943   0.676   0.565  0.00  0.00     0.178 C 
HETATM    4  C   UNK N   1       1.543   1.918   0.633  0.00  0.00     0.152 C 
HETATM    5  C   UNK N   1       3.994   2.139   0.053  0.00  0.00     0.180 C 
HETATM    6  C   UNK N   1       2.566   2.670  -0.237  0.00  0.00     0.175 C 
HETATM    7  C   UNK N   1       1.643   0.382   0.359  0.00  0.00     0.214 C 
HETATM    8  N   UNK N   1       0.199   2.309   0.304  0.00  0.00    -0.378 N 
ATOM      9  HN  UNK N   1      -0.195   3.201   0.601  1.00  0.00     0.160 HD
HETATM   10  O   UNK N   1       2.927  -0.043  -0.104  0.00  0.00    -0.363 OA
HETATM   11  S   UNK N   1       0.379  -0.019  -0.894  0.00  0.00    -0.083 SA
ENDROOT
BRANCH   3  12
HETATM   12  C   UNK N   1       5.286  -0.035   0.430  0.00  0.00     0.198 C 
BRANCH  12  13
HETATM   13  O   UNK N   1       5.628  -0.198  -0.914  0.00  0.00    -0.398 OA
HETATM   14  H   UNK N   1       5.648  -0.460  -1.848  0.00  0.00     0.209 HD
ENDBRANCH  12  13
ENDBRANCH   3  12
BRANCH   5  15
HETATM   15  O   UNK N   1       4.624   2.925   1.022  0.00  0.00    -0.390 OA
HETATM   16  H   UNK N   1       5.316   2.819   1.694  0.00  0.00     0.210 HD
ENDBRANCH   5  15
BRANCH   6  17
HETATM   17  O   UNK N   1       2.264   2.444  -1.585  0.00  0.00    -0.391 OA
HETATM   18  H   UNK N   1       2.024   2.546  -2.519  0.00  0.00     0.210 HD
ENDBRANCH   6  17
TORSDOF 4
