MODEL 1
REMARK VINA RESULT:      -5.1      0.000      0.000
REMARK  11 active torsions:
REMARK  status: ('A' for Active; 'I' for Inactive)
REMARK    1  A    between atoms: C_1  and  N_2 
REMARK    2  A    between atoms: C_1  and  C_3 
REMARK    3  A    between atoms: C_1  and  C_4 
REMARK       I    between atoms: N_2  and  C_5 
REMARK    4  A    between atoms: C_3  and  C_6 
REMARK    5  A    between atoms: C_4  and  O_7 
REMARK    6  A    between atoms: C_5  and  C_9 
REMARK    7  A    between atoms: C_6  and  C_11 
REMARK    8  A    between atoms: C_9  and  C_12 
REMARK    9  A    between atoms: C_11  and  N_13 
REMARK   10  A    between atoms: C_12  and  C_14 
REMARK   11  A    between atoms: C_14  and  O_15 
ROOT
HETATM    1  C   UNK N   1      33.244  17.154   8.302  0.00  0.00     0.182 C 
ENDROOT
BRANCH   1   2
HETATM    2  N   UNK N   1      33.631  15.777   8.082  0.00  0.00    -0.347 N 
HETATM    3  C   UNK N   1      33.846  14.883   9.082  0.00  0.00     0.218 C 
HETATM    4  O   UNK N   1      34.215  13.755   8.802  0.00  0.00    -0.274 OA
HETATM    5  H   UNK N   1      33.745  15.469   7.154  0.00  0.00     0.163 HD
BRANCH   3   6
HETATM    6  C   UNK N   1      33.655  15.242  10.525  0.00  0.00     0.113 C 
BRANCH   6   7
HETATM    7  C   UNK N   1      34.970  15.080  11.269  0.00  0.00     0.119 C 
BRANCH   7   8
HETATM    8  C   UNK N   1      35.942  16.139  10.875  0.00  0.00     0.139 C 
HETATM    9  O   UNK N   1      35.564  17.287  10.722  0.00  0.00    -0.650 OA
BRANCH   8  10
HETATM   10  O   UNK N   1      37.246  15.835  10.729  0.00  0.00    -0.776 OA
HETATM   11  H   UNK N   1      37.793  15.720  11.481  0.00  0.00     0.167 HD
ENDBRANCH   8  10
ENDBRANCH   7   8
ENDBRANCH   6   7
ENDBRANCH   3   6
ENDBRANCH   1   2
BRANCH   1  12
HETATM   12  C   UNK N   1      31.826  17.384   7.775  0.00  0.00     0.037 C 
BRANCH  12  13
HETATM   13  C   UNK N   1      30.950  18.132   8.774  0.00  0.00     0.022 C 
BRANCH  13  14
HETATM   14  C   UNK N   1      29.679  17.361   9.086  0.00  0.00     0.111 C 
BRANCH  14  15
HETATM   15  N   UNK N   1      29.675  16.970  10.483  0.00  0.00    -0.430 N 
HETATM   16  H   UNK N   1      29.053  17.289  11.225  0.00  0.00     0.149 HD
HETATM   17  H   UNK N   1      30.384  16.289  10.757  0.00  0.00     0.149 HD
ENDBRANCH  14  15
ENDBRANCH  13  14
ENDBRANCH  12  13
ENDBRANCH   1  12
BRANCH   1  18
HETATM   18  C   UNK N   1      34.223  18.080   7.620  0.00  0.00     0.163 C 
HETATM   19  O   UNK N   1      34.404  18.015   6.412  0.00  0.00    -0.648 OA
BRANCH  18  20
HETATM   20  O   UNK N   1      34.916  18.980   8.342  0.00  0.00    -0.775 OA
HETATM   21  H   UNK N   1      35.075  19.858   8.056  0.00  0.00     0.167 HD
ENDBRANCH  18  20
ENDBRANCH   1  18
TORSDOF 11
ENDMDL
MODEL 2
REMARK VINA RESULT:      -5.0      2.263      5.068
REMARK  11 active torsions:
REMARK  status: ('A' for Active; 'I' for Inactive)
REMARK    1  A    between atoms: C_1  and  N_2 
REMARK    2  A    between atoms: C_1  and  C_3 
REMARK    3  A    between atoms: C_1  and  C_4 
REMARK       I    between atoms: N_2  and  C_5 
REMARK    4  A    between atoms: C_3  and  C_6 
REMARK    5  A    between atoms: C_4  and  O_7 
REMARK    6  A    between atoms: C_5  and  C_9 
REMARK    7  A    between atoms: C_6  and  C_11 
REMARK    8  A    between atoms: C_9  and  C_12 
REMARK    9  A    between atoms: C_11  and  N_13 
REMARK   10  A    between atoms: C_12  and  C_14 
REMARK   11  A    between atoms: C_14  and  O_15 
ROOT
HETATM    1  C   UNK N   1      34.980  14.904  10.170  0.00  0.00     0.182 C 
ENDROOT
BRANCH   1   2
HETATM    2  N   UNK N   1      33.551  15.055  10.335  0.00  0.00    -0.347 N 
HETATM    3  C   UNK N   1      32.698  15.348   9.320  0.00  0.00     0.218 C 
HETATM    4  O   UNK N   1      31.513  15.503   9.563  0.00  0.00    -0.274 OA
HETATM    5  H   UNK N   1      33.173  14.938  11.237  0.00  0.00     0.163 HD
BRANCH   3   6
HETATM    6  C   UNK N   1      33.170  15.501   7.905  0.00  0.00     0.113 C 
BRANCH   6   7
HETATM    7  C   UNK N   1      32.720  16.845   7.359  0.00  0.00     0.119 C 
BRANCH   7   8
HETATM    8  C   UNK N   1      33.883  17.643   6.878  0.00  0.00     0.139 C 
HETATM    9  O   UNK N   1      34.018  17.867   5.688  0.00  0.00    -0.650 OA
BRANCH   8  10
HETATM   10  O   UNK N   1      34.761  18.154   7.762  0.00  0.00    -0.776 OA
HETATM   11  H   UNK N   1      34.579  18.962   8.199  0.00  0.00     0.167 HD
ENDBRANCH   8  10
ENDBRANCH   7   8
ENDBRANCH   6   7
ENDBRANCH   3   6
ENDBRANCH   1   2
BRANCH   1  12
HETATM   12  C   UNK N   1      35.471  13.699  10.977  0.00  0.00     0.037 C 
BRANCH  12  13
HETATM   13  C   UNK N   1      35.059  13.776  12.442  0.00  0.00     0.022 C 
BRANCH  13  14
HETATM   14  C   UNK N   1      36.256  13.636  13.366  0.00  0.00     0.111 C 
BRANCH  14  15
HETATM   15  N   UNK N   1      36.733  14.951  13.751  0.00  0.00    -0.430 N 
HETATM   16  H   UNK N   1      36.486  15.854  13.347  0.00  0.00     0.149 HD
HETATM   17  H   UNK N   1      37.401  14.975  14.521  0.00  0.00     0.149 HD
ENDBRANCH  14  15
ENDBRANCH  13  14
ENDBRANCH  12  13
ENDBRANCH   1  12
BRANCH   1  18
HETATM   18  C   UNK N   1      35.687  16.164  10.610  0.00  0.00     0.163 C 
HETATM   19  O   UNK N   1      35.081  17.223  10.687  0.00  0.00    -0.648 OA
BRANCH  18  20
HETATM   20  O   UNK N   1      36.999  16.131  10.911  0.00  0.00    -0.775 OA
HETATM   21  H   UNK N   1      37.356  16.494  11.697  0.00  0.00     0.167 HD
ENDBRANCH  18  20
ENDBRANCH   1  18
TORSDOF 11
ENDMDL
MODEL 3
REMARK VINA RESULT:      -5.0      2.932      5.960
REMARK  11 active torsions:
REMARK  status: ('A' for Active; 'I' for Inactive)
REMARK    1  A    between atoms: C_1  and  N_2 
REMARK    2  A    between atoms: C_1  and  C_3 
REMARK    3  A    between atoms: C_1  and  C_4 
REMARK       I    between atoms: N_2  and  C_5 
REMARK    4  A    between atoms: C_3  and  C_6 
REMARK    5  A    between atoms: C_4  and  O_7 
REMARK    6  A    between atoms: C_5  and  C_9 
REMARK    7  A    between atoms: C_6  and  C_11 
REMARK    8  A    between atoms: C_9  and  C_12 
REMARK    9  A    between atoms: C_11  and  N_13 
REMARK   10  A    between atoms: C_12  and  C_14 
REMARK   11  A    between atoms: C_14  and  O_15 
ROOT
HETATM    1  C   UNK N   1      36.389  14.056  10.743  0.00  0.00     0.182 C 
ENDROOT
BRANCH   1   2
HETATM    2  N   UNK N   1      36.343  15.459  11.095  0.00  0.00    -0.347 N 
HETATM    3  C   UNK N   1      35.672  16.397  10.378  0.00  0.00     0.218 C 
HETATM    4  O   UNK N   1      35.728  17.565  10.726  0.00  0.00    -0.274 OA
HETATM    5  H   UNK N   1      36.826  15.751  11.902  0.00  0.00     0.163 HD
BRANCH   3   6
HETATM    6  C   UNK N   1      34.870  16.045   9.161  0.00  0.00     0.113 C 
BRANCH   6   7
HETATM    7  C   UNK N   1      33.890  17.164   8.854  0.00  0.00     0.119 C 
BRANCH   7   8
HETATM    8  C   UNK N   1      34.488  18.155   7.914  0.00  0.00     0.139 C 
HETATM    9  O   UNK N   1      34.389  17.992   6.711  0.00  0.00    -0.650 OA
BRANCH   8  10
HETATM   10  O   UNK N   1      35.102  19.253   8.395  0.00  0.00    -0.776 OA
HETATM   11  H   UNK N   1      36.027  19.252   8.545  0.00  0.00     0.167 HD
ENDBRANCH   8  10
ENDBRANCH   7   8
ENDBRANCH   6   7
ENDBRANCH   3   6
ENDBRANCH   1   2
BRANCH   1  12
HETATM   12  C   UNK N   1      35.853  13.213  11.903  0.00  0.00     0.037 C 
BRANCH  12  13
HETATM   13  C   UNK N   1      35.722  14.016  13.192  0.00  0.00     0.022 C 
BRANCH  13  14
HETATM   14  C   UNK N   1      36.141  13.201  14.403  0.00  0.00     0.111 C 
BRANCH  14  15
HETATM   15  N   UNK N   1      37.516  12.765  14.246  0.00  0.00    -0.430 N 
HETATM   16  H   UNK N   1      37.942  11.895  14.565  0.00  0.00     0.149 HD
HETATM   17  H   UNK N   1      38.135  13.410  13.755  0.00  0.00     0.149 HD
ENDBRANCH  14  15
ENDBRANCH  13  14
ENDBRANCH  12  13
ENDBRANCH   1  12
BRANCH   1  18
HETATM   18  C   UNK N   1      37.805  13.655  10.403  0.00  0.00     0.163 C 
HETATM   19  O   UNK N   1      38.270  13.892   9.297  0.00  0.00    -0.648 OA
BRANCH  18  20
HETATM   20  O   UNK N   1      38.563  13.020  11.315  0.00  0.00    -0.775 OA
HETATM   21  H   UNK N   1      39.489  13.143  11.390  0.00  0.00     0.167 HD
ENDBRANCH  18  20
ENDBRANCH   1  18
TORSDOF 11
ENDMDL
MODEL 4
REMARK VINA RESULT:      -5.0      1.518      1.913
REMARK  11 active torsions:
REMARK  status: ('A' for Active; 'I' for Inactive)
REMARK    1  A    between atoms: C_1  and  N_2 
REMARK    2  A    between atoms: C_1  and  C_3 
REMARK    3  A    between atoms: C_1  and  C_4 
REMARK       I    between atoms: N_2  and  C_5 
REMARK    4  A    between atoms: C_3  and  C_6 
REMARK    5  A    between atoms: C_4  and  O_7 
REMARK    6  A    between atoms: C_5  and  C_9 
REMARK    7  A    between atoms: C_6  and  C_11 
REMARK    8  A    between atoms: C_9  and  C_12 
REMARK    9  A    between atoms: C_11  and  N_13 
REMARK   10  A    between atoms: C_12  and  C_14 
REMARK   11  A    between atoms: C_14  and  O_15 
ROOT
HETATM    1  C   UNK N   1      33.410  17.548   8.777  0.00  0.00     0.182 C 
ENDROOT
BRANCH   1   2
HETATM    2  N   UNK N   1      33.613  16.118   8.684  0.00  0.00    -0.347 N 
HETATM    3  C   UNK N   1      34.339  15.397   9.577  0.00  0.00     0.218 C 
HETATM    4  O   UNK N   1      34.494  14.202   9.392  0.00  0.00    -0.274 OA
HETATM    5  H   UNK N   1      33.200  15.639   7.930  0.00  0.00     0.163 HD
BRANCH   3   6
HETATM    6  C   UNK N   1      34.969  16.028  10.783  0.00  0.00     0.113 C 
BRANCH   6   7
HETATM    7  C   UNK N   1      36.049  15.111  11.333  0.00  0.00     0.119 C 
BRANCH   7   8
HETATM    8  C   UNK N   1      35.577  14.404  12.557  0.00  0.00     0.139 C 
HETATM    9  O   UNK N   1      36.160  14.562  13.615  0.00  0.00    -0.650 OA
BRANCH   8  10
HETATM   10  O   UNK N   1      34.481  13.622  12.502  0.00  0.00    -0.776 OA
HETATM   11  H   UNK N   1      33.670  13.966  12.184  0.00  0.00     0.167 HD
ENDBRANCH   8  10
ENDBRANCH   7   8
ENDBRANCH   6   7
ENDBRANCH   3   6
ENDBRANCH   1   2
BRANCH   1  12
HETATM   12  C   UNK N   1      32.000  17.904   8.299  0.00  0.00     0.037 C 
BRANCH  12  13
HETATM   13  C   UNK N   1      30.957  16.896   8.768  0.00  0.00     0.022 C 
BRANCH  13  14
HETATM   14  C   UNK N   1      29.628  17.567   9.066  0.00  0.00     0.111 C 
BRANCH  14  15
HETATM   15  N   UNK N   1      29.794  18.527  10.141  0.00  0.00    -0.430 N 
HETATM   16  H   UNK N   1      29.378  19.454  10.228  0.00  0.00     0.149 HD
HETATM   17  H   UNK N   1      30.405  18.238  10.905  0.00  0.00     0.149 HD
ENDBRANCH  14  15
ENDBRANCH  13  14
ENDBRANCH  12  13
ENDBRANCH   1  12
BRANCH   1  18
HETATM   18  C   UNK N   1      34.450  18.271   7.953  0.00  0.00     0.163 C 
HETATM   19  O   UNK N   1      35.207  19.077   8.475  0.00  0.00    -0.648 OA
BRANCH  18  20
HETATM   20  O   UNK N   1      34.541  18.041   6.630  0.00  0.00    -0.775 OA
HETATM   21  H   UNK N   1      35.124  18.510   6.065  0.00  0.00     0.167 HD
ENDBRANCH  18  20
ENDBRANCH   1  18
TORSDOF 11
ENDMDL
MODEL 5
REMARK VINA RESULT:      -4.9     10.417     13.082
REMARK  11 active torsions:
REMARK  status: ('A' for Active; 'I' for Inactive)
REMARK    1  A    between atoms: C_1  and  N_2 
REMARK    2  A    between atoms: C_1  and  C_3 
REMARK    3  A    between atoms: C_1  and  C_4 
REMARK       I    between atoms: N_2  and  C_5 
REMARK    4  A    between atoms: C_3  and  C_6 
REMARK    5  A    between atoms: C_4  and  O_7 
REMARK    6  A    between atoms: C_5  and  C_9 
REMARK    7  A    between atoms: C_6  and  C_11 
REMARK    8  A    between atoms: C_9  and  C_12 
REMARK    9  A    between atoms: C_11  and  N_13 
REMARK   10  A    between atoms: C_12  and  C_14 
REMARK   11  A    between atoms: C_14  and  O_15 
ROOT
HETATM    1  C   UNK N   1      22.945  12.459  10.474  0.00  0.00     0.182 C 
ENDROOT
BRANCH   1   2
HETATM    2  N   UNK N   1      21.500  12.470  10.546  0.00  0.00    -0.347 N 
HETATM    3  C   UNK N   1      20.725  13.466  10.045  0.00  0.00     0.218 C 
HETATM    4  O   UNK N   1      19.515  13.411  10.193  0.00  0.00    -0.274 OA
HETATM    5  H   UNK N   1      21.051  11.709  10.982  0.00  0.00     0.163 HD
BRANCH   3   6
HETATM    6  C   UNK N   1      21.310  14.644   9.324  0.00  0.00     0.113 C 
BRANCH   6   7
HETATM    7  C   UNK N   1      20.361  15.094   8.227  0.00  0.00     0.119 C 
BRANCH   7   8
HETATM    8  C   UNK N   1      19.649  16.344   8.617  0.00  0.00     0.139 C 
HETATM    9  O   UNK N   1      18.445  16.327   8.806  0.00  0.00    -0.650 OA
BRANCH   8  10
HETATM   10  O   UNK N   1      20.342  17.484   8.801  0.00  0.00    -0.776 OA
HETATM   11  H   UNK N   1      20.679  17.958   8.066  0.00  0.00     0.167 HD
ENDBRANCH   8  10
ENDBRANCH   7   8
ENDBRANCH   6   7
ENDBRANCH   3   6
ENDBRANCH   1   2
BRANCH   1  12
HETATM   12  C   UNK N   1      23.404  11.470   9.399  0.00  0.00     0.037 C 
BRANCH  12  13
HETATM   13  C   UNK N   1      24.039  12.168   8.202  0.00  0.00     0.022 C 
BRANCH  13  14
HETATM   14  C   UNK N   1      24.867  13.367   8.630  0.00  0.00     0.111 C 
BRANCH  14  15
HETATM   15  N   UNK N   1      25.429  14.016   7.461  0.00  0.00    -0.430 N 
HETATM   16  H   UNK N   1      26.372  14.383   7.335  0.00  0.00     0.149 HD
HETATM   17  H   UNK N   1      24.801  14.119   6.663  0.00  0.00     0.149 HD
ENDBRANCH  14  15
ENDBRANCH  13  14
ENDBRANCH  12  13
ENDBRANCH   1  12
BRANCH   1  18
HETATM   18  C   UNK N   1      23.526  12.091  11.819  0.00  0.00     0.163 C 
HETATM   19  O   UNK N   1      22.795  11.769  12.745  0.00  0.00    -0.648 OA
BRANCH  18  20
HETATM   20  O   UNK N   1      24.857  12.128  12.012  0.00  0.00    -0.775 OA
HETATM   21  H   UNK N   1      25.417  12.767  11.615  0.00  0.00     0.167 HD
ENDBRANCH  18  20
ENDBRANCH   1  18
TORSDOF 11
ENDMDL
MODEL 6
REMARK VINA RESULT:      -4.9     15.752     17.627
REMARK  11 active torsions:
REMARK  status: ('A' for Active; 'I' for Inactive)
REMARK    1  A    between atoms: C_1  and  N_2 
REMARK    2  A    between atoms: C_1  and  C_3 
REMARK    3  A    between atoms: C_1  and  C_4 
REMARK       I    between atoms: N_2  and  C_5 
REMARK    4  A    between atoms: C_3  and  C_6 
REMARK    5  A    between atoms: C_4  and  O_7 
REMARK    6  A    between atoms: C_5  and  C_9 
REMARK    7  A    between atoms: C_6  and  C_11 
REMARK    8  A    between atoms: C_9  and  C_12 
REMARK    9  A    between atoms: C_11  and  N_13 
REMARK   10  A    between atoms: C_12  and  C_14 
REMARK   11  A    between atoms: C_14  and  O_15 
ROOT
HETATM    1  C   UNK N   1      26.473  25.686  -6.080  0.00  0.00     0.182 C 
ENDROOT
BRANCH   1   2
HETATM    2  N   UNK N   1      26.066  25.069  -4.836  0.00  0.00    -0.347 N 
HETATM    3  C   UNK N   1      26.926  24.482  -3.964  0.00  0.00     0.218 C 
HETATM    4  O   UNK N   1      26.485  23.947  -2.961  0.00  0.00    -0.274 OA
HETATM    5  H   UNK N   1      25.108  25.077  -4.606  0.00  0.00     0.163 HD
BRANCH   3   6
HETATM    6  C   UNK N   1      28.407  24.459  -4.203  0.00  0.00     0.113 C 
BRANCH   6   7
HETATM    7  C   UNK N   1      29.020  23.267  -3.488  0.00  0.00     0.119 C 
BRANCH   7   8
HETATM    8  C   UNK N   1      30.179  23.685  -2.649  0.00  0.00     0.139 C 
HETATM    9  O   UNK N   1      30.830  24.668  -2.955  0.00  0.00    -0.650 OA
BRANCH   8  10
HETATM   10  O   UNK N   1      30.480  23.000  -1.529  0.00  0.00    -0.776 OA
HETATM   11  H   UNK N   1      30.446  22.064  -1.522  0.00  0.00     0.167 HD
ENDBRANCH   8  10
ENDBRANCH   7   8
ENDBRANCH   6   7
ENDBRANCH   3   6
ENDBRANCH   1   2
BRANCH   1  12
HETATM   12  C   UNK N   1      26.107  27.172  -6.067  0.00  0.00     0.037 C 
BRANCH  12  13
HETATM   13  C   UNK N   1      25.145  27.522  -4.937  0.00  0.00     0.022 C 
BRANCH  13  14
HETATM   14  C   UNK N   1      25.787  28.460  -3.930  0.00  0.00     0.111 C 
BRANCH  14  15
HETATM   15  N   UNK N   1      25.966  27.771  -2.666  0.00  0.00    -0.430 N 
HETATM   16  H   UNK N   1      25.928  28.161  -1.724  0.00  0.00     0.149 HD
HETATM   17  H   UNK N   1      26.154  26.771  -2.726  0.00  0.00     0.149 HD
ENDBRANCH  14  15
ENDBRANCH  13  14
ENDBRANCH  12  13
ENDBRANCH   1  12
BRANCH   1  18
HETATM   18  C   UNK N   1      25.813  24.984  -7.244  0.00  0.00     0.163 C 
HETATM   19  O   UNK N   1      25.287  23.891  -7.094  0.00  0.00    -0.648 OA
BRANCH  18  20
HETATM   20  O   UNK N   1      25.811  25.556  -8.462  0.00  0.00    -0.775 OA
HETATM   21  H   UNK N   1      26.530  26.055  -8.798  0.00  0.00     0.167 HD
ENDBRANCH  18  20
ENDBRANCH   1  18
TORSDOF 11
ENDMDL
MODEL 7
REMARK VINA RESULT:      -4.8      1.391      2.199
REMARK  11 active torsions:
REMARK  status: ('A' for Active; 'I' for Inactive)
REMARK    1  A    between atoms: C_1  and  N_2 
REMARK    2  A    between atoms: C_1  and  C_3 
REMARK    3  A    between atoms: C_1  and  C_4 
REMARK       I    between atoms: N_2  and  C_5 
REMARK    4  A    between atoms: C_3  and  C_6 
REMARK    5  A    between atoms: C_4  and  O_7 
REMARK    6  A    between atoms: C_5  and  C_9 
REMARK    7  A    between atoms: C_6  and  C_11 
REMARK    8  A    between atoms: C_9  and  C_12 
REMARK    9  A    between atoms: C_11  and  N_13 
REMARK   10  A    between atoms: C_12  and  C_14 
REMARK   11  A    between atoms: C_14  and  O_15 
ROOT
HETATM    1  C   UNK N   1      33.125  17.091   8.400  0.00  0.00     0.182 C 
ENDROOT
BRANCH   1   2
HETATM    2  N   UNK N   1      33.374  15.720   8.011  0.00  0.00    -0.347 N 
HETATM    3  C   UNK N   1      33.592  14.711   8.894  0.00  0.00     0.218 C 
HETATM    4  O   UNK N   1      33.839  13.594   8.472  0.00  0.00    -0.274 OA
HETATM    5  H   UNK N   1      33.384  15.504   7.050  0.00  0.00     0.163 HD
BRANCH   3   6
HETATM    6  C   UNK N   1      33.551  14.929  10.377  0.00  0.00     0.113 C 
BRANCH   6   7
HETATM    7  C   UNK N   1      34.949  14.779  10.953  0.00  0.00     0.119 C 
BRANCH   7   8
HETATM    8  C   UNK N   1      35.666  16.086  10.962  0.00  0.00     0.139 C 
HETATM    9  O   UNK N   1      36.850  16.134  10.678  0.00  0.00    -0.650 OA
BRANCH   8  10
HETATM   10  O   UNK N   1      34.996  17.220  11.243  0.00  0.00    -0.776 OA
HETATM   11  H   UNK N   1      35.299  17.795  11.917  0.00  0.00     0.167 HD
ENDBRANCH   8  10
ENDBRANCH   7   8
ENDBRANCH   6   7
ENDBRANCH   3   6
ENDBRANCH   1   2
BRANCH   1  12
HETATM   12  C   UNK N   1      31.753  17.536   7.886  0.00  0.00     0.037 C 
BRANCH  12  13
HETATM   13  C   UNK N   1      31.122  16.507   6.955  0.00  0.00     0.022 C 
BRANCH  13  14
HETATM   14  C   UNK N   1      30.805  17.105   5.596  0.00  0.00     0.111 C 
BRANCH  14  15
HETATM   15  N   UNK N   1      32.038  17.476   4.926  0.00  0.00    -0.430 N 
HETATM   16  H   UNK N   1      32.157  18.084   4.116  0.00  0.00     0.149 HD
HETATM   17  H   UNK N   1      32.893  17.077   5.313  0.00  0.00     0.149 HD
ENDBRANCH  14  15
ENDBRANCH  13  14
ENDBRANCH  12  13
ENDBRANCH   1  12
BRANCH   1  18
HETATM   18  C   UNK N   1      34.213  17.987   7.857  0.00  0.00     0.163 C 
HETATM   19  O   UNK N   1      34.887  18.675   8.610  0.00  0.00    -0.648 OA
BRANCH  18  20
HETATM   20  O   UNK N   1      34.440  18.044   6.532  0.00  0.00    -0.775 OA
HETATM   21  H   UNK N   1      34.526  18.848   6.058  0.00  0.00     0.167 HD
ENDBRANCH  18  20
ENDBRANCH   1  18
TORSDOF 11
ENDMDL
MODEL 8
REMARK VINA RESULT:      -4.8      4.839      7.298
REMARK  11 active torsions:
REMARK  status: ('A' for Active; 'I' for Inactive)
REMARK    1  A    between atoms: C_1  and  N_2 
REMARK    2  A    between atoms: C_1  and  C_3 
REMARK    3  A    between atoms: C_1  and  C_4 
REMARK       I    between atoms: N_2  and  C_5 
REMARK    4  A    between atoms: C_3  and  C_6 
REMARK    5  A    between atoms: C_4  and  O_7 
REMARK    6  A    between atoms: C_5  and  C_9 
REMARK    7  A    between atoms: C_6  and  C_11 
REMARK    8  A    between atoms: C_9  and  C_12 
REMARK    9  A    between atoms: C_11  and  N_13 
REMARK   10  A    between atoms: C_12  and  C_14 
REMARK   11  A    between atoms: C_14  and  O_15 
ROOT
HETATM    1  C   UNK N   1      29.585  18.156   8.055  0.00  0.00     0.182 C 
ENDROOT
BRANCH   1   2
HETATM    2  N   UNK N   1      28.909  17.175   7.234  0.00  0.00    -0.347 N 
HETATM    3  C   UNK N   1      28.290  17.466   6.061  0.00  0.00     0.218 C 
HETATM    4  O   UNK N   1      27.705  16.581   5.460  0.00  0.00    -0.274 OA
HETATM    5  H   UNK N   1      28.897  16.240   7.544  0.00  0.00     0.163 HD
BRANCH   3   6
HETATM    6  C   UNK N   1      28.291  18.851   5.484  0.00  0.00     0.113 C 
BRANCH   6   7
HETATM    7  C   UNK N   1      26.911  19.468   5.636  0.00  0.00     0.119 C 
BRANCH   7   8
HETATM    8  C   UNK N   1      26.934  20.596   6.610  0.00  0.00     0.139 C 
HETATM    9  O   UNK N   1      27.294  21.703   6.252  0.00  0.00    -0.650 OA
BRANCH   8  10
HETATM   10  O   UNK N   1      26.516  20.400   7.876  0.00  0.00    -0.776 OA
HETATM   11  H   UNK N   1      26.784  19.639   8.351  0.00  0.00     0.167 HD
ENDBRANCH   8  10
ENDBRANCH   7   8
ENDBRANCH   6   7
ENDBRANCH   3   6
ENDBRANCH   1   2
BRANCH   1  12
HETATM   12  C   UNK N   1      31.039  17.732   8.279  0.00  0.00     0.037 C 
BRANCH  12  13
HETATM   13  C   UNK N   1      31.273  16.264   7.941  0.00  0.00     0.022 C 
BRANCH  13  14
HETATM   14  C   UNK N   1      32.272  15.626   8.891  0.00  0.00     0.111 C 
BRANCH  14  15
HETATM   15  N   UNK N   1      31.641  15.384  10.174  0.00  0.00    -0.430 N 
HETATM   16  H   UNK N   1      30.874  15.899  10.607  0.00  0.00     0.149 HD
HETATM   17  H   UNK N   1      32.011  14.600  10.712  0.00  0.00     0.149 HD
ENDBRANCH  14  15
ENDBRANCH  13  14
ENDBRANCH  12  13
ENDBRANCH   1  12
BRANCH   1  18
HETATM   18  C   UNK N   1      28.866  18.310   9.374  0.00  0.00     0.163 C 
HETATM   19  O   UNK N   1      29.483  18.596  10.390  0.00  0.00    -0.648 OA
BRANCH  18  20
HETATM   20  O   UNK N   1      27.536  18.118   9.443  0.00  0.00    -0.775 OA
HETATM   21  H   UNK N   1      27.123  17.605  10.111  0.00  0.00     0.167 HD
ENDBRANCH  18  20
ENDBRANCH   1  18
TORSDOF 11
ENDMDL
MODEL 9
REMARK VINA RESULT:      -4.6      1.993      4.988
REMARK  11 active torsions:
REMARK  status: ('A' for Active; 'I' for Inactive)
REMARK    1  A    between atoms: C_1  and  N_2 
REMARK    2  A    between atoms: C_1  and  C_3 
REMARK    3  A    between atoms: C_1  and  C_4 
REMARK       I    between atoms: N_2  and  C_5 
REMARK    4  A    between atoms: C_3  and  C_6 
REMARK    5  A    between atoms: C_4  and  O_7 
REMARK    6  A    between atoms: C_5  and  C_9 
REMARK    7  A    between atoms: C_6  and  C_11 
REMARK    8  A    between atoms: C_9  and  C_12 
REMARK    9  A    between atoms: C_11  and  N_13 
REMARK   10  A    between atoms: C_12  and  C_14 
REMARK   11  A    between atoms: C_14  and  O_15 
ROOT
HETATM    1  C   UNK N   1      35.047  14.965   9.968  0.00  0.00     0.182 C 
ENDROOT
BRANCH   1   2
HETATM    2  N   UNK N   1      33.641  14.963  10.312  0.00  0.00    -0.347 N 
HETATM    3  C   UNK N   1      32.664  15.454   9.507  0.00  0.00     0.218 C 
HETATM    4  O   UNK N   1      31.510  15.452   9.901  0.00  0.00    -0.274 OA
HETATM    5  H   UNK N   1      33.376  14.582  11.181  0.00  0.00     0.163 HD
BRANCH   3   6
HETATM    6  C   UNK N   1      32.961  16.014   8.147  0.00  0.00     0.113 C 
BRANCH   6   7
HETATM    7  C   UNK N   1      32.923  17.531   8.201  0.00  0.00     0.119 C 
BRANCH   7   8
HETATM    8  C   UNK N   1      34.173  18.118   7.639  0.00  0.00     0.139 C 
HETATM    9  O   UNK N   1      34.502  17.868   6.493  0.00  0.00    -0.650 OA
BRANCH   8  10
HETATM   10  O   UNK N   1      34.916  18.958   8.385  0.00  0.00    -0.776 OA
HETATM   11  H   UNK N   1      34.714  19.872   8.413  0.00  0.00     0.167 HD
ENDBRANCH   8  10
ENDBRANCH   7   8
ENDBRANCH   6   7
ENDBRANCH   3   6
ENDBRANCH   1   2
BRANCH   1  12
HETATM   12  C   UNK N   1      35.682  13.633  10.374  0.00  0.00     0.037 C 
BRANCH  12  13
HETATM   13  C   UNK N   1      36.443  12.980   9.226  0.00  0.00     0.022 C 
BRANCH  13  14
HETATM   14  C   UNK N   1      35.812  13.303   7.884  0.00  0.00     0.111 C 
BRANCH  14  15
HETATM   15  N   UNK N   1      36.734  12.964   6.816  0.00  0.00    -0.430 N 
HETATM   16  H   UNK N   1      37.752  13.016   6.822  0.00  0.00     0.149 HD
HETATM   17  H   UNK N   1      36.310  12.632   5.949  0.00  0.00     0.149 HD
ENDBRANCH  14  15
ENDBRANCH  13  14
ENDBRANCH  12  13
ENDBRANCH   1  12
BRANCH   1  18
HETATM   18  C   UNK N   1      35.744  16.118  10.652  0.00  0.00     0.163 C 
HETATM   19  O   UNK N   1      35.145  17.158  10.884  0.00  0.00    -0.648 OA
BRANCH  18  20
HETATM   20  O   UNK N   1      37.039  16.011  11.002  0.00  0.00    -0.775 OA
HETATM   21  H   UNK N   1      37.411  15.231  11.364  0.00  0.00     0.167 HD
ENDBRANCH  18  20
ENDBRANCH   1  18
TORSDOF 11
ENDMDL
