MODEL 1
REMARK VINA RESULT:      -5.4      0.000      0.000
REMARK  3 active torsions:
REMARK  status: ('A' for Active; 'I' for Inactive)
REMARK    1  A    between atoms: O_1  and  C_2 
REMARK    2  A    between atoms: C_5  and  N_9 
REMARK    3  A    between atoms: C_7  and  O_8 
ROOT
HETATM    1  C   UNK N   1      34.242  14.987  10.932  0.00  0.00     0.098 A 
HETATM    2  C   UNK N   1      35.194  15.975  11.201  0.00  0.00     0.042 A 
HETATM    3  C   UNK N   1      35.374  17.036  10.308  0.00  0.00     0.039 A 
HETATM    4  C   UNK N   1      34.601  17.114   9.138  0.00  0.00     0.105 A 
HETATM    5  C   UNK N   1      33.650  16.118   8.876  0.00  0.00     0.075 A 
HETATM    6  C   UNK N   1      33.469  15.060   9.766  0.00  0.00     0.101 A 
ENDROOT
BRANCH   4   7
HETATM    7  N   UNK N   1      34.781  18.190   8.227  0.00  0.00    -0.116 N 
HETATM    8  O   UNK N   1      35.352  19.308   8.624  0.00  0.00    -0.532 OA
HETATM    9  O   UNK N   1      34.414  18.087   7.095  0.00  0.00    -0.532 OA
ENDBRANCH   4   7
BRANCH   6  10
HETATM   10  O   UNK N   1      32.551  14.115   9.496  0.00  0.00    -0.358 OA
HETATM   11  H   UNK N   1      32.824  13.242   9.295  0.00  0.00     0.217 HD
ENDBRANCH   6  10
BRANCH   1  12
HETATM   12  O   UNK N   1      34.075  13.971  11.795  0.00  0.00    -0.358 OA
HETATM   13  H   UNK N   1      34.518  13.979  12.621  0.00  0.00     0.217 HD
ENDBRANCH   1  12
TORSDOF 3
ENDMDL
MODEL 2
REMARK VINA RESULT:      -5.2     11.500     12.865
REMARK  3 active torsions:
REMARK  status: ('A' for Active; 'I' for Inactive)
REMARK    1  A    between atoms: O_1  and  C_2 
REMARK    2  A    between atoms: C_5  and  N_9 
REMARK    3  A    between atoms: C_7  and  O_8 
ROOT
HETATM    1  C   UNK N   1      23.996  12.290  11.004  0.00  0.00     0.098 A 
HETATM    2  C   UNK N   1      24.059  12.975   9.787  0.00  0.00     0.042 A 
HETATM    3  C   UNK N   1      22.886  13.437   9.181  0.00  0.00     0.039 A 
HETATM    4  C   UNK N   1      21.641  13.216   9.792  0.00  0.00     0.105 A 
HETATM    5  C   UNK N   1      21.588  12.528  11.013  0.00  0.00     0.075 A 
HETATM    6  C   UNK N   1      22.757  12.066  11.617  0.00  0.00     0.101 A 
ENDROOT
BRANCH   4   7
HETATM    7  N   UNK N   1      20.446  13.684   9.181  0.00  0.00    -0.116 N 
HETATM    8  O   UNK N   1      20.350  13.742   7.870  0.00  0.00    -0.532 OA
HETATM    9  O   UNK N   1      19.522  14.029   9.855  0.00  0.00    -0.532 OA
ENDBRANCH   4   7
BRANCH   6  10
HETATM   10  O   UNK N   1      22.684  11.409  12.787  0.00  0.00    -0.358 OA
HETATM   11  H   UNK N   1      22.532  11.882  13.582  0.00  0.00     0.217 HD
ENDBRANCH   6  10
BRANCH   1  12
HETATM   12  O   UNK N   1      25.128  11.848  11.579  0.00  0.00    -0.358 OA
HETATM   13  H   UNK N   1      25.367  12.148  12.433  0.00  0.00     0.217 HD
ENDBRANCH   1  12
TORSDOF 3
ENDMDL
MODEL 3
REMARK VINA RESULT:      -5.2      0.838      2.041
REMARK  3 active torsions:
REMARK  status: ('A' for Active; 'I' for Inactive)
REMARK    1  A    between atoms: O_1  and  C_2 
REMARK    2  A    between atoms: C_5  and  N_9 
REMARK    3  A    between atoms: C_7  and  O_8 
ROOT
HETATM    1  C   UNK N   1      34.248  14.931  10.898  0.00  0.00     0.098 A 
HETATM    2  C   UNK N   1      33.356  15.093   9.834  0.00  0.00     0.042 A 
HETATM    3  C   UNK N   1      33.492  16.180   8.964  0.00  0.00     0.039 A 
HETATM    4  C   UNK N   1      34.526  17.111   9.154  0.00  0.00     0.105 A 
HETATM    5  C   UNK N   1      35.416  16.940  10.223  0.00  0.00     0.075 A 
HETATM    6  C   UNK N   1      35.281  15.857  11.092  0.00  0.00     0.101 A 
ENDROOT
BRANCH   4   7
HETATM    7  N   UNK N   1      34.669  18.217   8.273  0.00  0.00    -0.116 N 
HETATM    8  O   UNK N   1      35.381  19.264   8.631  0.00  0.00    -0.532 OA
HETATM    9  O   UNK N   1      34.142  18.202   7.200  0.00  0.00    -0.532 OA
ENDBRANCH   4   7
BRANCH   6  10
HETATM   10  O   UNK N   1      36.146  15.711  12.110  0.00  0.00    -0.358 OA
HETATM   11  H   UNK N   1      36.416  16.459  12.606  0.00  0.00     0.217 HD
ENDBRANCH   6  10
BRANCH   1  12
HETATM   12  O   UNK N   1      34.110  13.884  11.729  0.00  0.00    -0.358 OA
HETATM   13  H   UNK N   1      33.746  13.080  11.415  0.00  0.00     0.217 HD
ENDBRANCH   1  12
TORSDOF 3
ENDMDL
MODEL 4
REMARK VINA RESULT:      -5.0     11.267     12.670
REMARK  3 active torsions:
REMARK  status: ('A' for Active; 'I' for Inactive)
REMARK    1  A    between atoms: O_1  and  C_2 
REMARK    2  A    between atoms: C_5  and  N_9 
REMARK    3  A    between atoms: C_7  and  O_8 
ROOT
HETATM    1  C   UNK N   1      24.011  12.266  10.992  0.00  0.00     0.098 A 
HETATM    2  C   UNK N   1      22.780  11.934  11.566  0.00  0.00     0.042 A 
HETATM    3  C   UNK N   1      21.591  12.396  10.993  0.00  0.00     0.039 A 
HETATM    4  C   UNK N   1      21.627  13.194   9.838  0.00  0.00     0.105 A 
HETATM    5  C   UNK N   1      22.866  13.522   9.269  0.00  0.00     0.075 A 
HETATM    6  C   UNK N   1      24.052  13.063   9.840  0.00  0.00     0.101 A 
ENDROOT
BRANCH   4   7
HETATM    7  N   UNK N   1      20.422  13.666   9.252  0.00  0.00    -0.116 N 
HETATM    8  O   UNK N   1      20.316  13.771   7.944  0.00  0.00    -0.532 OA
HETATM    9  O   UNK N   1      19.496  13.970   9.943  0.00  0.00    -0.532 OA
ENDBRANCH   4   7
BRANCH   6  10
HETATM   10  O   UNK N   1      25.229  13.389   9.278  0.00  0.00    -0.358 OA
HETATM   11  H   UNK N   1      25.780  14.028   9.684  0.00  0.00     0.217 HD
ENDBRANCH   6  10
BRANCH   1  12
HETATM   12  O   UNK N   1      25.149  11.819  11.549  0.00  0.00    -0.358 OA
HETATM   13  H   UNK N   1      25.177  10.967  11.937  0.00  0.00     0.217 HD
ENDBRANCH   1  12
TORSDOF 3
ENDMDL
MODEL 5
REMARK VINA RESULT:      -4.9     11.393     12.793
REMARK  3 active torsions:
REMARK  status: ('A' for Active; 'I' for Inactive)
REMARK    1  A    between atoms: O_1  and  C_2 
REMARK    2  A    between atoms: C_5  and  N_9 
REMARK    3  A    between atoms: C_7  and  O_8 
ROOT
HETATM    1  C   UNK N   1      23.079  12.063  12.324  0.00  0.00     0.098 A 
HETATM    2  C   UNK N   1      21.693  12.026  12.139  0.00  0.00     0.042 A 
HETATM    3  C   UNK N   1      21.152  12.195  10.861  0.00  0.00     0.039 A 
HETATM    4  C   UNK N   1      21.996  12.404   9.757  0.00  0.00     0.105 A 
HETATM    5  C   UNK N   1      23.384  12.440   9.953  0.00  0.00     0.075 A 
HETATM    6  C   UNK N   1      23.925  12.271  11.227  0.00  0.00     0.101 A 
ENDROOT
BRANCH   4   7
HETATM    7  N   UNK N   1      21.450  12.577   8.457  0.00  0.00    -0.116 N 
HETATM    8  O   UNK N   1      20.446  13.404   8.263  0.00  0.00    -0.532 OA
HETATM    9  O   UNK N   1      21.901  11.971   7.531  0.00  0.00    -0.532 OA
ENDBRANCH   4   7
BRANCH   6  10
HETATM   10  O   UNK N   1      25.258  12.309  11.392  0.00  0.00    -0.358 OA
HETATM   11  H   UNK N   1      25.798  11.653  10.997  0.00  0.00     0.217 HD
ENDBRANCH   6  10
BRANCH   1  12
HETATM   12  O   UNK N   1      23.591  11.899  13.555  0.00  0.00    -0.358 OA
HETATM   13  H   UNK N   1      23.066  11.527  14.236  0.00  0.00     0.217 HD
ENDBRANCH   1  12
TORSDOF 3
ENDMDL
MODEL 6
REMARK VINA RESULT:      -4.8     14.029     15.005
REMARK  3 active torsions:
REMARK  status: ('A' for Active; 'I' for Inactive)
REMARK    1  A    between atoms: O_1  and  C_2 
REMARK    2  A    between atoms: C_5  and  N_9 
REMARK    3  A    between atoms: C_7  and  O_8 
ROOT
HETATM    1  C   UNK N   1      20.012  17.423   3.549  0.00  0.00     0.098 A 
HETATM    2  C   UNK N   1      21.317  17.281   4.030  0.00  0.00     0.042 A 
HETATM    3  C   UNK N   1      22.253  18.301   3.829  0.00  0.00     0.039 A 
HETATM    4  C   UNK N   1      21.887  19.470   3.143  0.00  0.00     0.105 A 
HETATM    5  C   UNK N   1      20.576  19.604   2.664  0.00  0.00     0.075 A 
HETATM    6  C   UNK N   1      19.642  18.588   2.864  0.00  0.00     0.101 A 
ENDROOT
BRANCH   4   7
HETATM    7  N   UNK N   1      22.835  20.509   2.936  0.00  0.00    -0.116 N 
HETATM    8  O   UNK N   1      24.124  20.245   2.954  0.00  0.00    -0.532 OA
HETATM    9  O   UNK N   1      22.467  21.629   2.744  0.00  0.00    -0.532 OA
ENDBRANCH   4   7
BRANCH   6  10
HETATM   10  O   UNK N   1      18.391  18.736   2.396  0.00  0.00    -0.358 OA
HETATM   11  H   UNK N   1      17.660  18.645   2.976  0.00  0.00     0.217 HD
ENDBRANCH   6  10
BRANCH   1  12
HETATM   12  O   UNK N   1      19.118  16.439   3.746  0.00  0.00    -0.358 OA
HETATM   13  H   UNK N   1      19.358  15.680   4.239  0.00  0.00     0.217 HD
ENDBRANCH   1  12
TORSDOF 3
ENDMDL
MODEL 7
REMARK VINA RESULT:      -4.8      3.059      4.349
REMARK  3 active torsions:
REMARK  status: ('A' for Active; 'I' for Inactive)
REMARK    1  A    between atoms: O_1  and  C_2 
REMARK    2  A    between atoms: C_5  and  N_9 
REMARK    3  A    between atoms: C_7  and  O_8 
ROOT
HETATM    1  C   UNK N   1      31.516  17.102   6.025  0.00  0.00     0.098 A 
HETATM    2  C   UNK N   1      32.813  17.267   5.529  0.00  0.00     0.042 A 
HETATM    3  C   UNK N   1      33.852  17.634   6.390  0.00  0.00     0.039 A 
HETATM    4  C   UNK N   1      33.599  17.838   7.756  0.00  0.00     0.105 A 
HETATM    5  C   UNK N   1      32.295  17.670   8.245  0.00  0.00     0.075 A 
HETATM    6  C   UNK N   1      31.258  17.304   7.387  0.00  0.00     0.101 A 
ENDROOT
BRANCH   4   7
HETATM    7  N   UNK N   1      34.651  18.210   8.635  0.00  0.00    -0.116 N 
HETATM    8  O   UNK N   1      34.938  17.465   9.681  0.00  0.00    -0.532 OA
HETATM    9  O   UNK N   1      35.282  19.204   8.430  0.00  0.00    -0.532 OA
ENDBRANCH   4   7
BRANCH   6  10
HETATM   10  O   UNK N   1      30.016  17.148   7.877  0.00  0.00    -0.358 OA
HETATM   11  H   UNK N   1      29.772  17.569   8.678  0.00  0.00     0.217 HD
ENDBRANCH   6  10
BRANCH   1  12
HETATM   12  O   UNK N   1      30.523  16.749   5.192  0.00  0.00    -0.358 OA
HETATM   13  H   UNK N   1      30.261  15.852   5.128  0.00  0.00     0.217 HD
ENDBRANCH   1  12
TORSDOF 3
ENDMDL
MODEL 8
REMARK VINA RESULT:      -4.8     10.978     12.801
REMARK  3 active torsions:
REMARK  status: ('A' for Active; 'I' for Inactive)
REMARK    1  A    between atoms: O_1  and  C_2 
REMARK    2  A    between atoms: C_5  and  N_9 
REMARK    3  A    between atoms: C_7  and  O_8 
ROOT
HETATM    1  C   UNK N   1      44.047  23.293   2.960  0.00  0.00     0.098 A 
HETATM    2  C   UNK N   1      42.773  23.201   2.391  0.00  0.00     0.042 A 
HETATM    3  C   UNK N   1      42.030  22.024   2.523  0.00  0.00     0.039 A 
HETATM    4  C   UNK N   1      42.559  20.929   3.226  0.00  0.00     0.105 A 
HETATM    5  C   UNK N   1      43.838  21.031   3.792  0.00  0.00     0.075 A 
HETATM    6  C   UNK N   1      44.579  22.204   3.662  0.00  0.00     0.101 A 
ENDROOT
BRANCH   4   7
HETATM    7  N   UNK N   1      41.808  19.731   3.362  0.00  0.00    -0.116 N 
HETATM    8  O   UNK N   1      40.597  19.761   3.877  0.00  0.00    -0.532 OA
HETATM    9  O   UNK N   1      42.272  18.687   3.010  0.00  0.00    -0.532 OA
ENDBRANCH   4   7
BRANCH   6  10
HETATM   10  O   UNK N   1      45.803  22.281   4.213  0.00  0.00    -0.358 OA
HETATM   11  H   UNK N   1      45.894  22.465   5.127  0.00  0.00     0.217 HD
ENDBRANCH   6  10
BRANCH   1  12
HETATM   12  O   UNK N   1      44.755  24.428   2.829  0.00  0.00    -0.358 OA
HETATM   13  H   UNK N   1      44.319  25.231   2.619  0.00  0.00     0.217 HD
ENDBRANCH   1  12
TORSDOF 3
ENDMDL
MODEL 9
REMARK VINA RESULT:      -4.7     14.709     15.961
REMARK  3 active torsions:
REMARK  status: ('A' for Active; 'I' for Inactive)
REMARK    1  A    between atoms: O_1  and  C_2 
REMARK    2  A    between atoms: C_5  and  N_9 
REMARK    3  A    between atoms: C_7  and  O_8 
ROOT
HETATM    1  C   UNK N   1      20.680  19.917   1.121  0.00  0.00     0.098 A 
HETATM    2  C   UNK N   1      20.898  20.618   2.310  0.00  0.00     0.042 A 
HETATM    3  C   UNK N   1      20.941  19.934   3.529  0.00  0.00     0.039 A 
HETATM    4  C   UNK N   1      20.767  18.541   3.564  0.00  0.00     0.105 A 
HETATM    5  C   UNK N   1      20.549  17.846   2.366  0.00  0.00     0.075 A 
HETATM    6  C   UNK N   1      20.505  18.527   1.150  0.00  0.00     0.101 A 
ENDROOT
BRANCH   4   7
HETATM    7  N   UNK N   1      20.811  17.841   4.801  0.00  0.00    -0.116 N 
HETATM    8  O   UNK N   1      21.318  18.415   5.871  0.00  0.00    -0.532 OA
HETATM    9  O   UNK N   1      20.387  16.726   4.876  0.00  0.00    -0.532 OA
ENDBRANCH   4   7
BRANCH   6  10
HETATM   10  O   UNK N   1      20.295  17.842   0.013  0.00  0.00    -0.358 OA
HETATM   11  H   UNK N   1      20.215  18.298  -0.801  0.00  0.00     0.217 HD
ENDBRANCH   6  10
BRANCH   1  12
HETATM   12  O   UNK N   1      20.639  20.581  -0.046  0.00  0.00    -0.358 OA
HETATM   13  H   UNK N   1      19.856  20.578  -0.561  0.00  0.00     0.217 HD
ENDBRANCH   1  12
TORSDOF 3
ENDMDL
