REMARK  6 active torsions:
REMARK  status: ('A' for Active; 'I' for Inactive)
REMARK    1  A    between atoms: C_4  and  C_2 
REMARK    2  A    between atoms: O_14  and  C_2 
REMARK    3  A    between atoms: C_5  and  O_15 
REMARK    4  A    between atoms: C_6  and  O_16 
REMARK    5  A    between atoms: C_7  and  O_17 
REMARK    6  A    between atoms: C_8  and  C_9 
ROOT
HETATM    1  C   UNK N   1       1.747   6.079  -0.415  0.00  0.00     0.177 C 
HETATM    2  C   UNK N   1       0.542   6.756   0.284  0.00  0.00     0.180 C 
HETATM    3  C   UNK N   1      -0.515   5.688   0.661  0.00  0.00     0.181 C 
HETATM    4  C   UNK N   1      -0.577   4.586  -0.406  0.00  0.00     0.186 C 
HETATM    5  C   UNK N   1       0.853   3.941  -0.551  0.00  0.00     0.229 C 
HETATM    6  O   UNK N   1       1.885   4.745   0.032  0.00  0.00    -0.365 OA
ENDROOT
BRANCH   5   7
HETATM    7  C   UNK N   1       0.943   2.549   0.012  0.00  0.00     0.172 A 
HETATM    8  N   UNK N   1       2.059   1.795  -0.042  0.00  0.00    -0.279 N 
HETATM    9  N   UNK N   1       1.743   0.610   0.455  0.00  0.00    -0.282 N 
ATOM     10  HN  UNK N   1       2.971   2.082  -0.397  1.00  0.00     0.189 HD
HETATM   11  C   UNK N   1       0.443   0.670   0.793  0.00  0.00     0.136 A 
ATOM     12  HN  UNK N   1       2.364  -0.193   0.560  1.00  0.00     0.189 HD
HETATM   13  C   UNK N   1      -0.334  -0.469   1.348  0.00  0.00     0.099 C 
HETATM   14  O   UNK N   1      -0.049   1.856   0.523  0.00  0.00    -0.280 OA
ENDBRANCH   5   7
BRANCH   4  15
HETATM   15  O   UNK N   1      -0.965   5.153  -1.624  0.00  0.00    -0.390 OA
HETATM   16  H   UNK N   1      -0.759   5.582  -2.469  0.00  0.00     0.210 HD
ENDBRANCH   4  15
BRANCH   3  17
HETATM   17  O   UNK N   1      -1.765   6.276   0.874  0.00  0.00    -0.390 OA
HETATM   18  H   UNK N   1      -1.844   7.232   1.021  0.00  0.00     0.210 HD
ENDBRANCH   3  17
BRANCH   1  19
HETATM   19  C   UNK N   1       3.042   6.862  -0.227  0.00  0.00     0.198 C 
BRANCH  19  20
HETATM   20  O   UNK N   1       3.407   6.902   1.120  0.00  0.00    -0.398 OA
HETATM   21  H   UNK N   1       3.558   6.696   2.056  0.00  0.00     0.209 HD
ENDBRANCH  19  20
ENDBRANCH   1  19
BRANCH   2  22
HETATM   22  O   UNK N   1       0.009   7.719  -0.581  0.00  0.00    -0.390 OA
HETATM   23  H   UNK N   1       0.403   8.372  -1.181  0.00  0.00     0.210 HD
ENDBRANCH   2  22
TORSDOF 6
