MODEL 1
REMARK VINA RESULT:      -8.5      0.000      0.000
REMARK  18 active torsions:
REMARK  status: ('A' for Active; 'I' for Inactive)
REMARK    1  A    between atoms: C_21  and  C_15 
REMARK    2  A    between atoms: C_25  and  C_15 
REMARK    3  A    between atoms: C_22  and  C_16 
REMARK    4  A    between atoms: C_26  and  C_16 
REMARK    5  A    between atoms: C_23  and  C_19 
REMARK    6  A    between atoms: O_45  and  C_19 
REMARK    7  A    between atoms: C_24  and  C_20 
REMARK    8  A    between atoms: O_46  and  C_20 
REMARK    9  A    between atoms: C_29  and  C_25 
REMARK   10  A    between atoms: C_25  and  N_35 
REMARK   11  A    between atoms: C_30  and  C_26 
REMARK   12  A    between atoms: C_26  and  N_37 
REMARK   13  A    between atoms: C_27  and  N_33 
REMARK   14  A    between atoms: C_29  and  O_41 
REMARK       I    between atoms: N_39  and  C_30 
REMARK   15  A    between atoms: C_31  and  O_43 
REMARK   16  A    between atoms: O_45  and  C_31 
REMARK   17  A    between atoms: C_32  and  O_44 
REMARK   18  A    between atoms: O_46  and  C_32 
ROOT
HETATM    1  C   UNK N   1      34.533  14.043  10.596  0.00  0.00     0.159 C 
HETATM    2  C   UNK N   1      36.640  15.144  10.593  0.00  0.00     0.206 C 
HETATM    3  C   UNK N   1      34.212  15.492  10.300  0.00  0.00     0.172 C 
HETATM    4  C   UNK N   1      35.539  16.124  10.495  0.00  0.00     0.168 C 
HETATM    5  C   UNK N   1      36.555  12.747  10.618  0.00  0.00     0.243 C 
HETATM    6  N   UNK N   1      35.945  13.913  10.322  0.00  0.00    -0.341 N 
HETATM    7  O   UNK N   1      35.714  17.331  10.522  0.00  0.00    -0.294 OA
HETATM    8  O   UNK N   1      36.757  11.977   9.689  0.00  0.00    -0.271 OA
ENDROOT
BRANCH   3   9
HETATM    9  N   UNK N   1      33.806  15.550   8.914  0.00  0.00    -0.360 N 
HETATM   10  C   UNK N   1      33.170  16.533   8.384  0.00  0.00     0.135 C 
ATOM     11  HN  UNK N   1      34.041  14.758   8.316  1.00  0.00     0.162 HD
BRANCH  10  12
HETATM   12  C   UNK N   1      32.609  16.370   6.994  0.00  0.00     0.160 C 
BRANCH  12  13
HETATM   13  C   UNK N   1      33.405  17.244   6.011  0.00  0.00     0.037 C 
BRANCH  13  14
HETATM   14  C   UNK N   1      33.643  16.648   4.620  0.00  0.00    -0.020 C 
HETATM   15  C   UNK N   1      33.741  15.143   4.739  0.00  0.00     0.009 C 
HETATM   16  C   UNK N   1      32.557  17.006   3.621  0.00  0.00     0.009 C 
ENDBRANCH  13  14
ENDBRANCH  12  13
BRANCH  12  17
HETATM   17  N   UNK N   1      31.209  16.775   6.986  0.00  0.00    -0.338 N 
HETATM   18  C   UNK N   1      30.253  16.087   6.457  0.00  0.00     0.259 C 
ATOM     19  HN  UNK N   1      30.968  17.662   7.427  1.00  0.00     0.164 HD
BRANCH  18  20
HETATM   20  O   UNK N   1      30.502  14.898   5.863  0.00  0.00    -0.327 OA
HETATM   21  H   UNK N   1      30.355  13.975   5.937  0.00  0.00     0.221 HD
ENDBRANCH  18  20
BRANCH  18  22
HETATM   22  O   UNK N   1      29.011  16.622   6.402  0.00  0.00    -0.312 OA
BRANCH  22  23
HETATM   23  C   UNK N   1      28.744  17.778   7.101  0.00  0.00     0.218 C 
BRANCH  23  24
HETATM   24  C   UNK N   1      28.040  18.815   6.300  0.00  0.00    -0.034 A 
HETATM   25  C   UNK N   1      27.491  19.926   6.951  0.00  0.00     0.009 A 
HETATM   26  C   UNK N   1      26.923  20.965   6.209  0.00  0.00     0.001 A 
HETATM   27  C   UNK N   1      26.922  20.904   4.812  0.00  0.00     0.000 A 
HETATM   28  C   UNK N   1      27.477  19.799   4.159  0.00  0.00     0.001 A 
HETATM   29  C   UNK N   1      28.039  18.755   4.901  0.00  0.00     0.009 A 
ENDBRANCH  23  24
ENDBRANCH  22  23
ENDBRANCH  18  22
ENDBRANCH  12  17
ENDBRANCH  10  12
BRANCH  10  30
HETATM   30  O   UNK N   1      32.954  17.670   9.083  0.00  0.00    -0.348 OA
HETATM   31  H   UNK N   1      33.418  18.144   9.744  0.00  0.00     0.219 HD
ENDBRANCH  10  30
ENDBRANCH   3   9
BRANCH   5  32
HETATM   32  C   UNK N   1      36.361  12.135  11.996  0.00  0.00     0.178 C 
BRANCH  32  33
HETATM   33  C   UNK N   1      36.667  10.623  12.047  0.00  0.00     0.038 C 
BRANCH  33  34
HETATM   34  C   UNK N   1      35.467   9.727  12.368  0.00  0.00    -0.020 C 
HETATM   35  C   UNK N   1      34.159  10.488  12.271  0.00  0.00     0.009 C 
HETATM   36  C   UNK N   1      35.609   9.164  13.765  0.00  0.00     0.009 C 
ENDBRANCH  33  34
ENDBRANCH  32  33
BRANCH  32  37
HETATM   37  N   UNK N   1      37.128  12.855  13.014  0.00  0.00    -0.337 N 
HETATM   38  C   UNK N   1      36.802  12.951  14.257  0.00  0.00     0.259 C 
ATOM     39  HN  UNK N   1      37.988  13.318  12.716  1.00  0.00     0.164 HD
BRANCH  38  40
HETATM   40  O   UNK N   1      37.593  13.660  15.096  0.00  0.00    -0.327 OA
HETATM   41  H   UNK N   1      37.329  14.381  15.633  0.00  0.00     0.221 HD
ENDBRANCH  38  40
BRANCH  38  42
HETATM   42  O   UNK N   1      35.652  12.406  14.714  0.00  0.00    -0.312 OA
BRANCH  42  43
HETATM   43  C   UNK N   1      34.824  13.058  15.594  0.00  0.00     0.218 C 
BRANCH  43  44
HETATM   44  C   UNK N   1      35.086  12.498  16.953  0.00  0.00    -0.034 A 
HETATM   45  C   UNK N   1      35.231  11.114  17.116  0.00  0.00     0.009 A 
HETATM   46  C   UNK N   1      35.391  10.569  18.391  0.00  0.00     0.001 A 
HETATM   47  C   UNK N   1      35.414  11.406  19.509  0.00  0.00     0.000 A 
HETATM   48  C   UNK N   1      35.280  12.789  19.351  0.00  0.00     0.001 A 
HETATM   49  C   UNK N   1      35.108  13.335  18.074  0.00  0.00     0.009 A 
ENDBRANCH  43  44
ENDBRANCH  42  43
ENDBRANCH  38  42
ENDBRANCH  32  37
ENDBRANCH   5  32
TORSDOF 18
ENDMDL
MODEL 2
REMARK VINA RESULT:      -7.8      6.467     12.855
REMARK  18 active torsions:
REMARK  status: ('A' for Active; 'I' for Inactive)
REMARK    1  A    between atoms: C_21  and  C_15 
REMARK    2  A    between atoms: C_25  and  C_15 
REMARK    3  A    between atoms: C_22  and  C_16 
REMARK    4  A    between atoms: C_26  and  C_16 
REMARK    5  A    between atoms: C_23  and  C_19 
REMARK    6  A    between atoms: O_45  and  C_19 
REMARK    7  A    between atoms: C_24  and  C_20 
REMARK    8  A    between atoms: O_46  and  C_20 
REMARK    9  A    between atoms: C_29  and  C_25 
REMARK   10  A    between atoms: C_25  and  N_35 
REMARK   11  A    between atoms: C_30  and  C_26 
REMARK   12  A    between atoms: C_26  and  N_37 
REMARK   13  A    between atoms: C_27  and  N_33 
REMARK   14  A    between atoms: C_29  and  O_41 
REMARK       I    between atoms: N_39  and  C_30 
REMARK   15  A    between atoms: C_31  and  O_43 
REMARK   16  A    between atoms: O_45  and  C_31 
REMARK   17  A    between atoms: C_32  and  O_44 
REMARK   18  A    between atoms: O_46  and  C_32 
ROOT
HETATM    1  C   UNK N   1      23.471  16.072   6.172  0.00  0.00     0.159 C 
HETATM    2  C   UNK N   1      22.807  16.264   3.898  0.00  0.00     0.206 C 
HETATM    3  C   UNK N   1      24.722  15.767   5.377  0.00  0.00     0.172 C 
HETATM    4  C   UNK N   1      24.180  15.730   3.997  0.00  0.00     0.168 C 
HETATM    5  C   UNK N   1      21.334  17.027   5.631  0.00  0.00     0.243 C 
HETATM    6  N   UNK N   1      22.593  16.739   5.240  0.00  0.00    -0.341 N 
HETATM    7  O   UNK N   1      24.819  15.347   3.031  0.00  0.00    -0.294 OA
HETATM    8  O   UNK N   1      21.112  18.178   5.978  0.00  0.00    -0.271 OA
ENDROOT
BRANCH   3   9
HETATM    9  N   UNK N   1      25.611  16.891   5.557  0.00  0.00    -0.360 N 
HETATM   10  C   UNK N   1      26.837  16.795   5.932  0.00  0.00     0.135 C 
ATOM     11  HN  UNK N   1      25.241  17.824   5.375  1.00  0.00     0.162 HD
BRANCH  10  12
HETATM   12  C   UNK N   1      27.584  18.051   6.301  0.00  0.00     0.160 C 
BRANCH  12  13
HETATM   13  C   UNK N   1      28.150  18.707   5.031  0.00  0.00     0.037 C 
BRANCH  13  14
HETATM   14  C   UNK N   1      27.727  20.157   4.775  0.00  0.00    -0.020 C 
HETATM   15  C   UNK N   1      26.716  20.184   3.650  0.00  0.00     0.009 C 
HETATM   16  C   UNK N   1      27.137  20.834   6.000  0.00  0.00     0.009 C 
ENDBRANCH  13  14
ENDBRANCH  12  13
BRANCH  12  17
HETATM   17  N   UNK N   1      28.676  17.717   7.206  0.00  0.00    -0.338 N 
HETATM   18  C   UNK N   1      28.613  17.813   8.493  0.00  0.00     0.259 C 
ATOM     19  HN  UNK N   1      29.549  17.386   6.797  1.00  0.00     0.164 HD
BRANCH  18  20
HETATM   20  O   UNK N   1      27.482  18.238   9.101  0.00  0.00    -0.327 OA
HETATM   21  H   UNK N   1      26.924  18.982   9.214  0.00  0.00     0.221 HD
ENDBRANCH  18  20
BRANCH  18  22
HETATM   22  O   UNK N   1      29.731  17.592   9.223  0.00  0.00    -0.312 OA
BRANCH  22  23
HETATM   23  C   UNK N   1      30.854  18.351   8.985  0.00  0.00     0.218 C 
BRANCH  23  24
HETATM   24  C   UNK N   1      32.017  17.566   8.491  0.00  0.00    -0.034 A 
HETATM   25  C   UNK N   1      33.143  18.242   8.008  0.00  0.00     0.009 A 
HETATM   26  C   UNK N   1      34.288  17.529   7.644  0.00  0.00     0.001 A 
HETATM   27  C   UNK N   1      34.316  16.138   7.780  0.00  0.00     0.000 A 
HETATM   28  C   UNK N   1      33.194  15.461   8.269  0.00  0.00     0.001 A 
HETATM   29  C   UNK N   1      32.045  16.173   8.628  0.00  0.00     0.009 A 
ENDBRANCH  23  24
ENDBRANCH  22  23
ENDBRANCH  18  22
ENDBRANCH  12  17
ENDBRANCH  10  12
BRANCH  10  30
HETATM   30  O   UNK N   1      27.427  15.584   6.052  0.00  0.00    -0.348 OA
HETATM   31  H   UNK N   1      27.474  14.929   6.720  0.00  0.00     0.219 HD
ENDBRANCH  10  30
ENDBRANCH   3   9
BRANCH   5  32
HETATM   32  C   UNK N   1      20.485  15.936   6.265  0.00  0.00     0.178 C 
BRANCH  32  33
HETATM   33  C   UNK N   1      19.252  16.476   7.020  0.00  0.00     0.038 C 
BRANCH  33  34
HETATM   34  C   UNK N   1      19.381  16.497   8.545  0.00  0.00    -0.020 C 
HETATM   35  C   UNK N   1      19.410  17.913   9.085  0.00  0.00     0.009 C 
HETATM   36  C   UNK N   1      20.648  15.783   8.961  0.00  0.00     0.009 C 
ENDBRANCH  33  34
ENDBRANCH  32  33
BRANCH  32  37
HETATM   37  N   UNK N   1      20.092  14.925   5.281  0.00  0.00    -0.337 N 
HETATM   38  C   UNK N   1      19.996  13.661   5.517  0.00  0.00     0.259 C 
ATOM     39  HN  UNK N   1      19.876  15.246   4.337  1.00  0.00     0.164 HD
BRANCH  38  40
HETATM   40  O   UNK N   1      19.634  12.828   4.513  0.00  0.00    -0.327 OA
HETATM   41  H   UNK N   1      20.032  12.771   3.667  0.00  0.00     0.221 HD
ENDBRANCH  38  40
BRANCH  38  42
HETATM   42  O   UNK N   1      20.313  13.158   6.730  0.00  0.00    -0.312 OA
BRANCH  42  43
HETATM   43  C   UNK N   1      21.152  12.082   6.888  0.00  0.00     0.218 C 
BRANCH  43  44
HETATM   44  C   UNK N   1      22.144  12.439   7.945  0.00  0.00    -0.034 A 
HETATM   45  C   UNK N   1      23.470  12.713   7.586  0.00  0.00     0.009 A 
HETATM   46  C   UNK N   1      24.427  12.966   8.571  0.00  0.00     0.001 A 
HETATM   47  C   UNK N   1      24.060  12.953   9.919  0.00  0.00     0.000 A 
HETATM   48  C   UNK N   1      22.735  12.691  10.281  0.00  0.00     0.001 A 
HETATM   49  C   UNK N   1      21.778  12.426   9.295  0.00  0.00     0.009 A 
ENDBRANCH  43  44
ENDBRANCH  42  43
ENDBRANCH  38  42
ENDBRANCH  32  37
ENDBRANCH   5  32
TORSDOF 18
ENDMDL
MODEL 3
REMARK VINA RESULT:      -7.6      2.230      3.529
REMARK  18 active torsions:
REMARK  status: ('A' for Active; 'I' for Inactive)
REMARK    1  A    between atoms: C_21  and  C_15 
REMARK    2  A    between atoms: C_25  and  C_15 
REMARK    3  A    between atoms: C_22  and  C_16 
REMARK    4  A    between atoms: C_26  and  C_16 
REMARK    5  A    between atoms: C_23  and  C_19 
REMARK    6  A    between atoms: O_45  and  C_19 
REMARK    7  A    between atoms: C_24  and  C_20 
REMARK    8  A    between atoms: O_46  and  C_20 
REMARK    9  A    between atoms: C_29  and  C_25 
REMARK   10  A    between atoms: C_25  and  N_35 
REMARK   11  A    between atoms: C_30  and  C_26 
REMARK   12  A    between atoms: C_26  and  N_37 
REMARK   13  A    between atoms: C_27  and  N_33 
REMARK   14  A    between atoms: C_29  and  O_41 
REMARK       I    between atoms: N_39  and  C_30 
REMARK   15  A    between atoms: C_31  and  O_43 
REMARK   16  A    between atoms: O_45  and  C_31 
REMARK   17  A    between atoms: C_32  and  O_44 
REMARK   18  A    between atoms: O_46  and  C_32 
ROOT
HETATM    1  C   UNK N   1      33.403  15.433   8.774  0.00  0.00     0.159 C 
HETATM    2  C   UNK N   1      34.835  15.688   6.894  0.00  0.00     0.206 C 
HETATM    3  C   UNK N   1      33.136  16.835   8.272  0.00  0.00     0.172 C 
HETATM    4  C   UNK N   1      34.184  16.970   7.231  0.00  0.00     0.168 C 
HETATM    5  C   UNK N   1      34.533  13.517   7.867  0.00  0.00     0.243 C 
HETATM    6  N   UNK N   1      34.055  14.763   7.673  0.00  0.00    -0.341 N 
HETATM    7  O   UNK N   1      34.448  18.022   6.673  0.00  0.00    -0.294 OA
HETATM    8  O   UNK N   1      33.853  12.591   7.447  0.00  0.00    -0.271 OA
ENDROOT
BRANCH   3   9
HETATM    9  N   UNK N   1      31.817  16.819   7.683  0.00  0.00    -0.360 N 
HETATM   10  C   UNK N   1      30.814  17.488   8.127  0.00  0.00     0.135 C 
ATOM     11  HN  UNK N   1      31.671  16.236   6.858  1.00  0.00     0.162 HD
BRANCH  10  12
HETATM   12  C   UNK N   1      29.445  17.207   7.563  0.00  0.00     0.160 C 
BRANCH  12  13
HETATM   13  C   UNK N   1      29.564  16.233   6.380  0.00  0.00     0.037 C 
BRANCH  13  14
HETATM   14  C   UNK N   1      29.404  16.843   4.984  0.00  0.00    -0.020 C 
HETATM   15  C   UNK N   1      30.524  16.343   4.096  0.00  0.00     0.009 C 
HETATM   16  C   UNK N   1      28.067  16.522   4.339  0.00  0.00     0.009 C 
ENDBRANCH  13  14
ENDBRANCH  12  13
BRANCH  12  17
HETATM   17  N   UNK N   1      28.841  18.454   7.109  0.00  0.00    -0.338 N 
HETATM   18  C   UNK N   1      27.920  19.095   7.749  0.00  0.00     0.259 C 
ATOM     19  HN  UNK N   1      29.167  18.847   6.227  1.00  0.00     0.164 HD
BRANCH  18  20
HETATM   20  O   UNK N   1      27.448  18.632   8.930  0.00  0.00    -0.327 OA
HETATM   21  H   UNK N   1      26.976  17.926   9.325  0.00  0.00     0.221 HD
ENDBRANCH  18  20
BRANCH  18  22
HETATM   22  O   UNK N   1      27.350  20.176   7.171  0.00  0.00    -0.312 OA
BRANCH  22  23
HETATM   23  C   UNK N   1      27.685  20.504   5.876  0.00  0.00     0.218 C 
BRANCH  23  24
HETATM   24  C   UNK N   1      26.638  20.158   4.878  0.00  0.00    -0.034 A 
HETATM   25  C   UNK N   1      25.544  19.381   5.276  0.00  0.00     0.009 A 
HETATM   26  C   UNK N   1      24.494  19.137   4.387  0.00  0.00     0.001 A 
HETATM   27  C   UNK N   1      24.527  19.688   3.102  0.00  0.00     0.000 A 
HETATM   28  C   UNK N   1      25.616  20.472   2.705  0.00  0.00     0.001 A 
HETATM   29  C   UNK N   1      26.670  20.710   3.593  0.00  0.00     0.009 A 
ENDBRANCH  23  24
ENDBRANCH  22  23
ENDBRANCH  18  22
ENDBRANCH  12  17
ENDBRANCH  10  12
BRANCH  10  30
HETATM   30  O   UNK N   1      30.974  18.386   9.126  0.00  0.00    -0.348 OA
HETATM   31  H   UNK N   1      30.582  18.524   9.966  0.00  0.00     0.219 HD
ENDBRANCH  10  30
ENDBRANCH   3   9
BRANCH   5  32
HETATM   32  C   UNK N   1      35.412  13.238   9.076  0.00  0.00     0.178 C 
BRANCH  32  33
HETATM   33  C   UNK N   1      36.311  11.994   8.912  0.00  0.00     0.038 C 
BRANCH  33  34
HETATM   34  C   UNK N   1      36.029  10.854   9.894  0.00  0.00    -0.020 C 
HETATM   35  C   UNK N   1      34.602  10.895  10.405  0.00  0.00     0.009 C 
HETATM   36  C   UNK N   1      36.978  10.944  11.068  0.00  0.00     0.009 C 
ENDBRANCH  33  34
ENDBRANCH  32  33
BRANCH  32  37
HETATM   37  N   UNK N   1      36.209  14.411   9.441  0.00  0.00    -0.337 N 
HETATM   38  C   UNK N   1      36.413  14.822  10.645  0.00  0.00     0.259 C 
ATOM     39  HN  UNK N   1      36.635  14.945   8.682  1.00  0.00     0.164 HD
BRANCH  38  40
HETATM   40  O   UNK N   1      37.161  15.933  10.846  0.00  0.00    -0.327 OA
HETATM   41  H   UNK N   1      37.943  16.167  10.387  0.00  0.00     0.221 HD
ENDBRANCH  38  40
BRANCH  38  42
HETATM   42  O   UNK N   1      35.840  14.195  11.697  0.00  0.00    -0.312 OA
BRANCH  42  43
HETATM   43  C   UNK N   1      36.076  14.569  12.997  0.00  0.00     0.218 C 
BRANCH  43  44
HETATM   44  C   UNK N   1      35.711  13.412  13.867  0.00  0.00    -0.034 A 
HETATM   45  C   UNK N   1      34.724  12.512  13.446  0.00  0.00     0.009 A 
HETATM   46  C   UNK N   1      34.313  11.475  14.286  0.00  0.00     0.001 A 
HETATM   47  C   UNK N   1      34.893  11.328  15.548  0.00  0.00     0.000 A 
HETATM   48  C   UNK N   1      35.888  12.217  15.968  0.00  0.00     0.001 A 
HETATM   49  C   UNK N   1      36.291  13.264  15.132  0.00  0.00     0.009 A 
ENDBRANCH  43  44
ENDBRANCH  42  43
ENDBRANCH  38  42
ENDBRANCH  32  37
ENDBRANCH   5  32
TORSDOF 18
ENDMDL
MODEL 4
REMARK VINA RESULT:      -7.5      1.849     10.958
REMARK  18 active torsions:
REMARK  status: ('A' for Active; 'I' for Inactive)
REMARK    1  A    between atoms: C_21  and  C_15 
REMARK    2  A    between atoms: C_25  and  C_15 
REMARK    3  A    between atoms: C_22  and  C_16 
REMARK    4  A    between atoms: C_26  and  C_16 
REMARK    5  A    between atoms: C_23  and  C_19 
REMARK    6  A    between atoms: O_45  and  C_19 
REMARK    7  A    between atoms: C_24  and  C_20 
REMARK    8  A    between atoms: O_46  and  C_20 
REMARK    9  A    between atoms: C_29  and  C_25 
REMARK   10  A    between atoms: C_25  and  N_35 
REMARK   11  A    between atoms: C_30  and  C_26 
REMARK   12  A    between atoms: C_26  and  N_37 
REMARK   13  A    between atoms: C_27  and  N_33 
REMARK   14  A    between atoms: C_29  and  O_41 
REMARK       I    between atoms: N_39  and  C_30 
REMARK   15  A    between atoms: C_31  and  O_43 
REMARK   16  A    between atoms: O_45  and  C_31 
REMARK   17  A    between atoms: C_32  and  O_44 
REMARK   18  A    between atoms: O_46  and  C_32 
ROOT
HETATM    1  C   UNK N   1      35.435  14.155   8.785  0.00  0.00     0.159 C 
HETATM    2  C   UNK N   1      34.163  16.142   9.072  0.00  0.00     0.206 C 
HETATM    3  C   UNK N   1      36.086  14.865   9.951  0.00  0.00     0.172 C 
HETATM    4  C   UNK N   1      35.356  16.156   9.942  0.00  0.00     0.168 C 
HETATM    5  C   UNK N   1      33.353  14.417   7.615  0.00  0.00     0.243 C 
HETATM    6  N   UNK N   1      34.130  14.762   8.662  0.00  0.00    -0.341 N 
HETATM    7  O   UNK N   1      35.677  17.117  10.621  0.00  0.00    -0.294 OA
HETATM    8  O   UNK N   1      32.463  13.605   7.831  0.00  0.00    -0.271 OA
ENDROOT
BRANCH   3   9
HETATM    9  N   UNK N   1      35.769  14.097  11.133  0.00  0.00    -0.360 N 
HETATM   10  C   UNK N   1      36.619  13.391  11.790  0.00  0.00     0.135 C 
ATOM     11  HN  UNK N   1      34.806  14.116  11.469  1.00  0.00     0.162 HD
BRANCH  10  12
HETATM   12  C   UNK N   1      36.115  12.460  12.863  0.00  0.00     0.160 C 
BRANCH  12  13
HETATM   13  C   UNK N   1      34.882  11.699  12.348  0.00  0.00     0.037 C 
BRANCH  13  14
HETATM   14  C   UNK N   1      34.456  10.474  13.163  0.00  0.00    -0.020 C 
HETATM   15  C   UNK N   1      35.692   9.791  13.707  0.00  0.00     0.009 C 
HETATM   16  C   UNK N   1      33.521  10.813  14.311  0.00  0.00     0.009 C 
ENDBRANCH  13  14
ENDBRANCH  12  13
BRANCH  12  17
HETATM   17  N   UNK N   1      35.754  13.232  14.045  0.00  0.00    -0.338 N 
HETATM   18  C   UNK N   1      36.541  13.441  15.048  0.00  0.00     0.259 C 
ATOM     19  HN  UNK N   1      34.818  13.634  14.083  1.00  0.00     0.164 HD
BRANCH  18  20
HETATM   20  O   UNK N   1      37.798  12.943  15.058  0.00  0.00    -0.327 OA
HETATM   21  H   UNK N   1      38.551  12.794  14.521  0.00  0.00     0.221 HD
ENDBRANCH  18  20
BRANCH  18  22
HETATM   22  O   UNK N   1      36.054  14.070  16.143  0.00  0.00    -0.312 OA
BRANCH  22  23
HETATM   23  C   UNK N   1      34.965  13.540  16.797  0.00  0.00     0.218 C 
BRANCH  23  24
HETATM   24  C   UNK N   1      35.312  12.470  17.771  0.00  0.00    -0.034 A 
HETATM   25  C   UNK N   1      35.313  12.765  19.139  0.00  0.00     0.009 A 
HETATM   26  C   UNK N   1      35.525  11.751  20.077  0.00  0.00     0.001 A 
HETATM   27  C   UNK N   1      35.719  10.434  19.648  0.00  0.00     0.000 A 
HETATM   28  C   UNK N   1      35.710  10.136  18.281  0.00  0.00     0.001 A 
HETATM   29  C   UNK N   1      35.504  11.152  17.342  0.00  0.00     0.009 A 
ENDBRANCH  23  24
ENDBRANCH  22  23
ENDBRANCH  18  22
ENDBRANCH  12  17
ENDBRANCH  10  12
BRANCH  10  30
HETATM   30  O   UNK N   1      37.935  13.435  11.482  0.00  0.00    -0.348 OA
HETATM   31  H   UNK N   1      38.432  13.575  10.700  0.00  0.00     0.219 HD
ENDBRANCH  10  30
ENDBRANCH   3   9
BRANCH   5  32
HETATM   32  C   UNK N   1      33.938  14.448   6.212  0.00  0.00     0.178 C 
BRANCH  32  33
HETATM   33  C   UNK N   1      33.146  13.599   5.195  0.00  0.00     0.038 C 
BRANCH  33  34
HETATM   34  C   UNK N   1      33.990  12.938   4.103  0.00  0.00    -0.020 C 
HETATM   35  C   UNK N   1      35.417  12.705   4.562  0.00  0.00     0.009 C 
HETATM   36  C   UNK N   1      34.005  13.812   2.868  0.00  0.00     0.009 C 
ENDBRANCH  33  34
ENDBRANCH  32  33
BRANCH  32  37
HETATM   37  N   UNK N   1      34.099  15.821   5.730  0.00  0.00    -0.337 N 
HETATM   38  C   UNK N   1      33.159  16.700   5.671  0.00  0.00     0.259 C 
ATOM     39  HN  UNK N   1      35.028  16.103   5.415  1.00  0.00     0.164 HD
BRANCH  38  40
HETATM   40  O   UNK N   1      33.437  17.935   5.191  0.00  0.00    -0.327 OA
HETATM   41  H   UNK N   1      34.122  18.504   5.483  0.00  0.00     0.221 HD
ENDBRANCH  38  40
BRANCH  38  42
HETATM   42  O   UNK N   1      31.893  16.384   6.025  0.00  0.00    -0.312 OA
BRANCH  42  43
HETATM   43  C   UNK N   1      30.823  17.200   5.748  0.00  0.00     0.218 C 
BRANCH  43  44
HETATM   44  C   UNK N   1      30.165  17.529   7.047  0.00  0.00    -0.034 A 
HETATM   45  C   UNK N   1      28.791  17.801   7.078  0.00  0.00     0.009 A 
HETATM   46  C   UNK N   1      28.178  18.192   8.270  0.00  0.00     0.001 A 
HETATM   47  C   UNK N   1      28.936  18.308   9.438  0.00  0.00     0.000 A 
HETATM   48  C   UNK N   1      30.306  18.027   9.414  0.00  0.00     0.001 A 
HETATM   49  C   UNK N   1      30.923  17.646   8.217  0.00  0.00     0.009 A 
ENDBRANCH  43  44
ENDBRANCH  42  43
ENDBRANCH  38  42
ENDBRANCH  32  37
ENDBRANCH   5  32
TORSDOF 18
ENDMDL
MODEL 5
REMARK VINA RESULT:      -7.4      2.060      3.511
REMARK  18 active torsions:
REMARK  status: ('A' for Active; 'I' for Inactive)
REMARK    1  A    between atoms: C_21  and  C_15 
REMARK    2  A    between atoms: C_25  and  C_15 
REMARK    3  A    between atoms: C_22  and  C_16 
REMARK    4  A    between atoms: C_26  and  C_16 
REMARK    5  A    between atoms: C_23  and  C_19 
REMARK    6  A    between atoms: O_45  and  C_19 
REMARK    7  A    between atoms: C_24  and  C_20 
REMARK    8  A    between atoms: O_46  and  C_20 
REMARK    9  A    between atoms: C_29  and  C_25 
REMARK   10  A    between atoms: C_25  and  N_35 
REMARK   11  A    between atoms: C_30  and  C_26 
REMARK   12  A    between atoms: C_26  and  N_37 
REMARK   13  A    between atoms: C_27  and  N_33 
REMARK   14  A    between atoms: C_29  and  O_41 
REMARK       I    between atoms: N_39  and  C_30 
REMARK   15  A    between atoms: C_31  and  O_43 
REMARK   16  A    between atoms: O_45  and  C_31 
REMARK   17  A    between atoms: C_32  and  O_44 
REMARK   18  A    between atoms: O_46  and  C_32 
ROOT
HETATM    1  C   UNK N   1      34.179  14.657  10.693  0.00  0.00     0.159 C 
HETATM    2  C   UNK N   1      36.370  15.576  10.632  0.00  0.00     0.206 C 
HETATM    3  C   UNK N   1      33.992  16.069  10.182  0.00  0.00     0.172 C 
HETATM    4  C   UNK N   1      35.361  16.616  10.348  0.00  0.00     0.168 C 
HETATM    5  C   UNK N   1      36.083  13.222  10.988  0.00  0.00     0.243 C 
HETATM    6  N   UNK N   1      35.583  14.378  10.504  0.00  0.00    -0.341 N 
HETATM    7  O   UNK N   1      35.636  17.797  10.213  0.00  0.00    -0.294 OA
HETATM    8  O   UNK N   1      36.250  12.313  10.186  0.00  0.00    -0.271 OA
ENDROOT
BRANCH   3   9
HETATM    9  N   UNK N   1      33.640  15.961   8.786  0.00  0.00    -0.360 N 
HETATM   10  C   UNK N   1      32.693  16.620   8.221  0.00  0.00     0.135 C 
ATOM     11  HN  UNK N   1      34.180  15.316   8.208  1.00  0.00     0.162 HD
BRANCH  10  12
HETATM   12  C   UNK N   1      32.282  16.247   6.820  0.00  0.00     0.160 C 
BRANCH  12  13
HETATM   13  C   UNK N   1      31.107  17.132   6.374  0.00  0.00     0.037 C 
BRANCH  13  14
HETATM   14  C   UNK N   1      29.709  16.526   6.529  0.00  0.00    -0.020 C 
HETATM   15  C   UNK N   1      28.840  17.484   7.314  0.00  0.00     0.009 C 
HETATM   16  C   UNK N   1      29.041  16.212   5.201  0.00  0.00     0.009 C 
ENDBRANCH  13  14
ENDBRANCH  12  13
BRANCH  12  17
HETATM   17  N   UNK N   1      31.879  14.847   6.788  0.00  0.00    -0.338 N 
HETATM   18  C   UNK N   1      32.416  13.949   6.032  0.00  0.00     0.259 C 
ATOM     19  HN  UNK N   1      31.120  14.557   7.405  1.00  0.00     0.164 HD
BRANCH  18  20
HETATM   20  O   UNK N   1      33.432  14.265   5.196  0.00  0.00    -0.327 OA
HETATM   21  H   UNK N   1      33.648  14.759   4.430  0.00  0.00     0.221 HD
ENDBRANCH  18  20
BRANCH  18  22
HETATM   22  O   UNK N   1      31.877  12.709   6.001  0.00  0.00    -0.312 OA
BRANCH  22  23
HETATM   23  C   UNK N   1      31.709  12.076   4.789  0.00  0.00     0.218 C 
BRANCH  23  24
HETATM   24  C   UNK N   1      30.502  12.521   4.042  0.00  0.00    -0.034 A 
HETATM   25  C   UNK N   1      29.233  12.215   4.549  0.00  0.00     0.009 A 
HETATM   26  C   UNK N   1      28.088  12.716   3.925  0.00  0.00     0.001 A 
HETATM   27  C   UNK N   1      28.210  13.542   2.803  0.00  0.00     0.000 A 
HETATM   28  C   UNK N   1      29.477  13.854   2.300  0.00  0.00     0.001 A 
HETATM   29  C   UNK N   1      30.624  13.348   2.920  0.00  0.00     0.009 A 
ENDBRANCH  23  24
ENDBRANCH  22  23
ENDBRANCH  18  22
ENDBRANCH  12  17
ENDBRANCH  10  12
BRANCH  10  30
HETATM   30  O   UNK N   1      32.034  17.591   8.894  0.00  0.00    -0.348 OA
HETATM   31  H   UNK N   1      32.025  18.527   8.874  0.00  0.00     0.219 HD
ENDBRANCH  10  30
ENDBRANCH   3   9
BRANCH   5  32
HETATM   32  C   UNK N   1      35.792  12.831  12.428  0.00  0.00     0.178 C 
BRANCH  32  33
HETATM   33  C   UNK N   1      35.683  11.306  12.642  0.00  0.00     0.038 C 
BRANCH  33  34
HETATM   34  C   UNK N   1      34.257  10.750  12.643  0.00  0.00    -0.020 C 
HETATM   35  C   UNK N   1      33.764  10.474  14.051  0.00  0.00     0.009 C 
HETATM   36  C   UNK N   1      34.208   9.467  11.843  0.00  0.00     0.009 C 
ENDBRANCH  33  34
ENDBRANCH  32  33
BRANCH  32  37
HETATM   37  N   UNK N   1      36.767  13.417  13.349  0.00  0.00    -0.337 N 
HETATM   38  C   UNK N   1      36.621  13.500  14.627  0.00  0.00     0.259 C 
ATOM     39  HN  UNK N   1      37.628  13.791  12.948  1.00  0.00     0.164 HD
BRANCH  38  40
HETATM   40  O   UNK N   1      37.595  14.079  15.367  0.00  0.00    -0.327 OA
HETATM   41  H   UNK N   1      37.472  14.645  16.104  0.00  0.00     0.221 HD
ENDBRANCH  38  40
BRANCH  38  42
HETATM   42  O   UNK N   1      35.486  13.071  15.223  0.00  0.00    -0.312 OA
BRANCH  42  43
HETATM   43  C   UNK N   1      34.980  13.659  16.357  0.00  0.00     0.218 C 
BRANCH  43  44
HETATM   44  C   UNK N   1      35.181  12.700  17.484  0.00  0.00    -0.034 A 
HETATM   45  C   UNK N   1      35.265  11.327  17.220  0.00  0.00     0.009 A 
HETATM   46  C   UNK N   1      35.369  10.414  18.270  0.00  0.00     0.001 A 
HETATM   47  C   UNK N   1      35.395  10.869  19.590  0.00  0.00     0.000 A 
HETATM   48  C   UNK N   1      35.322  12.240  19.859  0.00  0.00     0.001 A 
HETATM   49  C   UNK N   1      35.207  13.156  18.807  0.00  0.00     0.009 A 
ENDBRANCH  43  44
ENDBRANCH  42  43
ENDBRANCH  38  42
ENDBRANCH  32  37
ENDBRANCH   5  32
TORSDOF 18
ENDMDL
MODEL 6
REMARK VINA RESULT:      -7.4      6.515     12.148
REMARK  18 active torsions:
REMARK  status: ('A' for Active; 'I' for Inactive)
REMARK    1  A    between atoms: C_21  and  C_15 
REMARK    2  A    between atoms: C_25  and  C_15 
REMARK    3  A    between atoms: C_22  and  C_16 
REMARK    4  A    between atoms: C_26  and  C_16 
REMARK    5  A    between atoms: C_23  and  C_19 
REMARK    6  A    between atoms: O_45  and  C_19 
REMARK    7  A    between atoms: C_24  and  C_20 
REMARK    8  A    between atoms: O_46  and  C_20 
REMARK    9  A    between atoms: C_29  and  C_25 
REMARK   10  A    between atoms: C_25  and  N_35 
REMARK   11  A    between atoms: C_30  and  C_26 
REMARK   12  A    between atoms: C_26  and  N_37 
REMARK   13  A    between atoms: C_27  and  N_33 
REMARK   14  A    between atoms: C_29  and  O_41 
REMARK       I    between atoms: N_39  and  C_30 
REMARK   15  A    between atoms: C_31  and  O_43 
REMARK   16  A    between atoms: O_45  and  C_31 
REMARK   17  A    between atoms: C_32  and  O_44 
REMARK   18  A    between atoms: O_46  and  C_32 
ROOT
HETATM    1  C   UNK N   1      24.124  15.535   6.236  0.00  0.00     0.159 C 
HETATM    2  C   UNK N   1      23.257  15.558   4.023  0.00  0.00     0.206 C 
HETATM    3  C   UNK N   1      25.247  14.998   5.376  0.00  0.00     0.172 C 
HETATM    4  C   UNK N   1      24.567  14.878   4.063  0.00  0.00     0.168 C 
HETATM    5  C   UNK N   1      22.060  16.674   5.776  0.00  0.00     0.243 C 
HETATM    6  N   UNK N   1      23.233  16.197   5.313  0.00  0.00    -0.341 N 
HETATM    7  O   UNK N   1      25.060  14.318   3.098  0.00  0.00    -0.294 OA
HETATM    8  O   UNK N   1      22.000  17.875   6.002  0.00  0.00    -0.271 OA
ENDROOT
BRANCH   3   9
HETATM    9  N   UNK N   1      26.267  16.021   5.342  0.00  0.00    -0.360 N 
HETATM   10  C   UNK N   1      27.528  15.788   5.256  0.00  0.00     0.135 C 
ATOM     11  HN  UNK N   1      25.966  16.994   5.390  1.00  0.00     0.162 HD
BRANCH  10  12
HETATM   12  C   UNK N   1      28.493  16.926   5.460  0.00  0.00     0.160 C 
BRANCH  12  13
HETATM   13  C   UNK N   1      29.604  16.858   4.399  0.00  0.00     0.037 C 
BRANCH  13  14
HETATM   14  C   UNK N   1      31.034  16.720   4.928  0.00  0.00    -0.020 C 
HETATM   15  C   UNK N   1      31.480  15.282   4.775  0.00  0.00     0.009 C 
HETATM   16  C   UNK N   1      32.024  17.632   4.225  0.00  0.00     0.009 C 
ENDBRANCH  13  14
ENDBRANCH  12  13
BRANCH  12  17
HETATM   17  N   UNK N   1      29.082  16.831   6.790  0.00  0.00    -0.338 N 
HETATM   18  C   UNK N   1      28.783  17.607   7.779  0.00  0.00     0.259 C 
ATOM     19  HN  UNK N   1      29.777  16.103   6.951  1.00  0.00     0.164 HD
BRANCH  18  20
HETATM   20  O   UNK N   1      27.863  18.588   7.634  0.00  0.00    -0.327 OA
HETATM   21  H   UNK N   1      27.182  18.903   7.074  0.00  0.00     0.221 HD
ENDBRANCH  18  20
BRANCH  18  22
HETATM   22  O   UNK N   1      29.483  17.501   8.931  0.00  0.00    -0.312 OA
BRANCH  22  23
HETATM   23  C   UNK N   1      30.668  18.190   9.066  0.00  0.00     0.218 C 
BRANCH  23  24
HETATM   24  C   UNK N   1      31.845  17.477   8.502  0.00  0.00    -0.034 A 
HETATM   25  C   UNK N   1      32.882  18.219   7.924  0.00  0.00     0.009 A 
HETATM   26  C   UNK N   1      34.046  17.580   7.489  0.00  0.00     0.001 A 
HETATM   27  C   UNK N   1      34.183  16.197   7.650  0.00  0.00     0.000 A 
HETATM   28  C   UNK N   1      33.152  15.455   8.234  0.00  0.00     0.001 A 
HETATM   29  C   UNK N   1      31.984  16.094   8.664  0.00  0.00     0.009 A 
ENDBRANCH  23  24
ENDBRANCH  22  23
ENDBRANCH  18  22
ENDBRANCH  12  17
ENDBRANCH  10  12
BRANCH  10  30
HETATM   30  O   UNK N   1      27.982  14.531   5.047  0.00  0.00    -0.348 OA
HETATM   31  H   UNK N   1      28.424  13.887   5.566  0.00  0.00     0.219 HD
ENDBRANCH  10  30
ENDBRANCH   3   9
BRANCH   5  32
HETATM   32  C   UNK N   1      21.166  15.768   6.608  0.00  0.00     0.178 C 
BRANCH  32  33
HETATM   33  C   UNK N   1      19.942  16.492   7.208  0.00  0.00     0.038 C 
BRANCH  33  34
HETATM   34  C   UNK N   1      19.940  16.610   8.735  0.00  0.00    -0.020 C 
HETATM   35  C   UNK N   1      19.667  15.274   9.399  0.00  0.00     0.009 C 
HETATM   36  C   UNK N   1      18.886  17.603   9.170  0.00  0.00     0.009 C 
ENDBRANCH  33  34
ENDBRANCH  32  33
BRANCH  32  37
HETATM   37  N   UNK N   1      20.750  14.585   5.851  0.00  0.00    -0.337 N 
HETATM   38  C   UNK N   1      20.839  13.369   6.270  0.00  0.00     0.259 C 
ATOM     39  HN  UNK N   1      20.361  14.735   4.919  1.00  0.00     0.164 HD
BRANCH  38  40
HETATM   40  O   UNK N   1      20.431  12.361   5.464  0.00  0.00    -0.327 OA
HETATM   41  H   UNK N   1      19.603  12.297   5.029  0.00  0.00     0.221 HD
ENDBRANCH  38  40
BRANCH  38  42
HETATM   42  O   UNK N   1      21.389  13.090   7.472  0.00  0.00    -0.312 OA
BRANCH  42  43
HETATM   43  C   UNK N   1      22.621  12.497   7.601  0.00  0.00     0.218 C 
BRANCH  43  44
HETATM   44  C   UNK N   1      22.918  12.396   9.061  0.00  0.00    -0.034 A 
HETATM   45  C   UNK N   1      24.246  12.295   9.493  0.00  0.00     0.009 A 
HETATM   46  C   UNK N   1      24.534  12.116  10.847  0.00  0.00     0.001 A 
HETATM   47  C   UNK N   1      23.494  12.042  11.777  0.00  0.00     0.000 A 
HETATM   48  C   UNK N   1      22.166  12.153  11.352  0.00  0.00     0.001 A 
HETATM   49  C   UNK N   1      21.877  12.321   9.993  0.00  0.00     0.009 A 
ENDBRANCH  43  44
ENDBRANCH  42  43
ENDBRANCH  38  42
ENDBRANCH  32  37
ENDBRANCH   5  32
TORSDOF 18
ENDMDL
MODEL 7
REMARK VINA RESULT:      -7.3      2.252      3.423
REMARK  18 active torsions:
REMARK  status: ('A' for Active; 'I' for Inactive)
REMARK    1  A    between atoms: C_21  and  C_15 
REMARK    2  A    between atoms: C_25  and  C_15 
REMARK    3  A    between atoms: C_22  and  C_16 
REMARK    4  A    between atoms: C_26  and  C_16 
REMARK    5  A    between atoms: C_23  and  C_19 
REMARK    6  A    between atoms: O_45  and  C_19 
REMARK    7  A    between atoms: C_24  and  C_20 
REMARK    8  A    between atoms: O_46  and  C_20 
REMARK    9  A    between atoms: C_29  and  C_25 
REMARK   10  A    between atoms: C_25  and  N_35 
REMARK   11  A    between atoms: C_30  and  C_26 
REMARK   12  A    between atoms: C_26  and  N_37 
REMARK   13  A    between atoms: C_27  and  N_33 
REMARK   14  A    between atoms: C_29  and  O_41 
REMARK       I    between atoms: N_39  and  C_30 
REMARK   15  A    between atoms: C_31  and  O_43 
REMARK   16  A    between atoms: O_45  and  C_31 
REMARK   17  A    between atoms: C_32  and  O_44 
REMARK   18  A    between atoms: O_46  and  C_32 
ROOT
HETATM    1  C   UNK N   1      33.665  14.525   9.611  0.00  0.00     0.159 C 
HETATM    2  C   UNK N   1      34.979  13.581   7.871  0.00  0.00     0.206 C 
HETATM    3  C   UNK N   1      33.990  15.687   8.699  0.00  0.00     0.172 C 
HETATM    4  C   UNK N   1      34.946  15.053   7.759  0.00  0.00     0.168 C 
HETATM    5  C   UNK N   1      33.836  12.138   9.408  0.00  0.00     0.243 C 
HETATM    6  N   UNK N   1      33.919  13.347   8.816  0.00  0.00    -0.341 N 
HETATM    7  O   UNK N   1      35.602  15.677   6.942  0.00  0.00    -0.294 OA
HETATM    8  O   UNK N   1      32.810  11.499   9.220  0.00  0.00    -0.271 OA
ENDROOT
BRANCH   3   9
HETATM    9  N   UNK N   1      32.760  16.043   8.029  0.00  0.00    -0.360 N 
HETATM   10  C   UNK N   1      32.563  17.155   7.415  0.00  0.00     0.135 C 
ATOM     11  HN  UNK N   1      31.998  15.366   8.043  1.00  0.00     0.162 HD
BRANCH  10  12
HETATM   12  C   UNK N   1      31.167  17.495   6.958  0.00  0.00     0.160 C 
BRANCH  12  13
HETATM   13  C   UNK N   1      30.200  17.413   8.150  0.00  0.00     0.037 C 
BRANCH  13  14
HETATM   14  C   UNK N   1      28.708  17.515   7.817  0.00  0.00    -0.020 C 
HETATM   15  C   UNK N   1      27.905  17.290   9.079  0.00  0.00     0.009 C 
HETATM   16  C   UNK N   1      28.321  18.849   7.203  0.00  0.00     0.009 C 
ENDBRANCH  13  14
ENDBRANCH  12  13
BRANCH  12  17
HETATM   17  N   UNK N   1      30.752  16.553   5.927  0.00  0.00    -0.338 N 
HETATM   18  C   UNK N   1      30.893  16.750   4.658  0.00  0.00     0.259 C 
ATOM     19  HN  UNK N   1      30.320  15.679   6.226  1.00  0.00     0.164 HD
BRANCH  18  20
HETATM   20  O   UNK N   1      31.464  17.885   4.193  0.00  0.00    -0.327 OA
HETATM   21  H   UNK N   1      31.665  18.772   4.418  0.00  0.00     0.221 HD
ENDBRANCH  18  20
BRANCH  18  22
HETATM   22  O   UNK N   1      30.358  15.859   3.791  0.00  0.00    -0.312 OA
BRANCH  22  23
HETATM   23  C   UNK N   1      29.569  16.312   2.758  0.00  0.00     0.218 C 
BRANCH  23  24
HETATM   24  C   UNK N   1      28.114  16.308   3.067  0.00  0.00    -0.034 A 
HETATM   25  C   UNK N   1      27.551  17.408   3.724  0.00  0.00     0.009 A 
HETATM   26  C   UNK N   1      26.169  17.475   3.925  0.00  0.00     0.001 A 
HETATM   27  C   UNK N   1      25.346  16.449   3.451  0.00  0.00     0.000 A 
HETATM   28  C   UNK N   1      25.906  15.353   2.787  0.00  0.00     0.001 A 
HETATM   29  C   UNK N   1      27.289  15.282   2.592  0.00  0.00     0.009 A 
ENDBRANCH  23  24
ENDBRANCH  22  23
ENDBRANCH  18  22
ENDBRANCH  12  17
ENDBRANCH  10  12
BRANCH  10  30
HETATM   30  O   UNK N   1      33.576  18.033   7.238  0.00  0.00    -0.348 OA
HETATM   31  H   UNK N   1      33.828  18.848   7.627  0.00  0.00     0.219 HD
ENDBRANCH  10  30
ENDBRANCH   3   9
BRANCH   5  32
HETATM   32  C   UNK N   1      34.572  11.898  10.717  0.00  0.00     0.178 C 
BRANCH  32  33
HETATM   33  C   UNK N   1      34.512  10.433  11.199  0.00  0.00     0.038 C 
BRANCH  33  34
HETATM   34  C   UNK N   1      34.925  10.211  12.656  0.00  0.00    -0.020 C 
HETATM   35  C   UNK N   1      35.353   8.778  12.905  0.00  0.00     0.009 C 
HETATM   36  C   UNK N   1      33.769  10.547  13.572  0.00  0.00     0.009 C 
ENDBRANCH  33  34
ENDBRANCH  32  33
BRANCH  32  37
HETATM   37  N   UNK N   1      35.957  12.367  10.645  0.00  0.00    -0.337 N 
HETATM   38  C   UNK N   1      36.528  13.125  11.517  0.00  0.00     0.259 C 
ATOM     39  HN  UNK N   1      36.514  12.070   9.843  1.00  0.00     0.164 HD
BRANCH  38  40
HETATM   40  O   UNK N   1      37.815  13.499  11.326  0.00  0.00    -0.327 OA
HETATM   41  H   UNK N   1      38.265  13.543  10.506  0.00  0.00     0.221 HD
ENDBRANCH  38  40
BRANCH  38  42
HETATM   42  O   UNK N   1      35.839  13.598  12.580  0.00  0.00    -0.312 OA
BRANCH  42  43
HETATM   43  C   UNK N   1      36.459  14.086  13.704  0.00  0.00     0.218 C 
BRANCH  43  44
HETATM   44  C   UNK N   1      36.299  13.066  14.782  0.00  0.00    -0.034 A 
HETATM   45  C   UNK N   1      37.128  11.937  14.796  0.00  0.00     0.009 A 
HETATM   46  C   UNK N   1      36.934  10.934  15.748  0.00  0.00     0.001 A 
HETATM   47  C   UNK N   1      35.913  11.057  16.693  0.00  0.00     0.000 A 
HETATM   48  C   UNK N   1      35.089  12.188  16.689  0.00  0.00     0.001 A 
HETATM   49  C   UNK N   1      35.276  13.188  15.729  0.00  0.00     0.009 A 
ENDBRANCH  43  44
ENDBRANCH  42  43
ENDBRANCH  38  42
ENDBRANCH  32  37
ENDBRANCH   5  32
TORSDOF 18
ENDMDL
MODEL 8
REMARK VINA RESULT:      -7.3      8.056     12.320
REMARK  18 active torsions:
REMARK  status: ('A' for Active; 'I' for Inactive)
REMARK    1  A    between atoms: C_21  and  C_15 
REMARK    2  A    between atoms: C_25  and  C_15 
REMARK    3  A    between atoms: C_22  and  C_16 
REMARK    4  A    between atoms: C_26  and  C_16 
REMARK    5  A    between atoms: C_23  and  C_19 
REMARK    6  A    between atoms: O_45  and  C_19 
REMARK    7  A    between atoms: C_24  and  C_20 
REMARK    8  A    between atoms: O_46  and  C_20 
REMARK    9  A    between atoms: C_29  and  C_25 
REMARK   10  A    between atoms: C_25  and  N_35 
REMARK   11  A    between atoms: C_30  and  C_26 
REMARK   12  A    between atoms: C_26  and  N_37 
REMARK   13  A    between atoms: C_27  and  N_33 
REMARK   14  A    between atoms: C_29  and  O_41 
REMARK       I    between atoms: N_39  and  C_30 
REMARK   15  A    between atoms: C_31  and  O_43 
REMARK   16  A    between atoms: O_45  and  C_31 
REMARK   17  A    between atoms: C_32  and  O_44 
REMARK   18  A    between atoms: O_46  and  C_32 
ROOT
HETATM    1  C   UNK N   1      25.072  16.405   4.325  0.00  0.00     0.159 C 
HETATM    2  C   UNK N   1      26.080  18.309   3.321  0.00  0.00     0.206 C 
HETATM    3  C   UNK N   1      24.369  17.590   4.951  0.00  0.00     0.172 C 
HETATM    4  C   UNK N   1      25.172  18.715   4.413  0.00  0.00     0.168 C 
HETATM    5  C   UNK N   1      26.517  16.128   2.426  0.00  0.00     0.243 C 
HETATM    6  N   UNK N   1      25.701  16.933   3.137  0.00  0.00    -0.341 N 
HETATM    7  O   UNK N   1      25.060  19.867   4.796  0.00  0.00    -0.294 OA
HETATM    8  O   UNK N   1      26.050  15.621   1.415  0.00  0.00    -0.271 OA
ENDROOT
BRANCH   3   9
HETATM    9  N   UNK N   1      23.028  17.605   4.416  0.00  0.00    -0.360 N 
HETATM   10  C   UNK N   1      21.978  17.907   5.093  0.00  0.00     0.135 C 
ATOM     11  HN  UNK N   1      22.905  17.360   3.433  1.00  0.00     0.162 HD
BRANCH  10  12
HETATM   12  C   UNK N   1      20.623  17.663   4.480  0.00  0.00     0.160 C 
BRANCH  12  13
HETATM   13  C   UNK N   1      19.990  16.410   5.108  0.00  0.00     0.037 C 
BRANCH  13  14
HETATM   14  C   UNK N   1      20.343  15.073   4.450  0.00  0.00    -0.020 C 
HETATM   15  C   UNK N   1      21.267  14.301   5.367  0.00  0.00     0.009 C 
HETATM   16  C   UNK N   1      19.126  14.224   4.128  0.00  0.00     0.009 C 
ENDBRANCH  13  14
ENDBRANCH  12  13
BRANCH  12  17
HETATM   17  N   UNK N   1      20.768  17.467   3.043  0.00  0.00    -0.338 N 
HETATM   18  C   UNK N   1      19.880  17.804   2.167  0.00  0.00     0.259 C 
ATOM     19  HN  UNK N   1      21.628  17.036   2.706  1.00  0.00     0.164 HD
BRANCH  18  20
HETATM   20  O   UNK N   1      18.721  18.388   2.546  0.00  0.00    -0.327 OA
HETATM   21  H   UNK N   1      18.319  18.887   3.230  0.00  0.00     0.221 HD
ENDBRANCH  18  20
BRANCH  18  22
HETATM   22  O   UNK N   1      20.073  17.462   0.872  0.00  0.00    -0.312 OA
BRANCH  22  23
HETATM   23  C   UNK N   1      19.224  16.554   0.280  0.00  0.00     0.218 C 
BRANCH  23  24
HETATM   24  C   UNK N   1      19.595  15.135   0.530  0.00  0.00    -0.034 A 
HETATM   25  C   UNK N   1      18.626  14.138   0.369  0.00  0.00     0.009 A 
HETATM   26  C   UNK N   1      18.978  12.790   0.490  0.00  0.00     0.001 A 
HETATM   27  C   UNK N   1      20.305  12.438   0.753  0.00  0.00     0.000 A 
HETATM   28  C   UNK N   1      21.276  13.433   0.906  0.00  0.00     0.001 A 
HETATM   29  C   UNK N   1      20.923  14.781   0.792  0.00  0.00     0.009 A 
ENDBRANCH  23  24
ENDBRANCH  22  23
ENDBRANCH  18  22
ENDBRANCH  12  17
ENDBRANCH  10  12
BRANCH  10  30
HETATM   30  O   UNK N   1      22.085  18.376   6.356  0.00  0.00    -0.348 OA
HETATM   31  H   UNK N   1      22.632  18.186   7.093  0.00  0.00     0.219 HD
ENDBRANCH  10  30
ENDBRANCH   3   9
BRANCH   5  32
HETATM   32  C   UNK N   1      27.612  15.356   3.145  0.00  0.00     0.178 C 
BRANCH  32  33
HETATM   33  C   UNK N   1      27.576  13.837   2.876  0.00  0.00     0.038 C 
BRANCH  33  34
HETATM   34  C   UNK N   1      27.696  12.953   4.120  0.00  0.00    -0.020 C 
HETATM   35  C   UNK N   1      27.038  13.593   5.327  0.00  0.00     0.009 C 
HETATM   36  C   UNK N   1      29.155  12.701   4.429  0.00  0.00     0.009 C 
ENDBRANCH  33  34
ENDBRANCH  32  33
BRANCH  32  37
HETATM   37  N   UNK N   1      28.937  15.905   2.847  0.00  0.00    -0.337 N 
HETATM   38  C   UNK N   1      29.688  16.526   3.691  0.00  0.00     0.259 C 
ATOM     39  HN  UNK N   1      29.293  15.788   1.898  1.00  0.00     0.164 HD
BRANCH  38  40
HETATM   40  O   UNK N   1      30.890  16.998   3.284  0.00  0.00    -0.327 OA
HETATM   41  H   UNK N   1      31.658  16.489   3.111  0.00  0.00     0.221 HD
ENDBRANCH  38  40
BRANCH  38  42
HETATM   42  O   UNK N   1      29.263  16.761   4.953  0.00  0.00    -0.312 OA
BRANCH  42  43
HETATM   43  C   UNK N   1      29.818  16.143   6.046  0.00  0.00     0.218 C 
BRANCH  43  44
HETATM   44  C   UNK N   1      29.628  17.050   7.217  0.00  0.00    -0.034 A 
HETATM   45  C   UNK N   1      30.746  17.526   7.913  0.00  0.00     0.009 A 
HETATM   46  C   UNK N   1      30.581  18.306   9.059  0.00  0.00     0.001 A 
HETATM   47  C   UNK N   1      29.297  18.619   9.511  0.00  0.00     0.000 A 
HETATM   48  C   UNK N   1      28.177  18.155   8.813  0.00  0.00     0.001 A 
HETATM   49  C   UNK N   1      28.341  17.363   7.671  0.00  0.00     0.009 A 
ENDBRANCH  43  44
ENDBRANCH  42  43
ENDBRANCH  38  42
ENDBRANCH  32  37
ENDBRANCH   5  32
TORSDOF 18
ENDMDL
MODEL 9
REMARK VINA RESULT:      -7.2      3.542      6.111
REMARK  18 active torsions:
REMARK  status: ('A' for Active; 'I' for Inactive)
REMARK    1  A    between atoms: C_21  and  C_15 
REMARK    2  A    between atoms: C_25  and  C_15 
REMARK    3  A    between atoms: C_22  and  C_16 
REMARK    4  A    between atoms: C_26  and  C_16 
REMARK    5  A    between atoms: C_23  and  C_19 
REMARK    6  A    between atoms: O_45  and  C_19 
REMARK    7  A    between atoms: C_24  and  C_20 
REMARK    8  A    between atoms: O_46  and  C_20 
REMARK    9  A    between atoms: C_29  and  C_25 
REMARK   10  A    between atoms: C_25  and  N_35 
REMARK   11  A    between atoms: C_30  and  C_26 
REMARK   12  A    between atoms: C_26  and  N_37 
REMARK   13  A    between atoms: C_27  and  N_33 
REMARK   14  A    between atoms: C_29  and  O_41 
REMARK       I    between atoms: N_39  and  C_30 
REMARK   15  A    between atoms: C_31  and  O_43 
REMARK   16  A    between atoms: O_45  and  C_31 
REMARK   17  A    between atoms: C_32  and  O_44 
REMARK   18  A    between atoms: O_46  and  C_32 
ROOT
HETATM    1  C   UNK N   1      31.526  15.895   7.986  0.00  0.00     0.159 C 
HETATM    2  C   UNK N   1      32.587  17.995   8.324  0.00  0.00     0.206 C 
HETATM    3  C   UNK N   1      30.403  16.842   8.349  0.00  0.00     0.172 C 
HETATM    4  C   UNK N   1      31.165  18.061   8.715  0.00  0.00     0.168 C 
HETATM    5  C   UNK N   1      33.820  16.191   7.337  0.00  0.00     0.243 C 
HETATM    6  N   UNK N   1      32.622  16.752   7.599  0.00  0.00    -0.341 N 
HETATM    7  O   UNK N   1      30.659  19.039   9.239  0.00  0.00    -0.294 OA
HETATM    8  O   UNK N   1      34.112  16.033   6.159  0.00  0.00    -0.271 OA
ENDROOT
BRANCH   3   9
HETATM    9  N   UNK N   1      29.632  17.051   7.145  0.00  0.00    -0.360 N 
HETATM   10  C   UNK N   1      28.451  17.557   7.117  0.00  0.00     0.135 C 
ATOM     11  HN  UNK N   1      30.054  16.779   6.257  1.00  0.00     0.162 HD
BRANCH  10  12
HETATM   12  C   UNK N   1      27.671  17.509   5.828  0.00  0.00     0.160 C 
BRANCH  12  13
HETATM   13  C   UNK N   1      27.660  18.903   5.180  0.00  0.00     0.037 C 
BRANCH  13  14
HETATM   14  C   UNK N   1      26.427  19.767   5.461  0.00  0.00    -0.020 C 
HETATM   15  C   UNK N   1      26.849  20.985   6.253  0.00  0.00     0.009 C 
HETATM   16  C   UNK N   1      25.706  20.211   4.200  0.00  0.00     0.009 C 
ENDBRANCH  13  14
ENDBRANCH  12  13
BRANCH  12  17
HETATM   17  N   UNK N   1      26.304  17.087   6.104  0.00  0.00    -0.338 N 
HETATM   18  C   UNK N   1      25.928  15.857   6.222  0.00  0.00     0.259 C 
ATOM     19  HN  UNK N   1      25.595  17.812   6.211  1.00  0.00     0.164 HD
BRANCH  18  20
HETATM   20  O   UNK N   1      26.819  14.847   6.099  0.00  0.00    -0.327 OA
HETATM   21  H   UNK N   1      26.900  13.913   6.089  0.00  0.00     0.221 HD
ENDBRANCH  18  20
BRANCH  18  22
HETATM   22  O   UNK N   1      24.610  15.583   6.357  0.00  0.00    -0.312 OA
BRANCH  22  23
HETATM   23  C   UNK N   1      24.186  14.274   6.316  0.00  0.00     0.218 C 
BRANCH  23  24
HETATM   24  C   UNK N   1      23.770  13.735   7.639  0.00  0.00    -0.034 A 
HETATM   25  C   UNK N   1      24.722  13.104   8.449  0.00  0.00     0.009 A 
HETATM   26  C   UNK N   1      24.382  12.690   9.739  0.00  0.00     0.001 A 
HETATM   27  C   UNK N   1      23.094  12.924  10.230  0.00  0.00     0.000 A 
HETATM   28  C   UNK N   1      22.144  13.561   9.424  0.00  0.00     0.001 A 
HETATM   29  C   UNK N   1      22.482  13.970   8.130  0.00  0.00     0.009 A 
ENDBRANCH  23  24
ENDBRANCH  22  23
ENDBRANCH  18  22
ENDBRANCH  12  17
ENDBRANCH  10  12
BRANCH  10  30
HETATM   30  O   UNK N   1      27.894  18.067   8.239  0.00  0.00    -0.348 OA
HETATM   31  H   UNK N   1      27.036  18.065   8.616  0.00  0.00     0.219 HD
ENDBRANCH  10  30
ENDBRANCH   3   9
BRANCH   5  32
HETATM   32  C   UNK N   1      34.417  15.211   8.335  0.00  0.00     0.178 C 
BRANCH  32  33
HETATM   33  C   UNK N   1      35.010  13.946   7.679  0.00  0.00     0.038 C 
BRANCH  33  34
HETATM   34  C   UNK N   1      34.095  12.719   7.688  0.00  0.00    -0.020 C 
HETATM   35  C   UNK N   1      33.289  12.613   6.408  0.00  0.00     0.009 C 
HETATM   36  C   UNK N   1      33.147  12.796   8.864  0.00  0.00     0.009 C 
ENDBRANCH  33  34
ENDBRANCH  32  33
BRANCH  32  37
HETATM   37  N   UNK N   1      35.405  15.862   9.198  0.00  0.00    -0.337 N 
HETATM   38  C   UNK N   1      35.907  15.347  10.268  0.00  0.00     0.259 C 
ATOM     39  HN  UNK N   1      35.720  16.796   8.932  1.00  0.00     0.164 HD
BRANCH  38  40
HETATM   40  O   UNK N   1      36.805  16.062  10.986  0.00  0.00    -0.327 OA
HETATM   41  H   UNK N   1      37.418  16.685  10.648  0.00  0.00     0.221 HD
ENDBRANCH  38  40
BRANCH  38  42
HETATM   42  O   UNK N   1      35.501  14.136  10.709  0.00  0.00    -0.312 OA
BRANCH  42  43
HETATM   43  C   UNK N   1      36.288  13.336  11.501  0.00  0.00     0.218 C 
BRANCH  43  44
HETATM   44  C   UNK N   1      35.380  12.431  12.265  0.00  0.00    -0.034 A 
HETATM   45  C   UNK N   1      35.116  12.693  13.615  0.00  0.00     0.009 A 
HETATM   46  C   UNK N   1      34.337  11.809  14.364  0.00  0.00     0.001 A 
HETATM   47  C   UNK N   1      33.812  10.662  13.764  0.00  0.00     0.000 A 
HETATM   48  C   UNK N   1      34.064  10.402  12.413  0.00  0.00     0.001 A 
HETATM   49  C   UNK N   1      34.854  11.281  11.665  0.00  0.00     0.009 A 
ENDBRANCH  43  44
ENDBRANCH  42  43
ENDBRANCH  38  42
ENDBRANCH  32  37
ENDBRANCH   5  32
TORSDOF 18
ENDMDL
