REMARK  13 active torsions:
REMARK  status: ('A' for Active; 'I' for Inactive)
REMARK    1  A    between atoms: C_2  and  C_3 
REMARK    2  A    between atoms: C_3  and  C_4 
REMARK    3  A    between atoms: C_4  and  N_5 
REMARK    4  A    between atoms: C_4  and  C_22 
REMARK    5  A    between atoms: N_5  and  C_6 
REMARK    6  A    between atoms: C_6  and  C_7 
REMARK    7  A    between atoms: C_8  and  O_9 
REMARK    8  A    between atoms: C_15  and  C_16 
REMARK    9  A    between atoms: C_16  and  O_17 
REMARK   10  A    between atoms: O_17  and  P_18 
REMARK   11  A    between atoms: P_18  and  O_19 
REMARK   12  A    between atoms: P_18  and  O_20 
REMARK   13  A    between atoms: C_22  and  O_23 
ROOT
HETATM    1  C   UNK N   1       0.118   0.325   0.303  0.00  0.00     0.004 A 
HETATM    2  C   UNK N   1       0.106   1.723   0.471  0.00  0.00     0.096 A 
HETATM    3  C   UNK N   1       0.960   2.515  -0.311  0.00  0.00     0.039 A 
HETATM    4  C   UNK N   1       0.982   3.996  -0.149  0.00  0.00     0.071 C 
HETATM    5  N   UNK N   1       1.781   1.936  -1.223  0.00  0.00    -0.367 N 
ATOM      6  HN  UNK N   1       2.391   2.527  -1.789  1.00  0.00     0.165 HD
HETATM    7  C   UNK N   1       1.812   0.590  -1.402  0.00  0.00     0.098 A 
HETATM    8  C   UNK N   1       0.992  -0.245  -0.641  0.00  0.00    -0.008 A 
ENDROOT
BRANCH   1   9
HETATM    9  C   UNK N   1      -0.776  -0.545   1.142  0.00  0.00     0.157 C 
BRANCH   9  10
HETATM   10  N   UNK N   1      -2.185  -0.250   0.903  0.00  0.00    -0.404 N 
HETATM   11  H   UNK N   1      -2.763   0.363   1.478  0.00  0.00     0.154 HD
BRANCH  10  12
HETATM   12  C   UNK N   1      -2.642  -0.969  -0.286  0.00  0.00     0.175 C 
BRANCH  12  13
HETATM   13  C   UNK N   1      -3.865  -0.255  -0.873  0.00  0.00     0.035 C 
BRANCH  13  14
HETATM   14  C   UNK N   1      -5.005  -0.149   0.132  0.00  0.00    -0.002 C 
HETATM   15  C   UNK N   1      -5.745   1.155  -0.074  0.00  0.00     0.005 C 
ENDBRANCH  13  14
ENDBRANCH  12  13
BRANCH  12  16
HETATM   16  C   UNK N   1      -2.876  -2.435   0.011  0.00  0.00     0.163 C 
HETATM   17  O   UNK N   1      -3.966  -2.950  -0.185  0.00  0.00    -0.648 OA
BRANCH  16  18
HETATM   18  O   UNK N   1      -1.863  -3.192   0.474  0.00  0.00    -0.775 OA
HETATM   19  H   UNK N   1      -1.966  -4.065   0.797  0.00  0.00     0.167 HD
ENDBRANCH  16  18
ENDBRANCH  12  16
ENDBRANCH  10  12
ENDBRANCH   9  10
ENDBRANCH   1   9
BRANCH   2  20
HETATM   20  O   UNK N   1      -0.708   2.295   1.376  0.00  0.00    -0.358 OA
HETATM   21  H   UNK N   1      -0.647   2.985   2.007  0.00  0.00     0.217 HD
ENDBRANCH   2  20
BRANCH   8  22
HETATM   22  C   UNK N   1       1.101  -1.729  -0.852  0.00  0.00     0.221 C 
BRANCH  22  23
HETATM   23  O   UNK N   1       1.475  -2.379   0.332  0.00  0.00    -0.292 OA
BRANCH  23  24
HETATM   24  P   UNK N   1       3.218  -2.291   0.461  0.00  0.00     0.391 P 
HETATM   25  O   UNK N   1       3.521  -1.657   1.844  0.00  0.00    -0.632 OA
BRANCH  24  26
HETATM   26  O   UNK N   1       3.968  -1.261  -0.720  0.00  0.00    -0.307 OA
HETATM   27  H   UNK N   1       4.675  -1.336  -1.379  0.00  0.00     0.222 HD
ENDBRANCH  24  26
BRANCH  24  28
HETATM   28  O   UNK N   1       3.954  -3.862   0.466  0.00  0.00    -0.307 OA
HETATM   29  H   UNK N   1       3.399  -4.658   0.469  0.00  0.00     0.222 HD
ENDBRANCH  24  28
ENDBRANCH  23  24
ENDBRANCH  22  23
ENDBRANCH   8  22
TORSDOF 13
