MODEL 1
REMARK VINA RESULT:      -7.4      0.000      0.000
REMARK WARNING: 32 MAX_TORS EXCEEDED!!!
REMARK  36 active torsions:
REMARK  status: ('A' for Active; 'I' for Inactive)
REMARK    1  A    between atoms: C_7  and  C_5 
REMARK    2  A    between atoms: C_18  and  C_5 
REMARK    3  A    between atoms: C_8  and  C_6 
REMARK    4  A    between atoms: C_23  and  C_6 
REMARK    5  A    between atoms: N_36  and  C_7 
REMARK    6  A    between atoms: N_40  and  C_8 
REMARK    7  A    between atoms: C_10  and  C_9 
REMARK    8  A    between atoms: N_38  and  C_9 
REMARK    9  A    between atoms: S_70  and  C_10 
REMARK   10  A    between atoms: C_22  and  C_13 
REMARK   11  A    between atoms: O_62  and  C_13 
REMARK   12  A    between atoms: C_24  and  C_14 
REMARK   13  A    between atoms: S_70  and  C_14 
REMARK   14  A    between atoms: C_33  and  C_15 
REMARK   15  A    between atoms: O_63  and  C_15 
REMARK   16  A    between atoms: N_38  and  C_23 
REMARK   17  A    between atoms: O_50  and  C_23 
REMARK   18  A    between atoms: N_36  and  C_24 
REMARK   19  A    between atoms: O_51  and  C_24 
REMARK   20  A    between atoms: C_26  and  O_52 
REMARK   21  A    between atoms: C_27  and  O_65 
REMARK   22  A    between atoms: C_31  and  C_28 
REMARK   23  A    between atoms: C_33  and  C_28 
REMARK   24  A    between atoms: C_28  and  O_53 
REMARK   25  A    between atoms: N_35  and  C_29 
REMARK   26  A    between atoms: N_40  and  C_31 
REMARK   27  A    between atoms: O_54  and  C_31 
REMARK   28  A    between atoms: C_32  and  N_49 
REMARK   29  A    between atoms: P_67  and  O_55 
REMARK   30  A    between atoms: P_67  and  O_56 
REMARK   31  A    between atoms: P_68  and  O_58 
REMARK   32  A    between atoms: P_68  and  O_62 
REMARK   33  A    between atoms: P_69  and  O_63 
REMARK   34  A    between atoms: P_67  and  O_65 
REMARK   35  A    between atoms: P_68  and  O_66 
REMARK   36  A    between atoms: P_69  and  O_66 
ROOT
HETATM    1  O   UNK N   1      29.188  15.342   4.611  0.00  0.00    -0.307 OA
HETATM    2  O   UNK N   1      30.234  16.769   3.099  0.00  0.00    -0.631 OA
HETATM    3  P   UNK N   1      29.343  15.512   2.912  0.00  0.00     0.401 P 
HETATM    4  H   UNK N   1      29.208  15.159   5.564  0.00  0.00     0.222 HD
ENDROOT
BRANCH   3   5
HETATM    5  O   UNK N   1      27.630  15.827   2.858  0.00  0.00    -0.296 OA
BRANCH   5   6
HETATM    6  C   UNK N   1      27.087  15.458   4.114  0.00  0.00     0.192 C 
BRANCH   6   7
HETATM    7  C   UNK N   1      25.556  15.688   4.202  0.00  0.00     0.008 C 
HETATM    8  C   UNK N   1      25.199  16.946   3.433  0.00  0.00     0.020 C 
HETATM    9  C   UNK N   1      24.791  14.539   3.562  0.00  0.00     0.020 C 
BRANCH   7  10
HETATM   10  C   UNK N   1      25.046  15.883   5.656  0.00  0.00     0.202 C 
BRANCH  10  11
HETATM   11  C   UNK N   1      24.484  14.679   6.373  0.00  0.00     0.141 C 
BRANCH  11  12
HETATM   12  N   UNK N   1      25.247  13.844   6.987  0.00  0.00    -0.372 N 
ATOM     13  HN  UNK N   1      25.837  13.211   6.447  1.00  0.00     0.161 HD
BRANCH  12  14
HETATM   14  C   UNK N   1      25.282  13.789   8.429  0.00  0.00     0.129 C 
BRANCH  14  15
HETATM   15  C   UNK N   1      24.600  12.534   8.931  0.00  0.00     0.103 C 
BRANCH  15  16
HETATM   16  C   UNK N   1      24.331  12.616  10.394  0.00  0.00     0.112 C 
BRANCH  16  17
HETATM   17  N   UNK N   1      23.117  12.565  10.820  0.00  0.00    -0.374 N 
ATOM     18  HN  UNK N   1      22.946  12.430  11.816  1.00  0.00     0.161 HD
BRANCH  17  19
HETATM   19  C   UNK N   1      21.993  12.691   9.927  0.00  0.00     0.131 C 
BRANCH  19  20
HETATM   20  C   UNK N   1      21.773  14.156   9.549  0.00  0.00     0.094 C 
BRANCH  20  21
HETATM   21  S   UNK N   1      20.004  14.622   9.504  0.00  0.00    -0.159 SA
BRANCH  21  22
HETATM   22  C   UNK N   1      20.109  15.227   7.798  0.00  0.00     0.157 C 
BRANCH  22  23
HETATM   23  C   UNK N   1      20.676  16.613   7.764  0.00  0.00     0.120 C 
BRANCH  23  24
HETATM   24  N   UNK N   1      21.467  16.973   6.815  0.00  0.00    -0.374 N 
ATOM     25  HN  UNK N   1      22.228  16.352   6.539  1.00  0.00     0.161 HD
BRANCH  24  26
HETATM   26  C   UNK N   1      21.303  18.235   6.132  0.00  0.00     0.126 C 
BRANCH  26  27
HETATM   27  C   UNK N   1      22.199  18.287   4.904  0.00  0.00     0.060 C 
BRANCH  27  28
HETATM   28  C   UNK N   1      21.346  18.382   3.689  0.00  0.00    -0.029 A 
HETATM   29  C   UNK N   1      20.630  19.490   3.252  0.00  0.00     0.096 A 
HETATM   30  N   UNK N   1      19.952  19.167   2.119  0.00  0.00    -0.365 N 
HETATM   31  C   UNK N   1      20.246  17.878   1.863  0.00  0.00     0.043 A 
HETATM   32  H   UNK N   1      19.366  19.757   1.592  0.00  0.00     0.165 HD
HETATM   33  C   UNK N   1      19.775  17.097   0.810  0.00  0.00     0.031 A 
HETATM   34  C   UNK N   1      21.095  17.375   2.801  0.00  0.00    -0.001 A 
HETATM   35  C   UNK N   1      20.208  15.758   0.744  0.00  0.00     0.021 A 
HETATM   36  C   UNK N   1      21.091  15.240   1.721  0.00  0.00     0.011 A 
HETATM   37  C   UNK N   1      21.544  16.058   2.769  0.00  0.00     0.033 A 
HETATM   38 Br   UNK N   1      21.670  13.429   1.629  0.00  0.00    -0.051 Br
ENDBRANCH  27  28
ENDBRANCH  26  27
ENDBRANCH  24  26
ENDBRANCH  23  24
BRANCH  23  39
HETATM   39  O   UNK N   1      20.360  17.489   8.737  0.00  0.00    -0.349 OA
HETATM   40  H   UNK N   1      19.792  18.219   8.887  0.00  0.00     0.219 HD
ENDBRANCH  23  39
ENDBRANCH  22  23
ENDBRANCH  21  22
ENDBRANCH  20  21
ENDBRANCH  19  20
ENDBRANCH  17  19
ENDBRANCH  16  17
BRANCH  16  41
HETATM   41  O   UNK N   1      25.366  12.694  11.257  0.00  0.00    -0.350 OA
HETATM   42  H   UNK N   1      25.347  13.019  12.135  0.00  0.00     0.219 HD
ENDBRANCH  16  41
ENDBRANCH  15  16
ENDBRANCH  14  15
ENDBRANCH  12  14
ENDBRANCH  11  12
BRANCH  11  43
HETATM   43  O   UNK N   1      23.148  14.476   6.338  0.00  0.00    -0.348 OA
HETATM   44  H   UNK N   1      22.562  15.124   6.677  0.00  0.00     0.219 HD
ENDBRANCH  11  43
ENDBRANCH  10  11
BRANCH  10  45
HETATM   45  O   UNK N   1      26.059  16.437   6.445  0.00  0.00    -0.387 OA
HETATM   46  H   UNK N   1      26.082  17.175   7.075  0.00  0.00     0.210 HD
ENDBRANCH  10  45
ENDBRANCH   7  10
ENDBRANCH   6   7
ENDBRANCH   5   6
ENDBRANCH   3   5
BRANCH   3  47
HETATM   47  O   UNK N   1      30.245  14.010   2.926  0.00  0.00    -0.195 OA
BRANCH  47  48
HETATM   48  P   UNK N   1      31.860  14.218   3.590  0.00  0.00     0.401 P 
HETATM   49  O   UNK N   1      32.632  12.923   3.213  0.00  0.00    -0.631 OA
BRANCH  48  50
HETATM   50  O   UNK N   1      32.702  15.461   2.721  0.00  0.00    -0.307 OA
HETATM   51  H   UNK N   1      33.256  16.010   2.145  0.00  0.00     0.222 HD
ENDBRANCH  48  50
BRANCH  48  52
HETATM   52  O   UNK N   1      32.061  14.525   5.306  0.00  0.00    -0.294 OA
BRANCH  52  53
HETATM   53  C   UNK N   1      32.771  15.719   5.486  0.00  0.00     0.215 C 
BRANCH  53  54
HETATM   54  C   UNK N   1      32.121  16.638   6.548  0.00  0.00     0.180 C 
HETATM   55  C   UNK N   1      32.052  16.070   7.977  0.00  0.00     0.197 C 
HETATM   56  C   UNK N   1      31.041  17.025   8.537  0.00  0.00     0.199 C 
HETATM   57  C   UNK N   1      30.034  16.972   7.390  0.00  0.00     0.262 C 
HETATM   58  O   UNK N   1      30.794  16.993   6.189  0.00  0.00    -0.353 OA
BRANCH  55  59
HETATM   59  O   UNK N   1      33.266  16.133   8.692  0.00  0.00    -0.286 OA
BRANCH  59  60
HETATM   60  P   UNK N   1      33.518  14.625   9.545  0.00  0.00     0.391 P 
HETATM   61  O   UNK N   1      34.934  14.115   9.168  0.00  0.00    -0.632 OA
BRANCH  60  62
HETATM   62  O   UNK N   1      32.377  13.390   9.106  0.00  0.00    -0.307 OA
HETATM   63  H   UNK N   1      32.141  12.461   8.962  0.00  0.00     0.222 HD
ENDBRANCH  60  62
BRANCH  60  64
HETATM   64  O   UNK N   1      33.514  14.861  11.265  0.00  0.00    -0.307 OA
HETATM   65  H   UNK N   1      33.212  15.703  11.637  0.00  0.00     0.222 HD
ENDBRANCH  60  64
ENDBRANCH  59  60
ENDBRANCH  55  59
BRANCH  56  66
HETATM   66  O   UNK N   1      30.509  16.599   9.758  0.00  0.00    -0.388 OA
HETATM   67  H   UNK N   1      29.626  16.514  10.150  0.00  0.00     0.210 HD
ENDBRANCH  56  66
BRANCH  57  68
HETATM   68  N   UNK N   1      29.024  18.042   7.393  0.00  0.00    -0.297 N 
HETATM   69  C   UNK N   1      28.511  18.587   8.525  0.00  0.00     0.188 A 
HETATM   70  N   UNK N   1      27.608  19.568   8.246  0.00  0.00    -0.346 N 
HETATM   71  C   UNK N   1      27.581  19.626   6.906  0.00  0.00     0.122 A 
ATOM     72  HN  UNK N   1      27.072  20.132   8.906  1.00  0.00     0.167 HD
HETATM   73  C   UNK N   1      26.851  20.456   6.070  0.00  0.00     0.131 A 
HETATM   74  C   UNK N   1      28.428  18.712   6.386  0.00  0.00     0.142 A 
HETATM   75  N   UNK N   1      27.025  20.321   4.723  0.00  0.00    -0.337 N 
HETATM   76  C   UNK N   1      27.896  19.387   4.213  0.00  0.00     0.183 A 
ATOM     77  HN  UNK N   1      26.500  20.920   4.085  1.00  0.00     0.168 HD
HETATM   78  N   UNK N   1      28.608  18.571   5.052  0.00  0.00    -0.336 N 
ATOM     79  HN  UNK N   1      29.256  17.876   4.681  1.00  0.00     0.168 HD
BRANCH  73  80
HETATM   80  N   UNK N   1      25.961  21.418   6.589  0.00  0.00    -0.383 N 
HETATM   81  H   UNK N   1      25.030  21.174   6.793  0.00  0.00     0.157 HD
HETATM   82  H   UNK N   1      26.274  22.339   6.748  0.00  0.00     0.157 HD
ENDBRANCH  73  80
ENDBRANCH  57  68
ENDBRANCH  53  54
ENDBRANCH  52  53
ENDBRANCH  48  52
ENDBRANCH  47  48
ENDBRANCH   3  47
TORSDOF 36
ENDMDL
MODEL 2
REMARK VINA RESULT:      -7.1      3.888      7.352
REMARK WARNING: 32 MAX_TORS EXCEEDED!!!
REMARK  36 active torsions:
REMARK  status: ('A' for Active; 'I' for Inactive)
REMARK    1  A    between atoms: C_7  and  C_5 
REMARK    2  A    between atoms: C_18  and  C_5 
REMARK    3  A    between atoms: C_8  and  C_6 
REMARK    4  A    between atoms: C_23  and  C_6 
REMARK    5  A    between atoms: N_36  and  C_7 
REMARK    6  A    between atoms: N_40  and  C_8 
REMARK    7  A    between atoms: C_10  and  C_9 
REMARK    8  A    between atoms: N_38  and  C_9 
REMARK    9  A    between atoms: S_70  and  C_10 
REMARK   10  A    between atoms: C_22  and  C_13 
REMARK   11  A    between atoms: O_62  and  C_13 
REMARK   12  A    between atoms: C_24  and  C_14 
REMARK   13  A    between atoms: S_70  and  C_14 
REMARK   14  A    between atoms: C_33  and  C_15 
REMARK   15  A    between atoms: O_63  and  C_15 
REMARK   16  A    between atoms: N_38  and  C_23 
REMARK   17  A    between atoms: O_50  and  C_23 
REMARK   18  A    between atoms: N_36  and  C_24 
REMARK   19  A    between atoms: O_51  and  C_24 
REMARK   20  A    between atoms: C_26  and  O_52 
REMARK   21  A    between atoms: C_27  and  O_65 
REMARK   22  A    between atoms: C_31  and  C_28 
REMARK   23  A    between atoms: C_33  and  C_28 
REMARK   24  A    between atoms: C_28  and  O_53 
REMARK   25  A    between atoms: N_35  and  C_29 
REMARK   26  A    between atoms: N_40  and  C_31 
REMARK   27  A    between atoms: O_54  and  C_31 
REMARK   28  A    between atoms: C_32  and  N_49 
REMARK   29  A    between atoms: P_67  and  O_55 
REMARK   30  A    between atoms: P_67  and  O_56 
REMARK   31  A    between atoms: P_68  and  O_58 
REMARK   32  A    between atoms: P_68  and  O_62 
REMARK   33  A    between atoms: P_69  and  O_63 
REMARK   34  A    between atoms: P_67  and  O_65 
REMARK   35  A    between atoms: P_68  and  O_66 
REMARK   36  A    between atoms: P_69  and  O_66 
ROOT
HETATM    1  O   UNK N   1      28.755  15.956   5.890  0.00  0.00    -0.307 OA
HETATM    2  O   UNK N   1      26.896  14.726   5.222  0.00  0.00    -0.631 OA
HETATM    3  P   UNK N   1      27.066  16.189   5.709  0.00  0.00     0.401 P 
HETATM    4  H   UNK N   1      29.682  15.792   6.126  0.00  0.00     0.222 HD
ENDROOT
BRANCH   3   5
HETATM    5  O   UNK N   1      27.432  17.343   4.454  0.00  0.00    -0.296 OA
BRANCH   5   6
HETATM    6  C   UNK N   1      26.201  17.804   3.924  0.00  0.00     0.192 C 
BRANCH   6   7
HETATM    7  C   UNK N   1      26.089  19.351   3.914  0.00  0.00     0.008 C 
HETATM    8  C   UNK N   1      25.508  19.815   5.237  0.00  0.00     0.020 C 
HETATM    9  C   UNK N   1      27.459  19.999   3.774  0.00  0.00     0.020 C 
BRANCH   7  10
HETATM   10  C   UNK N   1      25.160  19.893   2.793  0.00  0.00     0.202 C 
BRANCH  10  11
HETATM   11  C   UNK N   1      23.719  20.171   3.147  0.00  0.00     0.141 C 
BRANCH  11  12
HETATM   12  N   UNK N   1      22.930  19.233   3.543  0.00  0.00    -0.372 N 
ATOM     13  HN  UNK N   1      23.312  18.311   3.753  1.00  0.00     0.161 HD
BRANCH  12  14
HETATM   14  C   UNK N   1      21.514  19.466   3.693  0.00  0.00     0.129 C 
BRANCH  14  15
HETATM   15  C   UNK N   1      20.738  18.181   3.496  0.00  0.00     0.103 C 
BRANCH  15  16
HETATM   16  C   UNK N   1      19.630  18.365   2.518  0.00  0.00     0.112 C 
BRANCH  16  17
HETATM   17  N   UNK N   1      19.247  17.368   1.798  0.00  0.00    -0.374 N 
ATOM     18  HN  UNK N   1      18.280  17.052   1.864  1.00  0.00     0.161 HD
BRANCH  17  19
HETATM   19  C   UNK N   1      20.148  16.686   0.904  0.00  0.00     0.131 C 
BRANCH  19  20
HETATM   20  C   UNK N   1      19.991  15.171   1.038  0.00  0.00     0.094 C 
BRANCH  20  21
HETATM   21  S   UNK N   1      20.827  14.496   2.519  0.00  0.00    -0.159 SA
BRANCH  21  22
HETATM   22  C   UNK N   1      19.262  14.218   3.392  0.00  0.00     0.157 C 
BRANCH  22  23
HETATM   23  C   UNK N   1      19.221  15.006   4.664  0.00  0.00     0.120 C 
BRANCH  23  24
HETATM   24  N   UNK N   1      19.959  14.672   5.665  0.00  0.00    -0.374 N 
ATOM     25  HN  UNK N   1      20.518  13.821   5.608  1.00  0.00     0.161 HD
BRANCH  24  26
HETATM   26  C   UNK N   1      20.013  15.474   6.865  0.00  0.00     0.126 C 
BRANCH  26  27
HETATM   27  C   UNK N   1      21.361  16.172   6.968  0.00  0.00     0.060 C 
BRANCH  27  28
HETATM   28  C   UNK N   1      22.439  15.174   6.731  0.00  0.00    -0.029 A 
HETATM   29  C   UNK N   1      23.245  15.062   5.606  0.00  0.00     0.096 A 
HETATM   30  N   UNK N   1      24.087  14.006   5.760  0.00  0.00    -0.365 N 
HETATM   31  C   UNK N   1      23.802  13.474   6.964  0.00  0.00     0.043 A 
HETATM   32  H   UNK N   1      24.768  13.694   5.120  0.00  0.00     0.165 HD
HETATM   33  C   UNK N   1      24.395  12.364   7.559  0.00  0.00     0.031 A 
HETATM   34  C   UNK N   1      22.804  14.167   7.580  0.00  0.00    -0.001 A 
HETATM   35  C   UNK N   1      23.927  11.974   8.830  0.00  0.00     0.021 A 
HETATM   36  C   UNK N   1      22.891  12.697   9.465  0.00  0.00     0.011 A 
HETATM   37  C   UNK N   1      22.317  13.812   8.834  0.00  0.00     0.033 A 
HETATM   38 Br   UNK N   1      22.260  12.164  11.181  0.00  0.00    -0.051 Br
ENDBRANCH  27  28
ENDBRANCH  26  27
ENDBRANCH  24  26
ENDBRANCH  23  24
BRANCH  23  39
HETATM   39  O   UNK N   1      18.401  16.070   4.767  0.00  0.00    -0.349 OA
HETATM   40  H   UNK N   1      17.848  16.489   5.396  0.00  0.00     0.219 HD
ENDBRANCH  23  39
ENDBRANCH  22  23
ENDBRANCH  21  22
ENDBRANCH  20  21
ENDBRANCH  19  20
ENDBRANCH  17  19
ENDBRANCH  16  17
BRANCH  16  41
HETATM   41  O   UNK N   1      19.010  19.560   2.432  0.00  0.00    -0.350 OA
HETATM   42  H   UNK N   1      19.410  20.407   2.434  0.00  0.00     0.219 HD
ENDBRANCH  16  41
ENDBRANCH  15  16
ENDBRANCH  14  15
ENDBRANCH  12  14
ENDBRANCH  11  12
BRANCH  11  43
HETATM   43  O   UNK N   1      23.257  21.435   3.017  0.00  0.00    -0.348 OA
HETATM   44  H   UNK N   1      23.457  21.934   2.250  0.00  0.00     0.219 HD
ENDBRANCH  11  43
ENDBRANCH  10  11
BRANCH  10  45
HETATM   45  O   UNK N   1      25.712  21.050   2.236  0.00  0.00    -0.387 OA
HETATM   46  H   UNK N   1      26.299  21.740   2.583  0.00  0.00     0.210 HD
ENDBRANCH  10  45
ENDBRANCH   7  10
ENDBRANCH   6   7
ENDBRANCH   5   6
ENDBRANCH   3   5
BRANCH   3  47
HETATM   47  O   UNK N   1      26.984  16.359   7.450  0.00  0.00    -0.195 OA
BRANCH  47  48
HETATM   48  P   UNK N   1      28.171  17.505   8.057  0.00  0.00     0.401 P 
HETATM   49  O   UNK N   1      28.342  18.560   6.929  0.00  0.00    -0.631 OA
BRANCH  48  50
HETATM   50  O   UNK N   1      27.496  18.417   9.370  0.00  0.00    -0.307 OA
HETATM   51  H   UNK N   1      27.113  18.758  10.193  0.00  0.00     0.222 HD
ENDBRANCH  48  50
BRANCH  48  52
HETATM   52  O   UNK N   1      29.756  16.935   8.553  0.00  0.00    -0.294 OA
BRANCH  52  53
HETATM   53  C   UNK N   1      30.743  17.749   7.983  0.00  0.00     0.215 C 
BRANCH  53  54
HETATM   54  C   UNK N   1      32.096  17.013   7.828  0.00  0.00     0.180 C 
HETATM   55  C   UNK N   1      32.318  16.289   6.487  0.00  0.00     0.197 C 
HETATM   56  C   UNK N   1      33.468  15.421   6.902  0.00  0.00     0.199 C 
HETATM   57  C   UNK N   1      32.894  14.920   8.225  0.00  0.00     0.262 C 
HETATM   58  O   UNK N   1      32.282  16.042   8.847  0.00  0.00    -0.353 OA
BRANCH  55  59
HETATM   59  O   UNK N   1      32.676  17.136   5.416  0.00  0.00    -0.286 OA
BRANCH  59  60
HETATM   60  P   UNK N   1      31.469  17.020   4.154  0.00  0.00     0.391 P 
HETATM   61  O   UNK N   1      30.918  15.570   4.178  0.00  0.00    -0.632 OA
BRANCH  60  62
HETATM   62  O   UNK N   1      32.108  17.317   2.566  0.00  0.00    -0.307 OA
HETATM   63  H   UNK N   1      32.681  17.079   1.820  0.00  0.00     0.222 HD
ENDBRANCH  60  62
BRANCH  60  64
HETATM   64  O   UNK N   1      30.123  18.071   4.465  0.00  0.00    -0.307 OA
HETATM   65  H   UNK N   1      29.218  17.731   4.396  0.00  0.00     0.222 HD
ENDBRANCH  60  64
ENDBRANCH  59  60
ENDBRANCH  55  59
BRANCH  56  66
HETATM   66  O   UNK N   1      33.730  14.394   5.990  0.00  0.00    -0.388 OA
HETATM   67  H   UNK N   1      34.032  13.474   6.033  0.00  0.00     0.210 HD
ENDBRANCH  56  66
BRANCH  57  68
HETATM   68  N   UNK N   1      33.866  14.283   9.127  0.00  0.00    -0.297 N 
HETATM   69  C   UNK N   1      34.163  12.958   9.098  0.00  0.00     0.188 A 
HETATM   70  N   UNK N   1      35.105  12.634  10.026  0.00  0.00    -0.346 N 
HETATM   71  C   UNK N   1      35.394  13.797  10.629  0.00  0.00     0.122 A 
ATOM     72  HN  UNK N   1      35.502  11.714  10.220  1.00  0.00     0.167 HD
HETATM   73  C   UNK N   1      36.300  14.067  11.643  0.00  0.00     0.131 A 
HETATM   74  C   UNK N   1      34.654  14.792  10.096  0.00  0.00     0.142 A 
HETATM   75  N   UNK N   1      36.417  15.358  12.070  0.00  0.00    -0.337 N 
HETATM   76  C   UNK N   1      35.657  16.359  11.511  0.00  0.00     0.183 A 
ATOM     77  HN  UNK N   1      37.076  15.584  12.815  1.00  0.00     0.168 HD
HETATM   78  N   UNK N   1      34.763  16.075  10.511  0.00  0.00    -0.336 N 
ATOM     79  HN  UNK N   1      34.196  16.812  10.091  1.00  0.00     0.168 HD
BRANCH  73  80
HETATM   80  N   UNK N   1      37.084  13.045  12.215  0.00  0.00    -0.383 N 
HETATM   81  H   UNK N   1      37.989  13.242  12.549  0.00  0.00     0.157 HD
HETATM   82  H   UNK N   1      36.725  12.130  12.280  0.00  0.00     0.157 HD
ENDBRANCH  73  80
ENDBRANCH  57  68
ENDBRANCH  53  54
ENDBRANCH  52  53
ENDBRANCH  48  52
ENDBRANCH  47  48
ENDBRANCH   3  47
TORSDOF 36
ENDMDL
MODEL 3
REMARK VINA RESULT:      -7.0      4.256      7.714
REMARK WARNING: 32 MAX_TORS EXCEEDED!!!
REMARK  36 active torsions:
REMARK  status: ('A' for Active; 'I' for Inactive)
REMARK    1  A    between atoms: C_7  and  C_5 
REMARK    2  A    between atoms: C_18  and  C_5 
REMARK    3  A    between atoms: C_8  and  C_6 
REMARK    4  A    between atoms: C_23  and  C_6 
REMARK    5  A    between atoms: N_36  and  C_7 
REMARK    6  A    between atoms: N_40  and  C_8 
REMARK    7  A    between atoms: C_10  and  C_9 
REMARK    8  A    between atoms: N_38  and  C_9 
REMARK    9  A    between atoms: S_70  and  C_10 
REMARK   10  A    between atoms: C_22  and  C_13 
REMARK   11  A    between atoms: O_62  and  C_13 
REMARK   12  A    between atoms: C_24  and  C_14 
REMARK   13  A    between atoms: S_70  and  C_14 
REMARK   14  A    between atoms: C_33  and  C_15 
REMARK   15  A    between atoms: O_63  and  C_15 
REMARK   16  A    between atoms: N_38  and  C_23 
REMARK   17  A    between atoms: O_50  and  C_23 
REMARK   18  A    between atoms: N_36  and  C_24 
REMARK   19  A    between atoms: O_51  and  C_24 
REMARK   20  A    between atoms: C_26  and  O_52 
REMARK   21  A    between atoms: C_27  and  O_65 
REMARK   22  A    between atoms: C_31  and  C_28 
REMARK   23  A    between atoms: C_33  and  C_28 
REMARK   24  A    between atoms: C_28  and  O_53 
REMARK   25  A    between atoms: N_35  and  C_29 
REMARK   26  A    between atoms: N_40  and  C_31 
REMARK   27  A    between atoms: O_54  and  C_31 
REMARK   28  A    between atoms: C_32  and  N_49 
REMARK   29  A    between atoms: P_67  and  O_55 
REMARK   30  A    between atoms: P_67  and  O_56 
REMARK   31  A    between atoms: P_68  and  O_58 
REMARK   32  A    between atoms: P_68  and  O_62 
REMARK   33  A    between atoms: P_69  and  O_63 
REMARK   34  A    between atoms: P_67  and  O_65 
REMARK   35  A    between atoms: P_68  and  O_66 
REMARK   36  A    between atoms: P_69  and  O_66 
ROOT
HETATM    1  O   UNK N   1      21.272  16.624   2.774  0.00  0.00    -0.307 OA
HETATM    2  O   UNK N   1      19.267  17.507   3.562  0.00  0.00    -0.631 OA
HETATM    3  P   UNK N   1      19.995  17.612   2.196  0.00  0.00     0.401 P 
HETATM    4  H   UNK N   1      22.058  16.184   3.134  0.00  0.00     0.222 HD
ENDROOT
BRANCH   3   5
HETATM    5  O   UNK N   1      19.620  16.342   1.063  0.00  0.00    -0.296 OA
BRANCH   5   6
HETATM    6  C   UNK N   1      20.594  15.325   1.222  0.00  0.00     0.192 C 
BRANCH   6   7
HETATM    7  C   UNK N   1      19.978  13.903   1.285  0.00  0.00     0.008 C 
HETATM    8  C   UNK N   1      18.797  13.832   0.335  0.00  0.00     0.020 C 
HETATM    9  C   UNK N   1      20.981  12.851   0.833  0.00  0.00     0.020 C 
BRANCH   7  10
HETATM   10  C   UNK N   1      19.452  13.522   2.696  0.00  0.00     0.202 C 
BRANCH  10  11
HETATM   11  C   UNK N   1      20.443  12.972   3.693  0.00  0.00     0.141 C 
BRANCH  11  12
HETATM   12  N   UNK N   1      20.482  11.718   3.981  0.00  0.00    -0.372 N 
ATOM     13  HN  UNK N   1      21.322  11.327   4.409  1.00  0.00     0.161 HD
BRANCH  12  14
HETATM   14  C   UNK N   1      19.358  10.856   3.709  0.00  0.00     0.129 C 
BRANCH  14  15
HETATM   15  C   UNK N   1      19.769   9.710   2.810  0.00  0.00     0.103 C 
BRANCH  15  16
HETATM   16  C   UNK N   1      21.167   9.279   3.093  0.00  0.00     0.112 C 
BRANCH  16  17
HETATM   17  N   UNK N   1      21.376   8.251   3.839  0.00  0.00    -0.374 N 
ATOM     18  HN  UNK N   1      21.552   7.347   3.401  1.00  0.00     0.161 HD
BRANCH  17  19
HETATM   19  C   UNK N   1      21.368   8.343   5.278  0.00  0.00     0.131 C 
BRANCH  19  20
HETATM   20  C   UNK N   1      22.796   8.440   5.815  0.00  0.00     0.094 C 
BRANCH  20  21
HETATM   21  S   UNK N   1      23.168  10.071   6.558  0.00  0.00    -0.159 SA
BRANCH  21  22
HETATM   22  C   UNK N   1      24.521  10.397   5.396  0.00  0.00     0.157 C 
BRANCH  22  23
HETATM   23  C   UNK N   1      24.375  11.757   4.786  0.00  0.00     0.120 C 
BRANCH  23  24
HETATM   24  N   UNK N   1      25.063  12.750   5.232  0.00  0.00    -0.374 N 
ATOM     25  HN  UNK N   1      25.451  13.423   4.571  1.00  0.00     0.161 HD
BRANCH  24  26
HETATM   26  C   UNK N   1      25.297  12.933   6.646  0.00  0.00     0.126 C 
BRANCH  26  27
HETATM   27  C   UNK N   1      25.279  14.413   6.993  0.00  0.00     0.060 C 
BRANCH  27  28
HETATM   28  C   UNK N   1      23.870  14.889   7.004  0.00  0.00    -0.029 A 
HETATM   29  C   UNK N   1      23.297  15.834   6.162  0.00  0.00     0.096 A 
HETATM   30  N   UNK N   1      21.996  16.015   6.509  0.00  0.00    -0.365 N 
HETATM   31  C   UNK N   1      21.770  15.193   7.551  0.00  0.00     0.043 A 
HETATM   32  H   UNK N   1      21.349  16.624   6.084  0.00  0.00     0.165 HD
HETATM   33  C   UNK N   1      20.583  15.034   8.261  0.00  0.00     0.031 A 
HETATM   34  C   UNK N   1      22.893  14.492   7.873  0.00  0.00    -0.001 A 
HETATM   35  C   UNK N   1      20.577  14.119   9.333  0.00  0.00     0.021 A 
HETATM   36  C   UNK N   1      21.746  13.393   9.662  0.00  0.00     0.011 A 
HETATM   37  C   UNK N   1      22.925  13.579   8.923  0.00  0.00     0.033 A 
HETATM   38 Br   UNK N   1      21.734  12.159  11.112  0.00  0.00    -0.051 Br
ENDBRANCH  27  28
ENDBRANCH  26  27
ENDBRANCH  24  26
ENDBRANCH  23  24
BRANCH  23  39
HETATM   39  O   UNK N   1      23.515  11.946   3.768  0.00  0.00    -0.349 OA
HETATM   40  H   UNK N   1      23.522  12.142   2.852  0.00  0.00     0.219 HD
ENDBRANCH  23  39
ENDBRANCH  22  23
ENDBRANCH  21  22
ENDBRANCH  20  21
ENDBRANCH  19  20
ENDBRANCH  17  19
ENDBRANCH  16  17
BRANCH  16  41
HETATM   41  O   UNK N   1      22.195   9.942   2.523  0.00  0.00    -0.350 OA
HETATM   42  H   UNK N   1      22.985  10.227   2.938  0.00  0.00     0.219 HD
ENDBRANCH  16  41
ENDBRANCH  15  16
ENDBRANCH  14  15
ENDBRANCH  12  14
ENDBRANCH  11  12
BRANCH  11  43
HETATM   43  O   UNK N   1      21.286  13.835   4.304  0.00  0.00    -0.348 OA
HETATM   44  H   UNK N   1      21.838  13.541   5.002  0.00  0.00     0.219 HD
ENDBRANCH  11  43
ENDBRANCH  10  11
BRANCH  10  45
HETATM   45  O   UNK N   1      18.802  14.618   3.272  0.00  0.00    -0.387 OA
HETATM   46  H   UNK N   1      18.437  14.785   4.155  0.00  0.00     0.210 HD
ENDBRANCH  10  45
ENDBRANCH   7  10
ENDBRANCH   6   7
ENDBRANCH   5   6
ENDBRANCH   3   5
BRANCH   3  47
HETATM   47  O   UNK N   1      21.154  18.925   2.123  0.00  0.00    -0.195 OA
BRANCH  47  48
HETATM   48  P   UNK N   1      22.213  18.948   3.526  0.00  0.00     0.401 P 
HETATM   49  O   UNK N   1      22.633  20.434   3.704  0.00  0.00    -0.631 OA
BRANCH  48  50
HETATM   50  O   UNK N   1      21.300  18.608   4.962  0.00  0.00    -0.307 OA
HETATM   51  H   UNK N   1      20.960  18.421   5.851  0.00  0.00     0.222 HD
ENDBRANCH  48  50
BRANCH  48  52
HETATM   52  O   UNK N   1      23.650  17.940   3.547  0.00  0.00    -0.294 OA
BRANCH  52  53
HETATM   53  C   UNK N   1      24.790  18.754   3.525  0.00  0.00     0.215 C 
BRANCH  53  54
HETATM   54  C   UNK N   1      26.100  17.936   3.633  0.00  0.00     0.180 C 
HETATM   55  C   UNK N   1      25.969  16.421   3.391  0.00  0.00     0.197 C 
HETATM   56  C   UNK N   1      27.283  15.998   3.977  0.00  0.00     0.199 C 
HETATM   57  C   UNK N   1      27.216  16.812   5.267  0.00  0.00     0.262 C 
HETATM   58  O   UNK N   1      26.707  18.090   4.907  0.00  0.00    -0.353 OA
BRANCH  55  59
HETATM   59  O   UNK N   1      25.872  16.052   2.032  0.00  0.00    -0.286 OA
BRANCH  59  60
HETATM   60  P   UNK N   1      24.766  14.704   1.873  0.00  0.00     0.391 P 
HETATM   61  O   UNK N   1      25.581  13.410   2.135  0.00  0.00    -0.632 OA
BRANCH  60  62
HETATM   62  O   UNK N   1      24.065  14.577   0.289  0.00  0.00    -0.307 OA
HETATM   63  H   UNK N   1      23.624  14.068  -0.409  0.00  0.00     0.222 HD
ENDBRANCH  60  62
BRANCH  60  64
HETATM   64  O   UNK N   1      23.520  14.761   3.079  0.00  0.00    -0.307 OA
HETATM   65  H   UNK N   1      23.141  13.938   3.424  0.00  0.00     0.222 HD
ENDBRANCH  60  64
ENDBRANCH  59  60
ENDBRANCH  55  59
BRANCH  56  66
HETATM   66  O   UNK N   1      27.359  14.619   4.199  0.00  0.00    -0.388 OA
HETATM   67  H   UNK N   1      26.872  13.961   4.718  0.00  0.00     0.210 HD
ENDBRANCH  56  66
BRANCH  57  68
HETATM   68  N   UNK N   1      28.489  16.938   5.994  0.00  0.00    -0.297 N 
HETATM   69  C   UNK N   1      29.706  16.887   5.393  0.00  0.00     0.188 A 
HETATM   70  N   UNK N   1      30.717  17.047   6.292  0.00  0.00    -0.346 N 
HETATM   71  C   UNK N   1      30.094  17.210   7.469  0.00  0.00     0.122 A 
ATOM     72  HN  UNK N   1      31.721  17.044   6.111  1.00  0.00     0.167 HD
HETATM   73  C   UNK N   1      30.628  17.430   8.729  0.00  0.00     0.131 A 
HETATM   74  C   UNK N   1      28.757  17.145   7.300  0.00  0.00     0.142 A 
HETATM   75  N   UNK N   1      29.762  17.582   9.774  0.00  0.00    -0.337 N 
HETATM   76  C   UNK N   1      28.403  17.518   9.579  0.00  0.00     0.183 A 
ATOM     77  HN  UNK N   1      30.129  17.746  10.711  1.00  0.00     0.168 HD
HETATM   78  N   UNK N   1      27.890  17.296   8.327  0.00  0.00    -0.336 N 
ATOM     79  HN  UNK N   1      26.882  17.247   8.175  1.00  0.00     0.168 HD
BRANCH  73  80
HETATM   80  N   UNK N   1      32.022  17.502   8.931  0.00  0.00    -0.383 N 
HETATM   81  H   UNK N   1      32.401  18.186   9.528  0.00  0.00     0.157 HD
HETATM   82  H   UNK N   1      32.616  16.865   8.473  0.00  0.00     0.157 HD
ENDBRANCH  73  80
ENDBRANCH  57  68
ENDBRANCH  53  54
ENDBRANCH  52  53
ENDBRANCH  48  52
ENDBRANCH  47  48
ENDBRANCH   3  47
TORSDOF 36
ENDMDL
MODEL 4
REMARK VINA RESULT:      -7.0      3.506      6.881
REMARK WARNING: 32 MAX_TORS EXCEEDED!!!
REMARK  36 active torsions:
REMARK  status: ('A' for Active; 'I' for Inactive)
REMARK    1  A    between atoms: C_7  and  C_5 
REMARK    2  A    between atoms: C_18  and  C_5 
REMARK    3  A    between atoms: C_8  and  C_6 
REMARK    4  A    between atoms: C_23  and  C_6 
REMARK    5  A    between atoms: N_36  and  C_7 
REMARK    6  A    between atoms: N_40  and  C_8 
REMARK    7  A    between atoms: C_10  and  C_9 
REMARK    8  A    between atoms: N_38  and  C_9 
REMARK    9  A    between atoms: S_70  and  C_10 
REMARK   10  A    between atoms: C_22  and  C_13 
REMARK   11  A    between atoms: O_62  and  C_13 
REMARK   12  A    between atoms: C_24  and  C_14 
REMARK   13  A    between atoms: S_70  and  C_14 
REMARK   14  A    between atoms: C_33  and  C_15 
REMARK   15  A    between atoms: O_63  and  C_15 
REMARK   16  A    between atoms: N_38  and  C_23 
REMARK   17  A    between atoms: O_50  and  C_23 
REMARK   18  A    between atoms: N_36  and  C_24 
REMARK   19  A    between atoms: O_51  and  C_24 
REMARK   20  A    between atoms: C_26  and  O_52 
REMARK   21  A    between atoms: C_27  and  O_65 
REMARK   22  A    between atoms: C_31  and  C_28 
REMARK   23  A    between atoms: C_33  and  C_28 
REMARK   24  A    between atoms: C_28  and  O_53 
REMARK   25  A    between atoms: N_35  and  C_29 
REMARK   26  A    between atoms: N_40  and  C_31 
REMARK   27  A    between atoms: O_54  and  C_31 
REMARK   28  A    between atoms: C_32  and  N_49 
REMARK   29  A    between atoms: P_67  and  O_55 
REMARK   30  A    between atoms: P_67  and  O_56 
REMARK   31  A    between atoms: P_68  and  O_58 
REMARK   32  A    between atoms: P_68  and  O_62 
REMARK   33  A    between atoms: P_69  and  O_63 
REMARK   34  A    between atoms: P_67  and  O_65 
REMARK   35  A    between atoms: P_68  and  O_66 
REMARK   36  A    between atoms: P_69  and  O_66 
ROOT
HETATM    1  O   UNK N   1      29.270  17.601   5.460  0.00  0.00    -0.307 OA
HETATM    2  O   UNK N   1      28.003  15.962   4.399  0.00  0.00    -0.631 OA
HETATM    3  P   UNK N   1      27.624  17.135   5.341  0.00  0.00     0.401 P 
HETATM    4  H   UNK N   1      30.204  17.786   5.642  0.00  0.00     0.222 HD
ENDROOT
BRANCH   3   5
HETATM    5  O   UNK N   1      27.325  18.654   4.539  0.00  0.00    -0.296 OA
BRANCH   5   6
HETATM    6  C   UNK N   1      26.219  18.470   3.672  0.00  0.00     0.192 C 
BRANCH   6   7
HETATM    7  C   UNK N   1      25.051  19.447   3.967  0.00  0.00     0.008 C 
HETATM    8  C   UNK N   1      23.998  18.726   4.788  0.00  0.00     0.020 C 
HETATM    9  C   UNK N   1      25.525  20.636   4.790  0.00  0.00     0.020 C 
BRANCH   7  10
HETATM   10  C   UNK N   1      24.349  19.971   2.684  0.00  0.00     0.202 C 
BRANCH  10  11
HETATM   11  C   UNK N   1      22.926  20.460   2.811  0.00  0.00     0.141 C 
BRANCH  11  12
HETATM   12  N   UNK N   1      21.929  19.647   2.779  0.00  0.00    -0.372 N 
ATOM     13  HN  UNK N   1      22.101  18.643   2.727  1.00  0.00     0.161 HD
BRANCH  12  14
HETATM   14  C   UNK N   1      20.571  20.133   2.816  0.00  0.00     0.129 C 
BRANCH  14  15
HETATM   15  C   UNK N   1      19.590  18.981   2.755  0.00  0.00     0.103 C 
BRANCH  15  16
HETATM   16  C   UNK N   1      19.950  18.024   1.672  0.00  0.00     0.112 C 
BRANCH  16  17
HETATM   17  N   UNK N   1      19.877  16.758   1.894  0.00  0.00    -0.374 N 
ATOM     18  HN  UNK N   1      19.040  16.251   1.608  1.00  0.00     0.161 HD
BRANCH  17  19
HETATM   19  C   UNK N   1      20.947  16.037   2.537  0.00  0.00     0.131 C 
BRANCH  19  20
HETATM   20  C   UNK N   1      21.155  14.679   1.868  0.00  0.00     0.094 C 
BRANCH  20  21
HETATM   21  S   UNK N   1      22.895  14.379   1.389  0.00  0.00    -0.159 SA
BRANCH  21  22
HETATM   22  C   UNK N   1      23.544  15.319   2.797  0.00  0.00     0.157 C 
BRANCH  22  23
HETATM   23  C   UNK N   1      24.977  14.969   3.049  0.00  0.00     0.120 C 
BRANCH  23  24
HETATM   24  N   UNK N   1      25.320  14.348   4.123  0.00  0.00    -0.374 N 
ATOM     25  HN  UNK N   1      26.303  14.124   4.277  1.00  0.00     0.161 HD
BRANCH  24  26
HETATM   26  C   UNK N   1      24.344  13.961   5.115  0.00  0.00     0.126 C 
BRANCH  26  27
HETATM   27  C   UNK N   1      24.396  14.912   6.301  0.00  0.00     0.060 C 
BRANCH  27  28
HETATM   28  C   UNK N   1      23.016  15.107   6.823  0.00  0.00    -0.029 A 
HETATM   29  C   UNK N   1      22.040  15.956   6.316  0.00  0.00     0.096 A 
HETATM   30  N   UNK N   1      20.925  15.870   7.088  0.00  0.00    -0.365 N 
HETATM   31  C   UNK N   1      21.212  14.981   8.059  0.00  0.00     0.043 A 
HETATM   32  H   UNK N   1      20.080  16.359   6.963  0.00  0.00     0.165 HD
HETATM   33  C   UNK N   1      20.383  14.571   9.100  0.00  0.00     0.031 A 
HETATM   34  C   UNK N   1      22.477  14.498   7.921  0.00  0.00    -0.001 A 
HETATM   35  C   UNK N   1      20.898  13.632  10.016  0.00  0.00     0.021 A 
HETATM   36  C   UNK N   1      22.213  13.133   9.867  0.00  0.00     0.011 A 
HETATM   37  C   UNK N   1      23.020  13.569   8.804  0.00  0.00     0.033 A 
HETATM   38 Br   UNK N   1      22.906  11.866  11.109  0.00  0.00    -0.051 Br
ENDBRANCH  27  28
ENDBRANCH  26  27
ENDBRANCH  24  26
ENDBRANCH  23  24
BRANCH  23  39
HETATM   39  O   UNK N   1      25.918  15.312   2.149  0.00  0.00    -0.349 OA
HETATM   40  H   UNK N   1      26.505  14.910   1.539  0.00  0.00     0.219 HD
ENDBRANCH  23  39
ENDBRANCH  22  23
ENDBRANCH  21  22
ENDBRANCH  20  21
ENDBRANCH  19  20
ENDBRANCH  17  19
ENDBRANCH  16  17
BRANCH  16  41
HETATM   41  O   UNK N   1      20.299  18.496   0.457  0.00  0.00    -0.350 OA
HETATM   42  H   UNK N   1      19.983  19.273   0.039  0.00  0.00     0.219 HD
ENDBRANCH  16  41
ENDBRANCH  15  16
ENDBRANCH  14  15
ENDBRANCH  12  14
ENDBRANCH  11  12
BRANCH  11  43
HETATM   43  O   UNK N   1      22.712  21.790   2.938  0.00  0.00    -0.348 OA
HETATM   44  H   UNK N   1      22.089  22.111   3.559  0.00  0.00     0.219 HD
ENDBRANCH  11  43
ENDBRANCH  10  11
BRANCH  10  45
HETATM   45  O   UNK N   1      25.117  20.983   2.101  0.00  0.00    -0.387 OA
HETATM   46  H   UNK N   1      24.933  21.648   1.420  0.00  0.00     0.210 HD
ENDBRANCH  10  45
ENDBRANCH   7  10
ENDBRANCH   6   7
ENDBRANCH   5   6
ENDBRANCH   3   5
BRANCH   3  47
HETATM   47  O   UNK N   1      27.702  16.719   7.041  0.00  0.00    -0.195 OA
BRANCH  47  48
HETATM   48  P   UNK N   1      28.298  18.052   8.019  0.00  0.00     0.401 P 
HETATM   49  O   UNK N   1      27.983  19.337   7.203  0.00  0.00    -0.631 OA
BRANCH  48  50
HETATM   50  O   UNK N   1      27.322  18.224   9.443  0.00  0.00    -0.307 OA
HETATM   51  H   UNK N   1      26.857  18.494  10.250  0.00  0.00     0.222 HD
ENDBRANCH  48  50
BRANCH  48  52
HETATM   52  O   UNK N   1      29.983  18.085   8.511  0.00  0.00    -0.294 OA
BRANCH  52  53
HETATM   53  C   UNK N   1      30.430  16.775   8.729  0.00  0.00     0.215 C 
BRANCH  53  54
HETATM   54  C   UNK N   1      31.700  16.442   7.910  0.00  0.00     0.180 C 
HETATM   55  C   UNK N   1      32.864  17.442   8.036  0.00  0.00     0.197 C 
HETATM   56  C   UNK N   1      33.654  17.001   6.840  0.00  0.00     0.199 C 
HETATM   57  C   UNK N   1      32.505  16.925   5.838  0.00  0.00     0.262 C 
HETATM   58  O   UNK N   1      31.413  16.328   6.524  0.00  0.00    -0.353 OA
BRANCH  55  59
HETATM   59  O   UNK N   1      33.618  17.317   9.222  0.00  0.00    -0.286 OA
BRANCH  59  60
HETATM   60  P   UNK N   1      33.946  15.625   9.527  0.00  0.00     0.391 P 
HETATM   61  O   UNK N   1      35.442  15.512   9.923  0.00  0.00    -0.632 OA
BRANCH  60  62
HETATM   62  O   UNK N   1      33.690  14.616   8.137  0.00  0.00    -0.307 OA
HETATM   63  H   UNK N   1      33.546  14.498   7.185  0.00  0.00     0.222 HD
ENDBRANCH  60  62
BRANCH  60  64
HETATM   64  O   UNK N   1      33.027  15.034  10.875  0.00  0.00    -0.307 OA
HETATM   65  H   UNK N   1      32.627  15.659  11.500  0.00  0.00     0.222 HD
ENDBRANCH  60  64
ENDBRANCH  59  60
ENDBRANCH  55  59
BRANCH  56  66
HETATM   66  O   UNK N   1      34.645  17.917   6.475  0.00  0.00    -0.388 OA
HETATM   67  H   UNK N   1      34.939  18.348   5.658  0.00  0.00     0.210 HD
ENDBRANCH  56  66
BRANCH  57  68
HETATM   68  N   UNK N   1      32.805  16.198   4.595  0.00  0.00    -0.297 N 
HETATM   69  C   UNK N   1      33.022  16.808   3.401  0.00  0.00     0.188 A 
HETATM   70  N   UNK N   1      33.295  15.906   2.418  0.00  0.00    -0.346 N 
HETATM   71  C   UNK N   1      33.252  14.716   3.035  0.00  0.00     0.122 A 
ATOM     72  HN  UNK N   1      33.489  16.093   1.434  1.00  0.00     0.167 HD
HETATM   73  C   UNK N   1      33.469  13.446   2.525  0.00  0.00     0.131 A 
HETATM   74  C   UNK N   1      32.957  14.882   4.342  0.00  0.00     0.142 A 
HETATM   75  N   UNK N   1      33.382  12.387   3.383  0.00  0.00    -0.337 N 
HETATM   76  C   UNK N   1      33.086  12.578   4.712  0.00  0.00     0.183 A 
ATOM     77  HN  UNK N   1      33.538  11.442   3.033  1.00  0.00     0.168 HD
HETATM   78  N   UNK N   1      32.870  13.840   5.201  0.00  0.00    -0.336 N 
ATOM     79  HN  UNK N   1      32.650  13.990   6.186  1.00  0.00     0.168 HD
BRANCH  73  80
HETATM   80  N   UNK N   1      33.779  13.247   1.164  0.00  0.00    -0.383 N 
HETATM   81  H   UNK N   1      34.105  13.995   0.615  0.00  0.00     0.157 HD
HETATM   82  H   UNK N   1      33.666  12.355   0.762  0.00  0.00     0.157 HD
ENDBRANCH  73  80
ENDBRANCH  57  68
ENDBRANCH  53  54
ENDBRANCH  52  53
ENDBRANCH  48  52
ENDBRANCH  47  48
ENDBRANCH   3  47
TORSDOF 36
ENDMDL
MODEL 5
REMARK VINA RESULT:      -7.0      4.786     10.773
REMARK WARNING: 32 MAX_TORS EXCEEDED!!!
REMARK  36 active torsions:
REMARK  status: ('A' for Active; 'I' for Inactive)
REMARK    1  A    between atoms: C_7  and  C_5 
REMARK    2  A    between atoms: C_18  and  C_5 
REMARK    3  A    between atoms: C_8  and  C_6 
REMARK    4  A    between atoms: C_23  and  C_6 
REMARK    5  A    between atoms: N_36  and  C_7 
REMARK    6  A    between atoms: N_40  and  C_8 
REMARK    7  A    between atoms: C_10  and  C_9 
REMARK    8  A    between atoms: N_38  and  C_9 
REMARK    9  A    between atoms: S_70  and  C_10 
REMARK   10  A    between atoms: C_22  and  C_13 
REMARK   11  A    between atoms: O_62  and  C_13 
REMARK   12  A    between atoms: C_24  and  C_14 
REMARK   13  A    between atoms: S_70  and  C_14 
REMARK   14  A    between atoms: C_33  and  C_15 
REMARK   15  A    between atoms: O_63  and  C_15 
REMARK   16  A    between atoms: N_38  and  C_23 
REMARK   17  A    between atoms: O_50  and  C_23 
REMARK   18  A    between atoms: N_36  and  C_24 
REMARK   19  A    between atoms: O_51  and  C_24 
REMARK   20  A    between atoms: C_26  and  O_52 
REMARK   21  A    between atoms: C_27  and  O_65 
REMARK   22  A    between atoms: C_31  and  C_28 
REMARK   23  A    between atoms: C_33  and  C_28 
REMARK   24  A    between atoms: C_28  and  O_53 
REMARK   25  A    between atoms: N_35  and  C_29 
REMARK   26  A    between atoms: N_40  and  C_31 
REMARK   27  A    between atoms: O_54  and  C_31 
REMARK   28  A    between atoms: C_32  and  N_49 
REMARK   29  A    between atoms: P_67  and  O_55 
REMARK   30  A    between atoms: P_67  and  O_56 
REMARK   31  A    between atoms: P_68  and  O_58 
REMARK   32  A    between atoms: P_68  and  O_62 
REMARK   33  A    between atoms: P_69  and  O_63 
REMARK   34  A    between atoms: P_67  and  O_65 
REMARK   35  A    between atoms: P_68  and  O_66 
REMARK   36  A    between atoms: P_69  and  O_66 
ROOT
HETATM    1  O   UNK N   1      22.168  13.809   9.572  0.00  0.00    -0.307 OA
HETATM    2  O   UNK N   1      19.944  13.607  10.230  0.00  0.00    -0.631 OA
HETATM    3  P   UNK N   1      20.612  14.164   8.945  0.00  0.00     0.401 P 
HETATM    4  H   UNK N   1      23.048  13.739   9.973  0.00  0.00     0.222 HD
ENDROOT
BRANCH   3   5
HETATM    5  O   UNK N   1      20.919  12.980   7.704  0.00  0.00    -0.296 OA
BRANCH   5   6
HETATM    6  C   UNK N   1      22.047  12.221   8.106  0.00  0.00     0.192 C 
BRANCH   6   7
HETATM    7  C   UNK N   1      22.999  11.884   6.930  0.00  0.00     0.008 C 
HETATM    8  C   UNK N   1      23.676  10.554   7.207  0.00  0.00     0.020 C 
HETATM    9  C   UNK N   1      22.229  11.731   5.627  0.00  0.00     0.020 C 
BRANCH   7  10
HETATM   10  C   UNK N   1      24.125  12.935   6.729  0.00  0.00     0.202 C 
BRANCH  10  11
HETATM   11  C   UNK N   1      23.752  14.253   6.093  0.00  0.00     0.141 C 
BRANCH  11  12
HETATM   12  N   UNK N   1      24.116  14.549   4.895  0.00  0.00    -0.372 N 
ATOM     13  HN  UNK N   1      23.431  14.516   4.139  1.00  0.00     0.161 HD
BRANCH  12  14
HETATM   14  C   UNK N   1      25.478  14.927   4.602  0.00  0.00     0.129 C 
BRANCH  14  15
HETATM   15  C   UNK N   1      25.766  16.321   5.115  0.00  0.00     0.103 C 
BRANCH  15  16
HETATM   16  C   UNK N   1      25.239  17.358   4.184  0.00  0.00     0.112 C 
BRANCH  16  17
HETATM   17  N   UNK N   1      26.051  18.203   3.651  0.00  0.00    -0.374 N 
ATOM     18  HN  UNK N   1      26.543  17.947   2.795  1.00  0.00     0.161 HD
BRANCH  17  19
HETATM   19  C   UNK N   1      26.283  19.503   4.230  0.00  0.00     0.131 C 
BRANCH  19  20
HETATM   20  C   UNK N   1      27.657  19.553   4.898  0.00  0.00     0.094 C 
BRANCH  20  21
HETATM   21  S   UNK N   1      27.561  19.827   6.704  0.00  0.00    -0.159 SA
BRANCH  21  22
HETATM   22  C   UNK N   1      28.279  18.206   7.084  0.00  0.00     0.157 C 
BRANCH  22  23
HETATM   23  C   UNK N   1      28.318  17.980   8.564  0.00  0.00     0.120 C 
BRANCH  23  24
HETATM   24  N   UNK N   1      29.323  17.388   9.109  0.00  0.00    -0.374 N 
ATOM     25  HN  UNK N   1      29.155  16.668   9.811  1.00  0.00     0.161 HD
BRANCH  24  26
HETATM   26  C   UNK N   1      30.682  17.721   8.749  0.00  0.00     0.126 C 
BRANCH  26  27
HETATM   27  C   UNK N   1      31.410  16.482   8.250  0.00  0.00     0.060 C 
BRANCH  27  28
HETATM   28  C   UNK N   1      32.218  16.848   7.056  0.00  0.00    -0.029 A 
HETATM   29  C   UNK N   1      33.497  17.390   7.043  0.00  0.00     0.096 A 
HETATM   30  N   UNK N   1      33.878  17.609   5.757  0.00  0.00    -0.365 N 
HETATM   31  C   UNK N   1      32.847  17.209   4.989  0.00  0.00     0.043 A 
HETATM   32  H   UNK N   1      34.735  17.985   5.449  0.00  0.00     0.165 HD
HETATM   33  C   UNK N   1      32.762  17.250   3.599  0.00  0.00     0.031 A 
HETATM   34  C   UNK N   1      31.823  16.737   5.752  0.00  0.00    -0.001 A 
HETATM   35  C   UNK N   1      31.573  16.786   3.002  0.00  0.00     0.021 A 
HETATM   36  C   UNK N   1      30.513  16.297   3.800  0.00  0.00     0.011 A 
HETATM   37  C   UNK N   1      30.635  16.270   5.198  0.00  0.00     0.033 A 
HETATM   38 Br   UNK N   1      28.908  15.674   2.987  0.00  0.00    -0.051 Br
ENDBRANCH  27  28
ENDBRANCH  26  27
ENDBRANCH  24  26
ENDBRANCH  23  24
BRANCH  23  39
HETATM   39  O   UNK N   1      27.292  18.394   9.332  0.00  0.00    -0.349 OA
HETATM   40  H   UNK N   1      27.133  18.747  10.185  0.00  0.00     0.219 HD
ENDBRANCH  23  39
ENDBRANCH  22  23
ENDBRANCH  21  22
ENDBRANCH  20  21
ENDBRANCH  19  20
ENDBRANCH  17  19
ENDBRANCH  16  17
BRANCH  16  41
HETATM   41  O   UNK N   1      23.926  17.366   3.873  0.00  0.00    -0.350 OA
HETATM   42  H   UNK N   1      23.312  18.056   4.028  0.00  0.00     0.219 HD
ENDBRANCH  16  41
ENDBRANCH  15  16
ENDBRANCH  14  15
ENDBRANCH  12  14
ENDBRANCH  11  12
BRANCH  11  43
HETATM   43  O   UNK N   1      23.039  15.139   6.824  0.00  0.00    -0.348 OA
HETATM   44  H   UNK N   1      22.132  15.282   6.639  0.00  0.00     0.219 HD
ENDBRANCH  11  43
ENDBRANCH  10  11
BRANCH  10  45
HETATM   45  O   UNK N   1      24.758  13.192   7.948  0.00  0.00    -0.387 OA
HETATM   46  H   UNK N   1      25.219  13.966   8.307  0.00  0.00     0.210 HD
ENDBRANCH  10  45
ENDBRANCH   7  10
ENDBRANCH   6   7
ENDBRANCH   5   6
ENDBRANCH   3   5
BRANCH   3  47
HETATM   47  O   UNK N   1      21.041  15.859   9.061  0.00  0.00    -0.195 OA
BRANCH  47  48
HETATM   48  P   UNK N   1      20.169  16.842   7.893  0.00  0.00     0.401 P 
HETATM   49  O   UNK N   1      18.729  16.258   7.854  0.00  0.00    -0.631 OA
BRANCH  48  50
HETATM   50  O   UNK N   1      19.942  18.443   8.519  0.00  0.00    -0.307 OA
HETATM   51  H   UNK N   1      19.714  19.251   9.005  0.00  0.00     0.222 HD
ENDBRANCH  48  50
BRANCH  48  52
HETATM   52  O   UNK N   1      20.773  16.983   6.251  0.00  0.00    -0.294 OA
BRANCH  52  53
HETATM   53  C   UNK N   1      19.992  16.193   5.397  0.00  0.00     0.215 C 
BRANCH  53  54
HETATM   54  C   UNK N   1      20.722  15.856   4.075  0.00  0.00     0.180 C 
HETATM   55  C   UNK N   1      20.441  16.801   2.892  0.00  0.00     0.197 C 
HETATM   56  C   UNK N   1      20.962  15.926   1.792  0.00  0.00     0.199 C 
HETATM   57  C   UNK N   1      20.285  14.624   2.213  0.00  0.00     0.262 C 
HETATM   58  O   UNK N   1      20.413  14.545   3.627  0.00  0.00    -0.353 OA
BRANCH  55  59
HETATM   59  O   UNK N   1      21.138  18.027   2.943  0.00  0.00    -0.286 OA
BRANCH  59  60
HETATM   60  P   UNK N   1      20.136  19.294   2.267  0.00  0.00     0.391 P 
HETATM   61  O   UNK N   1      20.402  20.579   3.095  0.00  0.00    -0.632 OA
BRANCH  60  62
HETATM   62  O   UNK N   1      18.437  18.947   2.360  0.00  0.00    -0.307 OA
HETATM   63  H   UNK N   1      17.512  19.157   2.157  0.00  0.00     0.222 HD
ENDBRANCH  60  62
BRANCH  60  64
HETATM   64  O   UNK N   1      20.587  19.653   0.630  0.00  0.00    -0.307 OA
HETATM   65  H   UNK N   1      20.484  18.979  -0.059  0.00  0.00     0.222 HD
ENDBRANCH  60  64
ENDBRANCH  59  60
ENDBRANCH  55  59
BRANCH  56  66
HETATM   66  O   UNK N   1      20.574  16.362   0.521  0.00  0.00    -0.388 OA
HETATM   67  H   UNK N   1      20.685  17.165  -0.012  0.00  0.00     0.210 HD
ENDBRANCH  56  66
BRANCH  57  68
HETATM   68  N   UNK N   1      20.809  13.409   1.569  0.00  0.00    -0.297 N 
HETATM   69  C   UNK N   1      20.019  12.427   1.063  0.00  0.00     0.188 A 
HETATM   70  N   UNK N   1      20.757  11.424   0.509  0.00  0.00    -0.346 N 
HETATM   71  C   UNK N   1      22.029  11.816   0.675  0.00  0.00     0.122 A 
ATOM     72  HN  UNK N   1      20.419  10.569   0.068  1.00  0.00     0.167 HD
HETATM   73  C   UNK N   1      23.205  11.192   0.288  0.00  0.00     0.131 A 
HETATM   74  C   UNK N   1      22.070  13.006   1.312  0.00  0.00     0.142 A 
HETATM   75  N   UNK N   1      24.385  11.820   0.565  0.00  0.00    -0.337 N 
HETATM   76  C   UNK N   1      24.405  13.034   1.210  0.00  0.00     0.183 A 
ATOM     77  HN  UNK N   1      25.265  11.382   0.290  1.00  0.00     0.168 HD
HETATM   78  N   UNK N   1      23.234  13.638   1.589  0.00  0.00    -0.336 N 
ATOM     79  HN  UNK N   1      23.240  14.538   2.068  1.00  0.00     0.168 HD
BRANCH  73  80
HETATM   80  N   UNK N   1      23.189   9.949  -0.378  0.00  0.00    -0.383 N 
HETATM   81  H   UNK N   1      23.819   9.239  -0.119  0.00  0.00     0.157 HD
HETATM   82  H   UNK N   1      22.544   9.792  -1.106  0.00  0.00     0.157 HD
ENDBRANCH  73  80
ENDBRANCH  57  68
ENDBRANCH  53  54
ENDBRANCH  52  53
ENDBRANCH  48  52
ENDBRANCH  47  48
ENDBRANCH   3  47
TORSDOF 36
ENDMDL
MODEL 6
REMARK VINA RESULT:      -6.9      6.067      9.475
REMARK WARNING: 32 MAX_TORS EXCEEDED!!!
REMARK  36 active torsions:
REMARK  status: ('A' for Active; 'I' for Inactive)
REMARK    1  A    between atoms: C_7  and  C_5 
REMARK    2  A    between atoms: C_18  and  C_5 
REMARK    3  A    between atoms: C_8  and  C_6 
REMARK    4  A    between atoms: C_23  and  C_6 
REMARK    5  A    between atoms: N_36  and  C_7 
REMARK    6  A    between atoms: N_40  and  C_8 
REMARK    7  A    between atoms: C_10  and  C_9 
REMARK    8  A    between atoms: N_38  and  C_9 
REMARK    9  A    between atoms: S_70  and  C_10 
REMARK   10  A    between atoms: C_22  and  C_13 
REMARK   11  A    between atoms: O_62  and  C_13 
REMARK   12  A    between atoms: C_24  and  C_14 
REMARK   13  A    between atoms: S_70  and  C_14 
REMARK   14  A    between atoms: C_33  and  C_15 
REMARK   15  A    between atoms: O_63  and  C_15 
REMARK   16  A    between atoms: N_38  and  C_23 
REMARK   17  A    between atoms: O_50  and  C_23 
REMARK   18  A    between atoms: N_36  and  C_24 
REMARK   19  A    between atoms: O_51  and  C_24 
REMARK   20  A    between atoms: C_26  and  O_52 
REMARK   21  A    between atoms: C_27  and  O_65 
REMARK   22  A    between atoms: C_31  and  C_28 
REMARK   23  A    between atoms: C_33  and  C_28 
REMARK   24  A    between atoms: C_28  and  O_53 
REMARK   25  A    between atoms: N_35  and  C_29 
REMARK   26  A    between atoms: N_40  and  C_31 
REMARK   27  A    between atoms: O_54  and  C_31 
REMARK   28  A    between atoms: C_32  and  N_49 
REMARK   29  A    between atoms: P_67  and  O_55 
REMARK   30  A    between atoms: P_67  and  O_56 
REMARK   31  A    between atoms: P_68  and  O_58 
REMARK   32  A    between atoms: P_68  and  O_62 
REMARK   33  A    between atoms: P_69  and  O_63 
REMARK   34  A    between atoms: P_67  and  O_65 
REMARK   35  A    between atoms: P_68  and  O_66 
REMARK   36  A    between atoms: P_69  and  O_66 
ROOT
HETATM    1  O   UNK N   1      33.327  16.437   8.738  0.00  0.00    -0.307 OA
HETATM    2  O   UNK N   1      32.993  18.673   8.187  0.00  0.00    -0.631 OA
HETATM    3  P   UNK N   1      34.241  17.752   8.126  0.00  0.00     0.401 P 
HETATM    4  H   UNK N   1      32.856  15.732   9.209  0.00  0.00     0.222 HD
ENDROOT
BRANCH   3   5
HETATM    5  O   UNK N   1      34.416  16.850   6.645  0.00  0.00    -0.296 OA
BRANCH   5   6
HETATM    6  C   UNK N   1      33.652  17.509   5.649  0.00  0.00     0.192 C 
BRANCH   6   7
HETATM    7  C   UNK N   1      32.734  16.545   4.855  0.00  0.00     0.008 C 
HETATM    8  C   UNK N   1      32.442  17.148   3.493  0.00  0.00     0.020 C 
HETATM    9  C   UNK N   1      33.420  15.208   4.614  0.00  0.00     0.020 C 
BRANCH   7  10
HETATM   10  C   UNK N   1      31.365  16.291   5.544  0.00  0.00     0.202 C 
BRANCH  10  11
HETATM   11  C   UNK N   1      31.052  14.882   5.989  0.00  0.00     0.141 C 
BRANCH  11  12
HETATM   12  N   UNK N   1      30.116  14.194   5.436  0.00  0.00    -0.372 N 
ATOM     13  HN  UNK N   1      29.145  14.360   5.704  1.00  0.00     0.161 HD
BRANCH  12  14
HETATM   14  C   UNK N   1      30.416  13.190   4.445  0.00  0.00     0.129 C 
BRANCH  14  15
HETATM   15  C   UNK N   1      30.456  13.802   3.061  0.00  0.00     0.103 C 
BRANCH  15  16
HETATM   16  C   UNK N   1      29.171  14.481   2.735  0.00  0.00     0.112 C 
BRANCH  16  17
HETATM   17  N   UNK N   1      28.257  13.837   2.097  0.00  0.00    -0.374 N 
ATOM     18  HN  UNK N   1      28.326  13.751   1.084  1.00  0.00     0.161 HD
BRANCH  17  19
HETATM   19  C   UNK N   1      27.137  13.234   2.777  0.00  0.00     0.131 C 
BRANCH  19  20
HETATM   20  C   UNK N   1      25.820  13.740   2.190  0.00  0.00     0.094 C 
BRANCH  20  21
HETATM   21  S   UNK N   1      25.372  15.412   2.783  0.00  0.00    -0.159 SA
BRANCH  21  22
HETATM   22  C   UNK N   1      23.975  14.796   3.760  0.00  0.00     0.157 C 
BRANCH  22  23
HETATM   23  C   UNK N   1      24.416  14.440   5.145  0.00  0.00     0.120 C 
BRANCH  23  24
HETATM   24  N   UNK N   1      24.630  15.361   6.020  0.00  0.00    -0.374 N 
ATOM     25  HN  UNK N   1      23.974  16.139   6.094  1.00  0.00     0.161 HD
BRANCH  24  26
HETATM   26  C   UNK N   1      25.776  15.317   6.898  0.00  0.00     0.126 C 
BRANCH  26  27
HETATM   27  C   UNK N   1      27.037  15.686   6.132  0.00  0.00     0.060 C 
BRANCH  27  28
HETATM   28  C   UNK N   1      27.507  17.021   6.593  0.00  0.00    -0.029 A 
HETATM   29  C   UNK N   1      28.258  17.299   7.728  0.00  0.00     0.096 A 
HETATM   30  N   UNK N   1      28.458  18.641   7.816  0.00  0.00    -0.365 N 
HETATM   31  C   UNK N   1      27.836  19.181   6.751  0.00  0.00     0.043 A 
HETATM   32  H   UNK N   1      28.956  19.120   8.517  0.00  0.00     0.165 HD
HETATM   33  C   UNK N   1      27.751  20.530   6.416  0.00  0.00     0.031 A 
HETATM   34  C   UNK N   1      27.250  18.218   5.986  0.00  0.00    -0.001 A 
HETATM   35  C   UNK N   1      27.034  20.872   5.253  0.00  0.00     0.021 A 
HETATM   36  C   UNK N   1      26.428  19.868   4.462  0.00  0.00     0.011 A 
HETATM   37  C   UNK N   1      26.535  18.517   4.831  0.00  0.00     0.033 A 
HETATM   38 Br   UNK N   1      25.458  20.336   2.892  0.00  0.00    -0.051 Br
ENDBRANCH  27  28
ENDBRANCH  26  27
ENDBRANCH  24  26
ENDBRANCH  23  24
BRANCH  23  39
HETATM   39  O   UNK N   1      24.598  13.148   5.479  0.00  0.00    -0.349 OA
HETATM   40  H   UNK N   1      24.148  12.452   5.916  0.00  0.00     0.219 HD
ENDBRANCH  23  39
ENDBRANCH  22  23
ENDBRANCH  21  22
ENDBRANCH  20  21
ENDBRANCH  19  20
ENDBRANCH  17  19
ENDBRANCH  16  17
BRANCH  16  41
HETATM   41  O   UNK N   1      28.961  15.746   3.157  0.00  0.00    -0.350 OA
HETATM   42  H   UNK N   1      29.611  16.389   3.361  0.00  0.00     0.219 HD
ENDBRANCH  16  41
ENDBRANCH  15  16
ENDBRANCH  14  15
ENDBRANCH  12  14
ENDBRANCH  11  12
BRANCH  11  43
HETATM   43  O   UNK N   1      31.766  14.358   7.010  0.00  0.00    -0.348 OA
HETATM   44  H   UNK N   1      31.356  13.786   7.629  0.00  0.00     0.219 HD
ENDBRANCH  11  43
ENDBRANCH  10  11
BRANCH  10  45
HETATM   45  O   UNK N   1      31.218  17.147   6.638  0.00  0.00    -0.387 OA
HETATM   46  H   UNK N   1      31.378  17.043   7.590  0.00  0.00     0.210 HD
ENDBRANCH  10  45
ENDBRANCH   7  10
ENDBRANCH   6   7
ENDBRANCH   5   6
ENDBRANCH   3   5
BRANCH   3  47
HETATM   47  O   UNK N   1      35.151  17.711   9.623  0.00  0.00    -0.195 OA
BRANCH  47  48
HETATM   48  P   UNK N   1      35.439  16.066  10.173  0.00  0.00     0.401 P 
HETATM   49  O   UNK N   1      35.678  15.233   8.882  0.00  0.00    -0.631 OA
BRANCH  48  50
HETATM   50  O   UNK N   1      36.960  15.978  11.002  0.00  0.00    -0.307 OA
HETATM   51  H   UNK N   1      37.727  15.789  11.566  0.00  0.00     0.222 HD
ENDBRANCH  48  50
BRANCH  48  52
HETATM   52  O   UNK N   1      34.236  15.256  11.162  0.00  0.00    -0.294 OA
BRANCH  52  53
HETATM   53  C   UNK N   1      34.563  13.899  11.276  0.00  0.00     0.215 C 
BRANCH  53  54
HETATM   54  C   UNK N   1      35.492  13.616  12.481  0.00  0.00     0.180 C 
HETATM   55  C   UNK N   1      36.594  12.566  12.249  0.00  0.00     0.197 C 
HETATM   56  C   UNK N   1      36.948  12.308  13.683  0.00  0.00     0.199 C 
HETATM   57  C   UNK N   1      35.531  12.164  14.233  0.00  0.00     0.262 C 
HETATM   58  O   UNK N   1      34.757  13.185  13.617  0.00  0.00    -0.353 OA
BRANCH  55  59
HETATM   59  O   UNK N   1      37.709  13.038  11.524  0.00  0.00    -0.286 OA
BRANCH  59  60
HETATM   60  P   UNK N   1      37.721  12.307   9.933  0.00  0.00     0.391 P 
HETATM   61  O   UNK N   1      38.982  11.407   9.852  0.00  0.00    -0.632 OA
BRANCH  60  62
HETATM   62  O   UNK N   1      37.816  13.469   8.646  0.00  0.00    -0.307 OA
HETATM   63  H   UNK N   1      37.909  13.694   7.707  0.00  0.00     0.222 HD
ENDBRANCH  60  62
BRANCH  60  64
HETATM   64  O   UNK N   1      36.351  11.267   9.704  0.00  0.00    -0.307 OA
HETATM   65  H   UNK N   1      35.582  11.582   9.205  0.00  0.00     0.222 HD
ENDBRANCH  60  64
ENDBRANCH  59  60
ENDBRANCH  55  59
BRANCH  56  66
HETATM   66  O   UNK N   1      37.725  11.158  13.853  0.00  0.00    -0.388 OA
HETATM   67  H   UNK N   1      37.716  10.247  13.520  0.00  0.00     0.210 HD
ENDBRANCH  56  66
BRANCH  57  68
HETATM   68  N   UNK N   1      35.418  12.229  15.698  0.00  0.00    -0.297 N 
HETATM   69  C   UNK N   1      34.878  13.282  16.364  0.00  0.00     0.188 A 
HETATM   70  N   UNK N   1      34.880  13.080  17.711  0.00  0.00    -0.346 N 
HETATM   71  C   UNK N   1      35.428  11.866  17.865  0.00  0.00     0.122 A 
ATOM     72  HN  UNK N   1      34.542  13.710  18.438  1.00  0.00     0.167 HD
HETATM   73  C   UNK N   1      35.665  11.142  19.023  0.00  0.00     0.131 A 
HETATM   74  C   UNK N   1      35.755  11.348  16.662  0.00  0.00     0.142 A 
HETATM   75  N   UNK N   1      36.226   9.903  18.901  0.00  0.00    -0.337 N 
HETATM   76  C   UNK N   1      36.547   9.392  17.666  0.00  0.00     0.183 A 
ATOM     77  HN  UNK N   1      36.410   9.350  19.738  1.00  0.00     0.168 HD
HETATM   78  N   UNK N   1      36.310  10.121  16.530  0.00  0.00    -0.336 N 
ATOM     79  HN  UNK N   1      36.545   9.748  15.610  1.00  0.00     0.168 HD
BRANCH  73  80
HETATM   80  N   UNK N   1      35.332  11.661  20.291  0.00  0.00    -0.383 N 
HETATM   81  H   UNK N   1      34.999  12.583  20.378  0.00  0.00     0.157 HD
HETATM   82  H   UNK N   1      35.436  11.098  21.093  0.00  0.00     0.157 HD
ENDBRANCH  73  80
ENDBRANCH  57  68
ENDBRANCH  53  54
ENDBRANCH  52  53
ENDBRANCH  48  52
ENDBRANCH  47  48
ENDBRANCH   3  47
TORSDOF 36
ENDMDL
MODEL 7
REMARK VINA RESULT:      -6.8      1.993      2.657
REMARK WARNING: 32 MAX_TORS EXCEEDED!!!
REMARK  36 active torsions:
REMARK  status: ('A' for Active; 'I' for Inactive)
REMARK    1  A    between atoms: C_7  and  C_5 
REMARK    2  A    between atoms: C_18  and  C_5 
REMARK    3  A    between atoms: C_8  and  C_6 
REMARK    4  A    between atoms: C_23  and  C_6 
REMARK    5  A    between atoms: N_36  and  C_7 
REMARK    6  A    between atoms: N_40  and  C_8 
REMARK    7  A    between atoms: C_10  and  C_9 
REMARK    8  A    between atoms: N_38  and  C_9 
REMARK    9  A    between atoms: S_70  and  C_10 
REMARK   10  A    between atoms: C_22  and  C_13 
REMARK   11  A    between atoms: O_62  and  C_13 
REMARK   12  A    between atoms: C_24  and  C_14 
REMARK   13  A    between atoms: S_70  and  C_14 
REMARK   14  A    between atoms: C_33  and  C_15 
REMARK   15  A    between atoms: O_63  and  C_15 
REMARK   16  A    between atoms: N_38  and  C_23 
REMARK   17  A    between atoms: O_50  and  C_23 
REMARK   18  A    between atoms: N_36  and  C_24 
REMARK   19  A    between atoms: O_51  and  C_24 
REMARK   20  A    between atoms: C_26  and  O_52 
REMARK   21  A    between atoms: C_27  and  O_65 
REMARK   22  A    between atoms: C_31  and  C_28 
REMARK   23  A    between atoms: C_33  and  C_28 
REMARK   24  A    between atoms: C_28  and  O_53 
REMARK   25  A    between atoms: N_35  and  C_29 
REMARK   26  A    between atoms: N_40  and  C_31 
REMARK   27  A    between atoms: O_54  and  C_31 
REMARK   28  A    between atoms: C_32  and  N_49 
REMARK   29  A    between atoms: P_67  and  O_55 
REMARK   30  A    between atoms: P_67  and  O_56 
REMARK   31  A    between atoms: P_68  and  O_58 
REMARK   32  A    between atoms: P_68  and  O_62 
REMARK   33  A    between atoms: P_69  and  O_63 
REMARK   34  A    between atoms: P_67  and  O_65 
REMARK   35  A    between atoms: P_68  and  O_66 
REMARK   36  A    between atoms: P_69  and  O_66 
ROOT
HETATM    1  O   UNK N   1      29.586  15.156   4.445  0.00  0.00    -0.307 OA
HETATM    2  O   UNK N   1      29.158  16.353   2.496  0.00  0.00    -0.631 OA
HETATM    3  P   UNK N   1      29.136  14.836   2.821  0.00  0.00     0.401 P 
HETATM    4  H   UNK N   1      29.971  15.316   5.321  0.00  0.00     0.222 HD
ENDROOT
BRANCH   3   5
HETATM    5  O   UNK N   1      27.618  14.238   3.434  0.00  0.00    -0.296 OA
BRANCH   5   6
HETATM    6  C   UNK N   1      26.753  14.051   2.327  0.00  0.00     0.192 C 
BRANCH   6   7
HETATM    7  C   UNK N   1      25.383  14.755   2.504  0.00  0.00     0.008 C 
HETATM    8  C   UNK N   1      25.610  16.248   2.659  0.00  0.00     0.020 C 
HETATM    9  C   UNK N   1      24.505  14.561   1.277  0.00  0.00     0.020 C 
BRANCH   7  10
HETATM   10  C   UNK N   1      24.605  14.280   3.761  0.00  0.00     0.202 C 
BRANCH  10  11
HETATM   11  C   UNK N   1      24.118  12.851   3.789  0.00  0.00     0.141 C 
BRANCH  11  12
HETATM   12  N   UNK N   1      24.936  11.863   3.890  0.00  0.00    -0.372 N 
ATOM     13  HN  UNK N   1      25.251  11.383   3.046  1.00  0.00     0.161 HD
BRANCH  12  14
HETATM   14  C   UNK N   1      25.415  11.422   5.178  0.00  0.00     0.129 C 
BRANCH  14  15
HETATM   15  C   UNK N   1      24.291  10.803   5.981  0.00  0.00     0.103 C 
BRANCH  15  16
HETATM   16  C   UNK N   1      24.058  11.553   7.247  0.00  0.00     0.112 C 
BRANCH  16  17
HETATM   17  N   UNK N   1      24.295  12.818   7.288  0.00  0.00    -0.374 N 
ATOM     18  HN  UNK N   1      25.161  13.173   6.884  1.00  0.00     0.161 HD
BRANCH  17  19
HETATM   19  C   UNK N   1      23.369  13.745   7.889  0.00  0.00     0.131 C 
BRANCH  19  20
HETATM   20  C   UNK N   1      22.381  14.266   6.845  0.00  0.00     0.094 C 
BRANCH  20  21
HETATM   21  S   UNK N   1      20.815  13.321   6.813  0.00  0.00    -0.159 SA
BRANCH  21  22
HETATM   22  C   UNK N   1      20.049  14.447   5.616  0.00  0.00     0.157 C 
BRANCH  22  23
HETATM   23  C   UNK N   1      19.306  13.677   4.568  0.00  0.00     0.120 C 
BRANCH  23  24
HETATM   24  N   UNK N   1      19.938  13.120   3.595  0.00  0.00    -0.374 N 
ATOM     25  HN  UNK N   1      20.780  12.579   3.793  1.00  0.00     0.161 HD
BRANCH  24  26
HETATM   26  C   UNK N   1      19.483  13.245   2.229  0.00  0.00     0.126 C 
BRANCH  26  27
HETATM   27  C   UNK N   1      20.539  13.942   1.386  0.00  0.00     0.060 C 
BRANCH  27  28
HETATM   28  C   UNK N   1      20.184  15.381   1.263  0.00  0.00    -0.029 A 
HETATM   29  C   UNK N   1      19.314  15.954   0.344  0.00  0.00     0.096 A 
HETATM   30  N   UNK N   1      19.280  17.299   0.536  0.00  0.00    -0.365 N 
HETATM   31  C   UNK N   1      20.120  17.551   1.559  0.00  0.00     0.043 A 
HETATM   32  H   UNK N   1      18.749  17.956   0.030  0.00  0.00     0.165 HD
HETATM   33  C   UNK N   1      20.430  18.791   2.112  0.00  0.00     0.031 A 
HETATM   34  C   UNK N   1      20.683  16.401   2.023  0.00  0.00    -0.001 A 
HETATM   35  C   UNK N   1      21.352  18.820   3.178  0.00  0.00     0.021 A 
HETATM   36  C   UNK N   1      21.933  17.623   3.656  0.00  0.00     0.011 A 
HETATM   37  C   UNK N   1      21.596  16.391   3.073  0.00  0.00     0.033 A 
HETATM   38 Br   UNK N   1      23.181  17.669   5.094  0.00  0.00    -0.051 Br
ENDBRANCH  27  28
ENDBRANCH  26  27
ENDBRANCH  24  26
ENDBRANCH  23  24
BRANCH  23  39
HETATM   39  O   UNK N   1      17.966  13.571   4.640  0.00  0.00    -0.349 OA
HETATM   40  H   UNK N   1      17.298  13.347   5.258  0.00  0.00     0.219 HD
ENDBRANCH  23  39
ENDBRANCH  22  23
ENDBRANCH  21  22
ENDBRANCH  20  21
ENDBRANCH  19  20
ENDBRANCH  17  19
ENDBRANCH  16  17
BRANCH  16  41
HETATM   41  O   UNK N   1      23.553  10.907   8.319  0.00  0.00    -0.350 OA
HETATM   42  H   UNK N   1      23.864  10.948   9.202  0.00  0.00     0.219 HD
ENDBRANCH  16  41
ENDBRANCH  15  16
ENDBRANCH  14  15
ENDBRANCH  12  14
ENDBRANCH  11  12
BRANCH  11  43
HETATM   43  O   UNK N   1      22.790  12.622   3.680  0.00  0.00    -0.348 OA
HETATM   44  H   UNK N   1      22.296  13.022   2.991  0.00  0.00     0.219 HD
ENDBRANCH  11  43
ENDBRANCH  10  11
BRANCH  10  45
HETATM   45  O   UNK N   1      25.368  14.512   4.909  0.00  0.00    -0.387 OA
HETATM   46  H   UNK N   1      26.133  14.063   5.301  0.00  0.00     0.210 HD
ENDBRANCH  10  45
ENDBRANCH   7  10
ENDBRANCH   6   7
ENDBRANCH   5   6
ENDBRANCH   3   5
BRANCH   3  47
HETATM   47  O   UNK N   1      30.695  14.059   2.628  0.00  0.00    -0.195 OA
BRANCH  47  48
HETATM   48  P   UNK N   1      31.991  14.989   3.368  0.00  0.00     0.401 P 
HETATM   49  O   UNK N   1      33.251  14.703   2.504  0.00  0.00    -0.631 OA
BRANCH  48  50
HETATM   50  O   UNK N   1      31.711  16.685   3.132  0.00  0.00    -0.307 OA
HETATM   51  H   UNK N   1      31.642  17.605   2.832  0.00  0.00     0.222 HD
ENDBRANCH  48  50
BRANCH  48  52
HETATM   52  O   UNK N   1      32.386  14.736   5.059  0.00  0.00    -0.294 OA
BRANCH  52  53
HETATM   53  C   UNK N   1      33.151  15.813   5.525  0.00  0.00     0.215 C 
BRANCH  53  54
HETATM   54  C   UNK N   1      32.413  16.634   6.609  0.00  0.00     0.180 C 
HETATM   55  C   UNK N   1      32.328  15.986   8.003  0.00  0.00     0.197 C 
HETATM   56  C   UNK N   1      31.245  16.852   8.575  0.00  0.00     0.199 C 
HETATM   57  C   UNK N   1      30.283  16.803   7.391  0.00  0.00     0.262 C 
HETATM   58  O   UNK N   1      31.080  16.933   6.221  0.00  0.00    -0.353 OA
BRANCH  55  59
HETATM   59  O   UNK N   1      33.512  16.079   8.765  0.00  0.00    -0.286 OA
BRANCH  59  60
HETATM   60  P   UNK N   1      33.741  14.597   9.668  0.00  0.00     0.391 P 
HETATM   61  O   UNK N   1      35.198  14.128   9.416  0.00  0.00    -0.632 OA
BRANCH  60  62
HETATM   62  O   UNK N   1      32.679  13.318   9.165  0.00  0.00    -0.307 OA
HETATM   63  H   UNK N   1      32.513  12.478   8.708  0.00  0.00     0.222 HD
ENDBRANCH  60  62
BRANCH  60  64
HETATM   64  O   UNK N   1      33.592  14.865  11.376  0.00  0.00    -0.307 OA
HETATM   65  H   UNK N   1      33.692  15.759  11.736  0.00  0.00     0.222 HD
ENDBRANCH  60  64
ENDBRANCH  59  60
ENDBRANCH  55  59
BRANCH  56  66
HETATM   66  O   UNK N   1      30.698  16.331   9.751  0.00  0.00    -0.388 OA
HETATM   67  H   UNK N   1      31.027  16.067  10.624  0.00  0.00     0.210 HD
ENDBRANCH  56  66
BRANCH  57  68
HETATM   68  N   UNK N   1      29.212  17.812   7.412  0.00  0.00    -0.297 N 
HETATM   69  C   UNK N   1      28.743  18.386   8.549  0.00  0.00     0.188 A 
HETATM   70  N   UNK N   1      27.766  19.298   8.286  0.00  0.00    -0.346 N 
HETATM   71  C   UNK N   1      27.647  19.283   6.950  0.00  0.00     0.122 A 
ATOM     72  HN  UNK N   1      27.243  19.865   8.954  1.00  0.00     0.167 HD
HETATM   73  C   UNK N   1      26.814  20.025   6.128  0.00  0.00     0.131 A 
HETATM   74  C   UNK N   1      28.510  18.393   6.417  0.00  0.00     0.142 A 
HETATM   75  N   UNK N   1      26.904  19.830   4.780  0.00  0.00    -0.337 N 
HETATM   76  C   UNK N   1      27.794  18.922   4.256  0.00  0.00     0.183 A 
ATOM     77  HN  UNK N   1      26.303  20.364   4.152  1.00  0.00     0.168 HD
HETATM   78  N   UNK N   1      28.609  18.192   5.083  0.00  0.00    -0.336 N 
ATOM     79  HN  UNK N   1      29.272  17.517   4.702  1.00  0.00     0.168 HD
BRANCH  73  80
HETATM   80  N   UNK N   1      25.904  20.961   6.661  0.00  0.00    -0.383 N 
HETATM   81  H   UNK N   1      25.160  20.661   7.230  0.00  0.00     0.157 HD
HETATM   82  H   UNK N   1      26.014  21.919   6.460  0.00  0.00     0.157 HD
ENDBRANCH  73  80
ENDBRANCH  57  68
ENDBRANCH  53  54
ENDBRANCH  52  53
ENDBRANCH  48  52
ENDBRANCH  47  48
ENDBRANCH   3  47
TORSDOF 36
ENDMDL
MODEL 8
REMARK VINA RESULT:      -6.7      1.540      2.084
REMARK WARNING: 32 MAX_TORS EXCEEDED!!!
REMARK  36 active torsions:
REMARK  status: ('A' for Active; 'I' for Inactive)
REMARK    1  A    between atoms: C_7  and  C_5 
REMARK    2  A    between atoms: C_18  and  C_5 
REMARK    3  A    between atoms: C_8  and  C_6 
REMARK    4  A    between atoms: C_23  and  C_6 
REMARK    5  A    between atoms: N_36  and  C_7 
REMARK    6  A    between atoms: N_40  and  C_8 
REMARK    7  A    between atoms: C_10  and  C_9 
REMARK    8  A    between atoms: N_38  and  C_9 
REMARK    9  A    between atoms: S_70  and  C_10 
REMARK   10  A    between atoms: C_22  and  C_13 
REMARK   11  A    between atoms: O_62  and  C_13 
REMARK   12  A    between atoms: C_24  and  C_14 
REMARK   13  A    between atoms: S_70  and  C_14 
REMARK   14  A    between atoms: C_33  and  C_15 
REMARK   15  A    between atoms: O_63  and  C_15 
REMARK   16  A    between atoms: N_38  and  C_23 
REMARK   17  A    between atoms: O_50  and  C_23 
REMARK   18  A    between atoms: N_36  and  C_24 
REMARK   19  A    between atoms: O_51  and  C_24 
REMARK   20  A    between atoms: C_26  and  O_52 
REMARK   21  A    between atoms: C_27  and  O_65 
REMARK   22  A    between atoms: C_31  and  C_28 
REMARK   23  A    between atoms: C_33  and  C_28 
REMARK   24  A    between atoms: C_28  and  O_53 
REMARK   25  A    between atoms: N_35  and  C_29 
REMARK   26  A    between atoms: N_40  and  C_31 
REMARK   27  A    between atoms: O_54  and  C_31 
REMARK   28  A    between atoms: C_32  and  N_49 
REMARK   29  A    between atoms: P_67  and  O_55 
REMARK   30  A    between atoms: P_67  and  O_56 
REMARK   31  A    between atoms: P_68  and  O_58 
REMARK   32  A    between atoms: P_68  and  O_62 
REMARK   33  A    between atoms: P_69  and  O_63 
REMARK   34  A    between atoms: P_67  and  O_65 
REMARK   35  A    between atoms: P_68  and  O_66 
REMARK   36  A    between atoms: P_69  and  O_66 
ROOT
HETATM    1  O   UNK N   1      29.677  13.677   4.766  0.00  0.00    -0.307 OA
HETATM    2  O   UNK N   1      30.957  14.449   2.983  0.00  0.00    -0.631 OA
HETATM    3  P   UNK N   1      29.923  13.299   3.112  0.00  0.00     0.401 P 
HETATM    4  H   UNK N   1      29.634  13.795   5.728  0.00  0.00     0.222 HD
ENDROOT
BRANCH   3   5
HETATM    5  O   UNK N   1      28.268  13.764   2.831  0.00  0.00    -0.296 OA
BRANCH   5   6
HETATM    6  C   UNK N   1      27.538  13.487   4.015  0.00  0.00     0.192 C 
BRANCH   6   7
HETATM    7  C   UNK N   1      26.226  14.306   4.123  0.00  0.00     0.008 C 
HETATM    8  C   UNK N   1      26.186  15.328   3.002  0.00  0.00     0.020 C 
HETATM    9  C   UNK N   1      25.006  13.411   3.956  0.00  0.00     0.020 C 
BRANCH   7  10
HETATM   10  C   UNK N   1      26.097  15.088   5.458  0.00  0.00     0.202 C 
BRANCH  10  11
HETATM   11  C   UNK N   1      25.097  14.589   6.473  0.00  0.00     0.141 C 
BRANCH  11  12
HETATM   12  N   UNK N   1      25.310  13.521   7.160  0.00  0.00    -0.372 N 
ATOM     13  HN  UNK N   1      25.786  12.731   6.724  1.00  0.00     0.161 HD
BRANCH  12  14
HETATM   14  C   UNK N   1      24.888  13.424   8.536  0.00  0.00     0.129 C 
BRANCH  14  15
HETATM   15  C   UNK N   1      23.862  12.324   8.703  0.00  0.00     0.103 C 
BRANCH  15  16
HETATM   16  C   UNK N   1      22.828  12.699   9.707  0.00  0.00     0.112 C 
BRANCH  16  17
HETATM   17  N   UNK N   1      21.587  12.711   9.367  0.00  0.00    -0.374 N 
ATOM     18  HN  UNK N   1      20.947  12.045   9.799  1.00  0.00     0.161 HD
BRANCH  17  19
HETATM   19  C   UNK N   1      21.076  13.639   8.389  0.00  0.00     0.131 C 
BRANCH  19  20
HETATM   20  C   UNK N   1      21.193  15.074   8.903  0.00  0.00     0.094 C 
BRANCH  20  21
HETATM   21  S   UNK N   1      19.775  16.122   8.415  0.00  0.00    -0.159 SA
BRANCH  21  22
HETATM   22  C   UNK N   1      20.460  16.448   6.768  0.00  0.00     0.157 C 
BRANCH  22  23
HETATM   23  C   UNK N   1      21.235  17.729   6.763  0.00  0.00     0.120 C 
BRANCH  23  24
HETATM   24  N   UNK N   1      22.344  17.819   6.116  0.00  0.00    -0.374 N 
ATOM     25  HN  UNK N   1      23.214  17.559   6.581  1.00  0.00     0.161 HD
BRANCH  24  26
HETATM   26  C   UNK N   1      22.385  18.282   4.748  0.00  0.00     0.126 C 
BRANCH  26  27
HETATM   27  C   UNK N   1      22.791  17.145   3.823  0.00  0.00     0.060 C 
BRANCH  27  28
HETATM   28  C   UNK N   1      21.588  16.670   3.088  0.00  0.00    -0.029 A 
HETATM   29  C   UNK N   1      20.303  17.193   3.156  0.00  0.00     0.096 A 
HETATM   30  N   UNK N   1      19.479  16.463   2.359  0.00  0.00    -0.365 N 
HETATM   31  C   UNK N   1      20.246  15.502   1.809  0.00  0.00     0.043 A 
HETATM   32  H   UNK N   1      18.515  16.608   2.213  0.00  0.00     0.165 HD
HETATM   33  C   UNK N   1      19.844  14.500   0.930  0.00  0.00     0.031 A 
HETATM   34  C   UNK N   1      21.536  15.605   2.233  0.00  0.00    -0.001 A 
HETATM   35  C   UNK N   1      20.822  13.587   0.487  0.00  0.00     0.021 A 
HETATM   36  C   UNK N   1      22.160  13.699   0.930  0.00  0.00     0.011 A 
HETATM   37  C   UNK N   1      22.528  14.723   1.817  0.00  0.00     0.033 A 
HETATM   38 Br   UNK N   1      23.477  12.461   0.330  0.00  0.00    -0.051 Br
ENDBRANCH  27  28
ENDBRANCH  26  27
ENDBRANCH  24  26
ENDBRANCH  23  24
BRANCH  23  39
HETATM   39  O   UNK N   1      20.773  18.794   7.446  0.00  0.00    -0.349 OA
HETATM   40  H   UNK N   1      20.171  18.996   8.135  0.00  0.00     0.219 HD
ENDBRANCH  23  39
ENDBRANCH  22  23
ENDBRANCH  21  22
ENDBRANCH  20  21
ENDBRANCH  19  20
ENDBRANCH  17  19
ENDBRANCH  16  17
BRANCH  16  41
HETATM   41  O   UNK N   1      23.202  12.974  10.975  0.00  0.00    -0.350 OA
HETATM   42  H   UNK N   1      23.959  12.654  11.424  0.00  0.00     0.219 HD
ENDBRANCH  16  41
ENDBRANCH  15  16
ENDBRANCH  14  15
ENDBRANCH  12  14
ENDBRANCH  11  12
BRANCH  11  43
HETATM   43  O   UNK N   1      23.946  15.279   6.635  0.00  0.00    -0.348 OA
HETATM   44  H   UNK N   1      23.917  16.022   7.205  0.00  0.00     0.219 HD
ENDBRANCH  11  43
ENDBRANCH  10  11
BRANCH  10  45
HETATM   45  O   UNK N   1      27.348  15.184   6.075  0.00  0.00    -0.387 OA
HETATM   46  H   UNK N   1      27.773  14.693   6.796  0.00  0.00     0.210 HD
ENDBRANCH  10  45
ENDBRANCH   7  10
ENDBRANCH   6   7
ENDBRANCH   5   6
ENDBRANCH   3   5
BRANCH   3  47
HETATM   47  O   UNK N   1      30.627  11.786   3.647  0.00  0.00    -0.195 OA
BRANCH  47  48
HETATM   48  P   UNK N   1      32.146  12.030   4.498  0.00  0.00     0.401 P 
HETATM   49  O   UNK N   1      32.834  10.637   4.525  0.00  0.00    -0.631 OA
BRANCH  48  50
HETATM   50  O   UNK N   1      33.216  12.995   3.532  0.00  0.00    -0.307 OA
HETATM   51  H   UNK N   1      33.678  13.667   3.008  0.00  0.00     0.222 HD
ENDBRANCH  48  50
BRANCH  48  52
HETATM   52  O   UNK N   1      32.135  12.694   6.123  0.00  0.00    -0.294 OA
BRANCH  52  53
HETATM   53  C   UNK N   1      33.262  13.508   6.301  0.00  0.00     0.215 C 
BRANCH  53  54
HETATM   54  C   UNK N   1      32.890  14.998   6.484  0.00  0.00     0.180 C 
HETATM   55  C   UNK N   1      33.013  15.551   7.916  0.00  0.00     0.197 C 
HETATM   56  C   UNK N   1      32.205  16.801   7.732  0.00  0.00     0.199 C 
HETATM   57  C   UNK N   1      31.017  16.184   6.998  0.00  0.00     0.262 C 
HETATM   58  O   UNK N   1      31.559  15.260   6.063  0.00  0.00    -0.353 OA
BRANCH  55  59
HETATM   59  O   UNK N   1      34.333  15.850   8.317  0.00  0.00    -0.286 OA
BRANCH  59  60
HETATM   60  P   UNK N   1      34.481  15.624  10.046  0.00  0.00     0.391 P 
HETATM   61  O   UNK N   1      35.631  14.609  10.279  0.00  0.00    -0.632 OA
BRANCH  60  62
HETATM   62  O   UNK N   1      33.046  14.973  10.777  0.00  0.00    -0.307 OA
HETATM   63  H   UNK N   1      32.363  14.288  10.852  0.00  0.00     0.222 HD
ENDBRANCH  60  62
BRANCH  60  64
HETATM   64  O   UNK N   1      34.945  17.095  10.841  0.00  0.00    -0.307 OA
HETATM   65  H   UNK N   1      34.483  17.922  10.638  0.00  0.00     0.222 HD
ENDBRANCH  60  64
ENDBRANCH  59  60
ENDBRANCH  55  59
BRANCH  56  66
HETATM   66  O   UNK N   1      31.852  17.403   8.944  0.00  0.00    -0.388 OA
HETATM   67  H   UNK N   1      32.031  18.245   9.390  0.00  0.00     0.210 HD
ENDBRANCH  56  66
BRANCH  57  68
HETATM   68  N   UNK N   1      30.125  17.145   6.331  0.00  0.00    -0.297 N 
HETATM   69  C   UNK N   1      30.081  17.320   4.985  0.00  0.00     0.188 A 
HETATM   70  N   UNK N   1      29.158  18.257   4.630  0.00  0.00    -0.346 N 
HETATM   71  C   UNK N   1      28.621  18.653   5.794  0.00  0.00     0.122 A 
ATOM     72  HN  UNK N   1      28.928  18.584   3.692  1.00  0.00     0.167 HD
HETATM   73  C   UNK N   1      27.618  19.580   6.035  0.00  0.00     0.131 A 
HETATM   74  C   UNK N   1      29.196  17.992   6.820  0.00  0.00     0.142 A 
HETATM   75  N   UNK N   1      27.237  19.788   7.330  0.00  0.00    -0.337 N 
HETATM   76  C   UNK N   1      27.832  19.100   8.361  0.00  0.00     0.183 A 
ATOM     77  HN  UNK N   1      26.501  20.464   7.535  1.00  0.00     0.168 HD
HETATM   78  N   UNK N   1      28.824  18.189   8.106  0.00  0.00    -0.336 N 
ATOM     79  HN  UNK N   1      29.271  17.675   8.866  1.00  0.00     0.168 HD
BRANCH  73  80
HETATM   80  N   UNK N   1      27.002  20.284   4.980  0.00  0.00    -0.383 N 
HETATM   81  H   UNK N   1      26.299  20.945   5.169  0.00  0.00     0.157 HD
HETATM   82  H   UNK N   1      27.277  20.111   4.051  0.00  0.00     0.157 HD
ENDBRANCH  73  80
ENDBRANCH  57  68
ENDBRANCH  53  54
ENDBRANCH  52  53
ENDBRANCH  48  52
ENDBRANCH  47  48
ENDBRANCH   3  47
TORSDOF 36
ENDMDL
MODEL 9
REMARK VINA RESULT:      -6.7      6.138      9.093
REMARK WARNING: 32 MAX_TORS EXCEEDED!!!
REMARK  36 active torsions:
REMARK  status: ('A' for Active; 'I' for Inactive)
REMARK    1  A    between atoms: C_7  and  C_5 
REMARK    2  A    between atoms: C_18  and  C_5 
REMARK    3  A    between atoms: C_8  and  C_6 
REMARK    4  A    between atoms: C_23  and  C_6 
REMARK    5  A    between atoms: N_36  and  C_7 
REMARK    6  A    between atoms: N_40  and  C_8 
REMARK    7  A    between atoms: C_10  and  C_9 
REMARK    8  A    between atoms: N_38  and  C_9 
REMARK    9  A    between atoms: S_70  and  C_10 
REMARK   10  A    between atoms: C_22  and  C_13 
REMARK   11  A    between atoms: O_62  and  C_13 
REMARK   12  A    between atoms: C_24  and  C_14 
REMARK   13  A    between atoms: S_70  and  C_14 
REMARK   14  A    between atoms: C_33  and  C_15 
REMARK   15  A    between atoms: O_63  and  C_15 
REMARK   16  A    between atoms: N_38  and  C_23 
REMARK   17  A    between atoms: O_50  and  C_23 
REMARK   18  A    between atoms: N_36  and  C_24 
REMARK   19  A    between atoms: O_51  and  C_24 
REMARK   20  A    between atoms: C_26  and  O_52 
REMARK   21  A    between atoms: C_27  and  O_65 
REMARK   22  A    between atoms: C_31  and  C_28 
REMARK   23  A    between atoms: C_33  and  C_28 
REMARK   24  A    between atoms: C_28  and  O_53 
REMARK   25  A    between atoms: N_35  and  C_29 
REMARK   26  A    between atoms: N_40  and  C_31 
REMARK   27  A    between atoms: O_54  and  C_31 
REMARK   28  A    between atoms: C_32  and  N_49 
REMARK   29  A    between atoms: P_67  and  O_55 
REMARK   30  A    between atoms: P_67  and  O_56 
REMARK   31  A    between atoms: P_68  and  O_58 
REMARK   32  A    between atoms: P_68  and  O_62 
REMARK   33  A    between atoms: P_69  and  O_63 
REMARK   34  A    between atoms: P_67  and  O_65 
REMARK   35  A    between atoms: P_68  and  O_66 
REMARK   36  A    between atoms: P_69  and  O_66 
ROOT
HETATM    1  O   UNK N   1      33.517  12.847   9.134  0.00  0.00    -0.307 OA
HETATM    2  O   UNK N   1      32.615  14.921   9.683  0.00  0.00    -0.631 OA
HETATM    3  P   UNK N   1      33.740  14.493   8.705  0.00  0.00     0.401 P 
HETATM    4  H   UNK N   1      33.492  11.938   9.470  0.00  0.00     0.222 HD
ENDROOT
BRANCH   3   5
HETATM    5  O   UNK N   1      33.199  14.074   7.101  0.00  0.00    -0.296 OA
BRANCH   5   6
HETATM    6  C   UNK N   1      33.677  15.071   6.214  0.00  0.00     0.192 C 
BRANCH   6   7
HETATM    7  C   UNK N   1      32.538  15.900   5.566  0.00  0.00     0.008 C 
HETATM    8  C   UNK N   1      32.656  15.807   4.056  0.00  0.00     0.020 C 
HETATM    9  C   UNK N   1      31.173  15.345   5.944  0.00  0.00     0.020 C 
BRANCH   7  10
HETATM   10  C   UNK N   1      32.588  17.408   5.934  0.00  0.00     0.202 C 
BRANCH  10  11
HETATM   11  C   UNK N   1      32.985  17.776   7.344  0.00  0.00     0.141 C 
BRANCH  11  12
HETATM   12  N   UNK N   1      32.163  17.654   8.328  0.00  0.00    -0.372 N 
ATOM     13  HN  UNK N   1      32.434  17.102   9.142  1.00  0.00     0.161 HD
BRANCH  12  14
HETATM   14  C   UNK N   1      30.866  18.284   8.297  0.00  0.00     0.129 C 
BRANCH  14  15
HETATM   15  C   UNK N   1      29.789  17.311   8.728  0.00  0.00     0.103 C 
BRANCH  15  16
HETATM   16  C   UNK N   1      28.432  17.832   8.403  0.00  0.00     0.112 C 
BRANCH  16  17
HETATM   17  N   UNK N   1      28.078  17.955   7.171  0.00  0.00    -0.374 N 
ATOM     18  HN  UNK N   1      27.954  18.889   6.782  1.00  0.00     0.161 HD
BRANCH  17  19
HETATM   19  C   UNK N   1      27.851  16.808   6.328  0.00  0.00     0.131 C 
BRANCH  19  20
HETATM   20  C   UNK N   1      27.936  17.204   4.853  0.00  0.00     0.094 C 
BRANCH  20  21
HETATM   21  S   UNK N   1      28.165  19.002   4.611  0.00  0.00    -0.159 SA
BRANCH  21  22
HETATM   22  C   UNK N   1      26.456  19.242   4.056  0.00  0.00     0.157 C 
BRANCH  22  23
HETATM   23  C   UNK N   1      25.532  19.356   5.229  0.00  0.00     0.120 C 
BRANCH  23  24
HETATM   24  N   UNK N   1      24.384  18.775   5.216  0.00  0.00    -0.374 N 
ATOM     25  HN  UNK N   1      24.093  18.230   6.028  1.00  0.00     0.161 HD
BRANCH  24  26
HETATM   26  C   UNK N   1      23.499  18.876   4.078  0.00  0.00     0.126 C 
BRANCH  26  27
HETATM   27  C   UNK N   1      22.100  18.418   4.460  0.00  0.00     0.060 C 
BRANCH  27  28
HETATM   28  C   UNK N   1      21.272  18.319   3.228  0.00  0.00    -0.029 A 
HETATM   29  C   UNK N   1      20.596  19.349   2.588  0.00  0.00     0.096 A 
HETATM   30  N   UNK N   1      19.930  18.850   1.513  0.00  0.00    -0.365 N 
HETATM   31  C   UNK N   1      20.193  17.529   1.493  0.00  0.00     0.043 A 
HETATM   32  H   UNK N   1      19.370  19.352   0.878  0.00  0.00     0.165 HD
HETATM   33  C   UNK N   1      19.721  16.587   0.582  0.00  0.00     0.031 A 
HETATM   34  C   UNK N   1      21.010  17.178   2.524  0.00  0.00    -0.001 A 
HETATM   35  C   UNK N   1      20.118  15.247   0.761  0.00  0.00     0.021 A 
HETATM   36  C   UNK N   1      20.967  14.888   1.833  0.00  0.00     0.011 A 
HETATM   37  C   UNK N   1      21.424  15.865   2.732  0.00  0.00     0.033 A 
HETATM   38 Br   UNK N   1      21.498  13.075   2.072  0.00  0.00    -0.051 Br
ENDBRANCH  27  28
ENDBRANCH  26  27
ENDBRANCH  24  26
ENDBRANCH  23  24
BRANCH  23  39
HETATM   39  O   UNK N   1      25.902  20.077   6.304  0.00  0.00    -0.349 OA
HETATM   40  H   UNK N   1      26.096  20.963   6.539  0.00  0.00     0.219 HD
ENDBRANCH  23  39
ENDBRANCH  22  23
ENDBRANCH  21  22
ENDBRANCH  20  21
ENDBRANCH  19  20
ENDBRANCH  17  19
ENDBRANCH  16  17
BRANCH  16  41
HETATM   41  O   UNK N   1      27.573  18.120   9.404  0.00  0.00    -0.350 OA
HETATM   42  H   UNK N   1      27.367  17.585  10.144  0.00  0.00     0.219 HD
ENDBRANCH  16  41
ENDBRANCH  15  16
ENDBRANCH  14  15
ENDBRANCH  12  14
ENDBRANCH  11  12
BRANCH  11  43
HETATM   43  O   UNK N   1      34.227  18.265   7.556  0.00  0.00    -0.348 OA
HETATM   44  H   UNK N   1      34.714  18.641   6.849  0.00  0.00     0.219 HD
ENDBRANCH  11  43
ENDBRANCH  10  11
BRANCH  10  45
HETATM   45  O   UNK N   1      33.427  18.087   5.045  0.00  0.00    -0.387 OA
HETATM   46  H   UNK N   1      33.276  18.530   4.196  0.00  0.00     0.210 HD
ENDBRANCH  10  45
ENDBRANCH   7  10
ENDBRANCH   6   7
ENDBRANCH   5   6
ENDBRANCH   3   5
BRANCH   3  47
HETATM   47  O   UNK N   1      35.318  14.391   9.458  0.00  0.00    -0.195 OA
BRANCH  47  48
HETATM   48  P   UNK N   1      35.536  15.618  10.699  0.00  0.00     0.401 P 
HETATM   49  O   UNK N   1      37.018  16.071  10.578  0.00  0.00    -0.631 OA
BRANCH  48  50
HETATM   50  O   UNK N   1      34.639  17.044  10.285  0.00  0.00    -0.307 OA
HETATM   51  H   UNK N   1      34.000  17.763  10.163  0.00  0.00     0.222 HD
ENDBRANCH  48  50
BRANCH  48  52
HETATM   52  O   UNK N   1      35.191  15.229  12.376  0.00  0.00    -0.294 OA
BRANCH  52  53
HETATM   53  C   UNK N   1      34.821  13.882  12.475  0.00  0.00     0.215 C 
BRANCH  53  54
HETATM   54  C   UNK N   1      35.674  13.111  13.512  0.00  0.00     0.180 C 
HETATM   55  C   UNK N   1      36.503  11.936  12.961  0.00  0.00     0.197 C 
HETATM   56  C   UNK N   1      36.805  11.259  14.264  0.00  0.00     0.199 C 
HETATM   57  C   UNK N   1      35.399  11.298  14.859  0.00  0.00     0.262 C 
HETATM   58  O   UNK N   1      34.873  12.585  14.559  0.00  0.00    -0.353 OA
BRANCH  55  59
HETATM   59  O   UNK N   1      37.688  12.317  12.295  0.00  0.00    -0.286 OA
BRANCH  59  60
HETATM   60  P   UNK N   1      37.647  11.720  10.650  0.00  0.00     0.391 P 
HETATM   61  O   UNK N   1      38.496  12.693   9.789  0.00  0.00    -0.632 OA
BRANCH  60  62
HETATM   62  O   UNK N   1      36.047  11.677   9.976  0.00  0.00    -0.307 OA
HETATM   63  H   UNK N   1      35.104  11.457  10.033  0.00  0.00     0.222 HD
ENDBRANCH  60  62
BRANCH  60  64
HETATM   64  O   UNK N   1      38.395  10.159  10.523  0.00  0.00    -0.307 OA
HETATM   65  H   UNK N   1      38.148   9.453  11.138  0.00  0.00     0.222 HD
ENDBRANCH  60  64
ENDBRANCH  59  60
ENDBRANCH  55  59
BRANCH  56  66
HETATM   66  O   UNK N   1      37.299   9.961  14.101  0.00  0.00    -0.388 OA
HETATM   67  H   UNK N   1      37.795   9.477  13.423  0.00  0.00     0.210 HD
ENDBRANCH  56  66
BRANCH  57  68
HETATM   68  N   UNK N   1      35.322  11.021  16.301  0.00  0.00    -0.297 N 
HETATM   69  C   UNK N   1      35.322   9.769  16.827  0.00  0.00     0.188 A 
HETATM   70  N   UNK N   1      35.259   9.796  18.188  0.00  0.00    -0.346 N 
HETATM   71  C   UNK N   1      35.230  11.101  18.495  0.00  0.00     0.122 A 
ATOM     72  HN  UNK N   1      35.238   9.002  18.829  1.00  0.00     0.167 HD
HETATM   73  C   UNK N   1      35.182  11.717  19.736  0.00  0.00     0.131 A 
HETATM   74  C   UNK N   1      35.266  11.844  17.369  0.00  0.00     0.142 A 
HETATM   75  N   UNK N   1      35.181  13.082  19.774  0.00  0.00    -0.337 N 
HETATM   76  C   UNK N   1      35.224  13.821  18.615  0.00  0.00     0.183 A 
ATOM     77  HN  UNK N   1      35.147  13.560  20.674  1.00  0.00     0.168 HD
HETATM   78  N   UNK N   1      35.267  13.197  17.395  0.00  0.00    -0.336 N 
ATOM     79  HN  UNK N   1      35.299  13.738  16.531  1.00  0.00     0.168 HD
BRANCH  73  80
HETATM   80  N   UNK N   1      35.144  10.963  20.927  0.00  0.00    -0.383 N 
HETATM   81  H   UNK N   1      35.277   9.989  20.901  0.00  0.00     0.157 HD
HETATM   82  H   UNK N   1      34.983  11.415  21.787  0.00  0.00     0.157 HD
ENDBRANCH  73  80
ENDBRANCH  57  68
ENDBRANCH  53  54
ENDBRANCH  52  53
ENDBRANCH  48  52
ENDBRANCH  47  48
ENDBRANCH   3  47
TORSDOF 36
ENDMDL
