REMARK  8 active torsions:
REMARK  status: ('A' for Active; 'I' for Inactive)
REMARK    1  A    between atoms: C_4  and  C_1 
REMARK    2  A    between atoms: N_17  and  C_1 
REMARK    3  A    between atoms: C_6  and  C_4 
REMARK    4  A    between atoms: C_4  and  O_18 
REMARK    5  A    between atoms: C_9  and  C_6 
REMARK    6  A    between atoms: C_6  and  O_19 
REMARK    7  A    between atoms: N_10  and  C_7 
REMARK    8  A    between atoms: O_21  and  C_9 
ROOT
HETATM    1  C   UNK N   1      -3.451   5.364   0.103  0.00  0.00     0.183 A 
HETATM    2  C   UNK N   1      -1.781   1.265   0.269  0.00  0.00     0.185 A 
HETATM    3  C   UNK N   1      -3.398   2.643  -0.005  0.00  0.00     0.122 A 
HETATM    4  C   UNK N   1      -4.599   3.300  -0.229  0.00  0.00     0.131 A 
HETATM    5  C   UNK N   1      -2.282   3.348   0.261  0.00  0.00     0.140 A 
HETATM    6  N   UNK N   1      -4.602   4.665  -0.172  0.00  0.00    -0.337 N 
ATOM      7  HN  UNK N   1      -5.472   5.173  -0.337  1.00  0.00     0.168 HD
HETATM    8  N   UNK N   1      -2.274   4.701   0.327  0.00  0.00    -0.336 N 
ATOM      9  HN  UNK N   1      -1.417   5.212   0.538  1.00  0.00     0.168 HD
HETATM   10  N   UNK N   1      -3.117   1.326  -0.005  0.00  0.00    -0.346 N 
ATOM     11  HN  UNK N   1      -3.757   0.550  -0.172  1.00  0.00     0.167 HD
HETATM   12  N   UNK N   1      -1.253   2.504   0.431  0.00  0.00    -0.325 N 
ENDROOT
BRANCH  12  13
HETATM   13  C   UNK N   1       0.140   2.819   0.751  0.00  0.00     0.166 C 
BRANCH  13  14
HETATM   14  C   UNK N   1       0.780   3.722  -0.309  0.00  0.00     0.175 C 
BRANCH  14  15
HETATM   15  C   UNK N   1       2.115   4.322   0.168  0.00  0.00     0.245 C 
BRANCH  15  16
HETATM   16  C   UNK N   1       3.246   3.322   0.197  0.00  0.00     0.172 C 
HETATM   17  O   UNK N   1       4.255   3.516  -0.466  0.00  0.00    -0.648 OA
BRANCH  16  18
HETATM   18  O   UNK N   1       3.159   2.216   0.959  0.00  0.00    -0.774 OA
HETATM   19  H   UNK N   1       2.462   1.884   1.490  0.00  0.00     0.167 HD
ENDBRANCH  16  18
ENDBRANCH  15  16
BRANCH  15  20
HETATM   20  O   UNK N   1       2.456   5.384  -0.675  0.00  0.00    -0.382 OA
HETATM   21  H   UNK N   1       3.212   5.548  -1.261  0.00  0.00     0.210 HD
ENDBRANCH  15  20
ENDBRANCH  14  15
BRANCH  14  22
HETATM   22  O   UNK N   1       0.945   3.025  -1.509  0.00  0.00    -0.391 OA
HETATM   23  H   UNK N   1       0.583   2.684  -2.342  0.00  0.00     0.210 HD
ENDBRANCH  14  22
ENDBRANCH  13  14
ENDBRANCH  12  13
BRANCH   4  24
HETATM   24  N   UNK N   1      -5.784   2.589  -0.507  0.00  0.00    -0.383 N 
HETATM   25  H   UNK N   1      -6.627   3.058  -0.702  0.00  0.00     0.157 HD
HETATM   26  H   UNK N   1      -5.767   1.605  -0.507  0.00  0.00     0.157 HD
ENDBRANCH   4  24
TORSDOF 8
