REMARK  4 active torsions:
REMARK  status: ('A' for Active; 'I' for Inactive)
REMARK    1  A    between atoms: O_1  and  C_2 
REMARK    2  A    between atoms: C_3  and  N_14 
REMARK    3  A    between atoms: C_5  and  N_11 
REMARK    4  A    between atoms: C_7  and  N_8 
ROOT
HETATM    1  C   UNK N   1       1.732   1.118  -0.000  0.00  0.00     0.132 A 
HETATM    2  C   UNK N   1       1.785  -0.303  -0.000  0.00  0.00     0.140 A 
HETATM    3  C   UNK N   1       0.589  -1.028  -0.000  0.00  0.00     0.075 A 
HETATM    4  C   UNK N   1      -0.648  -0.388  -0.000  0.00  0.00     0.107 A 
HETATM    5  C   UNK N   1      -0.698   1.006  -0.000  0.00  0.00     0.075 A 
HETATM    6  C   UNK N   1       0.472   1.777  -0.000  0.00  0.00     0.140 A 
ENDROOT
BRANCH   2   7
HETATM    7  N   UNK N   1       3.014  -1.032  -0.000  0.00  0.00    -0.113 N 
HETATM    8  O   UNK N   1       2.995  -2.349  -0.000  0.00  0.00    -0.532 OA
HETATM    9  O   UNK N   1       4.066  -0.466   0.000  0.00  0.00    -0.532 OA
ENDBRANCH   2   7
BRANCH   1  10
HETATM   10  O   UNK N   1       2.871   1.836  -0.000  0.00  0.00    -0.356 OA
HETATM   11  H   UNK N   1       3.700   1.399  -0.000  0.00  0.00     0.218 HD
ENDBRANCH   1  10
BRANCH   6  12
HETATM   12  N   UNK N   1       0.351   3.203  -0.000  0.00  0.00    -0.113 N 
HETATM   13  O   UNK N   1       1.415   3.975  -0.000  0.00  0.00    -0.532 OA
HETATM   14  O   UNK N   1      -0.733   3.708  -0.000  0.00  0.00    -0.532 OA
ENDBRANCH   6  12
BRANCH   4  15
HETATM   15  N   UNK N   1      -1.844  -1.154   0.000  0.00  0.00    -0.116 N 
HETATM   16  O   UNK N   1      -1.788  -2.468   0.000  0.00  0.00    -0.532 OA
HETATM   17  O   UNK N   1      -2.908  -0.610   0.000  0.00  0.00    -0.532 OA
ENDBRANCH   4  15
TORSDOF 4
