MODEL 1
REMARK VINA RESULT:      -7.6      0.000      0.000
REMARK  19 active torsions:
REMARK  status: ('A' for Active; 'I' for Inactive)
REMARK    1  A    between atoms: C_7  and  C_3 
REMARK    2  A    between atoms: O_37  and  C_3 
REMARK    3  A    between atoms: C_8  and  C_4 
REMARK    4  A    between atoms: O_38  and  C_4 
REMARK    5  A    between atoms: C_10  and  O_26 
REMARK    6  A    between atoms: C_11  and  O_27 
REMARK    7  A    between atoms: C_12  and  O_28 
REMARK    8  A    between atoms: C_13  and  O_41 
REMARK    9  A    between atoms: C_16  and  N_25 
REMARK   10  A    between atoms: C_17  and  O_29 
REMARK   11  A    between atoms: P_43  and  O_30 
REMARK   12  A    between atoms: P_43  and  O_31 
REMARK   13  A    between atoms: P_44  and  O_33 
REMARK   14  A    between atoms: P_45  and  O_35 
REMARK   15  A    between atoms: P_44  and  O_37 
REMARK   16  A    between atoms: P_45  and  O_38 
REMARK   17  A    between atoms: P_43  and  O_41 
REMARK   18  A    between atoms: P_44  and  O_42 
REMARK   19  A    between atoms: P_45  and  O_42 
ROOT
HETATM    1  C   UNK N   1      23.830  16.926   3.951  0.00  0.00     0.180 C 
HETATM    2  C   UNK N   1      22.810  17.980   3.546  0.00  0.00     0.183 C 
HETATM    3  C   UNK N   1      21.523  17.597   4.256  0.00  0.00     0.214 C 
HETATM    4  C   UNK N   1      21.824  16.159   4.725  0.00  0.00     0.263 C 
HETATM    5  O   UNK N   1      23.109  15.767   4.277  0.00  0.00    -0.353 OA
ENDROOT
BRANCH   1   6
HETATM    6  C   UNK N   1      24.781  17.284   5.101  0.00  0.00     0.215 C 
BRANCH   6   7
HETATM    7  O   UNK N   1      26.120  17.225   4.684  0.00  0.00    -0.294 OA
BRANCH   7   8
HETATM    8  P   UNK N   1      26.806  18.843   4.795  0.00  0.00     0.401 P 
HETATM    9  O   UNK N   1      25.913  19.870   4.044  0.00  0.00    -0.631 OA
BRANCH   8  10
HETATM   10  O   UNK N   1      28.357  18.899   4.020  0.00  0.00    -0.307 OA
HETATM   11  H   UNK N   1      28.679  18.326   3.306  0.00  0.00     0.222 HD
ENDBRANCH   8  10
BRANCH   8  12
HETATM   12  O   UNK N   1      26.994  19.465   6.416  0.00  0.00    -0.195 OA
BRANCH  12  13
HETATM   13  P   UNK N   1      28.430  18.803   7.154  0.00  0.00     0.401 P 
HETATM   14  O   UNK N   1      28.488  18.523   8.677  0.00  0.00    -0.631 OA
BRANCH  13  15
HETATM   15  O   UNK N   1      27.456  17.371   7.128  0.00  0.00    -0.307 OA
HETATM   16  H   UNK N   1      26.649  16.873   7.333  0.00  0.00     0.222 HD
ENDBRANCH  13  15
BRANCH  13  17
HETATM   17  O   UNK N   1      29.453  17.794   6.210  0.00  0.00    -0.294 OA
BRANCH  17  18
HETATM   18  C   UNK N   1      29.752  16.693   7.000  0.00  0.00     0.215 C 
BRANCH  18  19
HETATM   19  C   UNK N   1      31.257  16.595   7.225  0.00  0.00     0.180 C 
HETATM   20  C   UNK N   1      31.690  16.743   8.689  0.00  0.00     0.182 C 
HETATM   21  C   UNK N   1      33.159  16.835   8.434  0.00  0.00     0.204 C 
HETATM   22  C   UNK N   1      33.159  17.812   7.258  0.00  0.00     0.288 C 
HETATM   23  O   UNK N   1      31.994  17.550   6.485  0.00  0.00    -0.349 OA
BRANCH  20  24
HETATM   24  O   UNK N   1      31.240  17.952   9.246  0.00  0.00    -0.390 OA
HETATM   25  H   UNK N   1      30.578  18.629   9.454  0.00  0.00     0.210 HD
ENDBRANCH  20  24
BRANCH  21  26
HETATM   26  O   UNK N   1      33.888  17.293   9.533  0.00  0.00    -0.388 OA
HETATM   27  H   UNK N   1      34.808  17.305   9.841  0.00  0.00     0.210 HD
ENDBRANCH  21  26
BRANCH  22  28
HETATM   28  O   UNK N   1      34.312  17.647   6.489  0.00  0.00    -0.369 OA
HETATM   29  H   UNK N   1      34.390  16.946   5.823  0.00  0.00     0.212 HD
ENDBRANCH  22  28
ENDBRANCH  18  19
ENDBRANCH  17  18
ENDBRANCH  13  17
ENDBRANCH  12  13
ENDBRANCH   8  12
ENDBRANCH   7   8
ENDBRANCH   6   7
ENDBRANCH   1   6
BRANCH   2  30
HETATM   30  O   UNK N   1      23.211  19.297   3.790  0.00  0.00    -0.390 OA
HETATM   31  H   UNK N   1      23.757  20.001   4.174  0.00  0.00     0.210 HD
ENDBRANCH   2  30
BRANCH   3  32
HETATM   32  O   UNK N   1      20.512  17.510   3.262  0.00  0.00    -0.284 OA
BRANCH  32  33
HETATM   33  P   UNK N   1      19.895  19.062   2.769  0.00  0.00     0.391 P 
HETATM   34  O   UNK N   1      20.611  19.366   1.424  0.00  0.00    -0.632 OA
BRANCH  33  35
HETATM   35  O   UNK N   1      20.326  20.357   3.840  0.00  0.00    -0.307 OA
HETATM   36  H   UNK N   1      20.272  20.889   4.648  0.00  0.00     0.222 HD
ENDBRANCH  33  35
BRANCH  33  37
HETATM   37  O   UNK N   1      18.202  19.005   2.398  0.00  0.00    -0.307 OA
HETATM   38  H   UNK N   1      17.722  19.823   2.196  0.00  0.00     0.222 HD
ENDBRANCH  33  37
ENDBRANCH  32  33
ENDBRANCH   3  32
BRANCH   4  39
HETATM   39  N   UNK N   1      21.667  15.907   6.172  0.00  0.00    -0.297 N 
HETATM   40  C   UNK N   1      20.855  16.589   7.030  0.00  0.00     0.188 A 
HETATM   41  N   UNK N   1      20.782  15.972   8.249  0.00  0.00    -0.346 N 
HETATM   42  C   UNK N   1      21.569  14.888   8.120  0.00  0.00     0.123 A 
ATOM     43  HN  UNK N   1      20.251  16.267   9.069  1.00  0.00     0.167 HD
HETATM   44  C   UNK N   1      21.817  13.828   8.974  0.00  0.00     0.143 A 
HETATM   45  C   UNK N   1      22.123  14.868   6.884  0.00  0.00     0.142 A 
HETATM   46  N   UNK N   1      21.314  13.602  10.199  0.00  0.00    -0.349 N 
HETATM   47  N   UNK N   1      22.625  12.839   8.565  0.00  0.00    -0.301 N 
HETATM   48  C   UNK N   1      21.844  12.406  10.571  0.00  0.00     0.107 A 
ATOM     49  HN  UNK N   1      20.678  14.196  10.732  1.00  0.00     0.167 HD
HETATM   50  C   UNK N   1      22.666  11.933   9.548  0.00  0.00     0.116 A 
HETATM   51  C   UNK N   1      23.216  12.832   7.335  0.00  0.00     0.191 A 
HETATM   52  N   UNK N   1      22.946  13.857   6.466  0.00  0.00    -0.336 N 
ATOM     53  HN  UNK N   1      23.349  13.868   5.530  1.00  0.00     0.168 HD
ENDBRANCH   4  39
TORSDOF 19
ENDMDL
MODEL 2
REMARK VINA RESULT:      -7.4      4.214      9.993
REMARK  19 active torsions:
REMARK  status: ('A' for Active; 'I' for Inactive)
REMARK    1  A    between atoms: C_7  and  C_3 
REMARK    2  A    between atoms: O_37  and  C_3 
REMARK    3  A    between atoms: C_8  and  C_4 
REMARK    4  A    between atoms: O_38  and  C_4 
REMARK    5  A    between atoms: C_10  and  O_26 
REMARK    6  A    between atoms: C_11  and  O_27 
REMARK    7  A    between atoms: C_12  and  O_28 
REMARK    8  A    between atoms: C_13  and  O_41 
REMARK    9  A    between atoms: C_16  and  N_25 
REMARK   10  A    between atoms: C_17  and  O_29 
REMARK   11  A    between atoms: P_43  and  O_30 
REMARK   12  A    between atoms: P_43  and  O_31 
REMARK   13  A    between atoms: P_44  and  O_33 
REMARK   14  A    between atoms: P_45  and  O_35 
REMARK   15  A    between atoms: P_44  and  O_37 
REMARK   16  A    between atoms: P_45  and  O_38 
REMARK   17  A    between atoms: P_43  and  O_41 
REMARK   18  A    between atoms: P_44  and  O_42 
REMARK   19  A    between atoms: P_45  and  O_42 
ROOT
HETATM    1  C   UNK N   1      29.989  15.125   2.931  0.00  0.00     0.180 C 
HETATM    2  C   UNK N   1      31.270  14.643   3.596  0.00  0.00     0.183 C 
HETATM    3  C   UNK N   1      31.597  15.684   4.654  0.00  0.00     0.214 C 
HETATM    4  C   UNK N   1      30.666  16.851   4.263  0.00  0.00     0.263 C 
HETATM    5  O   UNK N   1      29.948  16.520   3.088  0.00  0.00    -0.353 OA
ENDROOT
BRANCH   1   6
HETATM    6  C   UNK N   1      28.673  14.510   3.428  0.00  0.00     0.215 C 
BRANCH   6   7
HETATM    7  O   UNK N   1      27.632  15.450   3.391  0.00  0.00    -0.294 OA
BRANCH   7   8
HETATM    8  P   UNK N   1      26.572  15.157   4.766  0.00  0.00     0.401 P 
HETATM    9  O   UNK N   1      27.339  14.425   5.903  0.00  0.00    -0.631 OA
BRANCH   8  10
HETATM   10  O   UNK N   1      25.268  14.107   4.314  0.00  0.00    -0.307 OA
HETATM   11  H   UNK N   1      24.604  14.256   3.622  0.00  0.00     0.222 HD
ENDBRANCH   8  10
BRANCH   8  12
HETATM   12  O   UNK N   1      25.882  16.586   5.495  0.00  0.00    -0.195 OA
BRANCH  12  13
HETATM   13  P   UNK N   1      24.679  17.282   4.439  0.00  0.00     0.401 P 
HETATM   14  O   UNK N   1      23.958  16.420   3.372  0.00  0.00    -0.631 OA
BRANCH  13  15
HETATM   15  O   UNK N   1      23.627  16.450   5.536  0.00  0.00    -0.307 OA
HETATM   16  H   UNK N   1      22.952  16.425   6.231  0.00  0.00     0.222 HD
ENDBRANCH  13  15
BRANCH  13  17
HETATM   17  O   UNK N   1      23.761  18.621   5.006  0.00  0.00    -0.294 OA
BRANCH  17  18
HETATM   18  C   UNK N   1      22.506  18.124   5.328  0.00  0.00     0.215 C 
BRANCH  18  19
HETATM   19  C   UNK N   1      21.425  18.869   4.551  0.00  0.00     0.180 C 
HETATM   20  C   UNK N   1      20.486  17.964   3.745  0.00  0.00     0.182 C 
HETATM   21  C   UNK N   1      19.794  19.051   2.990  0.00  0.00     0.204 C 
HETATM   22  C   UNK N   1      21.001  19.899   2.587  0.00  0.00     0.288 C 
HETATM   23  O   UNK N   1      21.947  19.823   3.645  0.00  0.00    -0.349 OA
BRANCH  20  24
HETATM   24  O   UNK N   1      21.193  17.151   2.844  0.00  0.00    -0.390 OA
HETATM   25  H   UNK N   1      21.966  16.659   2.527  0.00  0.00     0.210 HD
ENDBRANCH  20  24
BRANCH  21  26
HETATM   26  O   UNK N   1      19.055  18.589   1.899  0.00  0.00    -0.388 OA
HETATM   27  H   UNK N   1      18.769  18.905   1.027  0.00  0.00     0.210 HD
ENDBRANCH  21  26
BRANCH  22  28
HETATM   28  O   UNK N   1      20.613  21.221   2.362  0.00  0.00    -0.369 OA
HETATM   29  H   UNK N   1      20.443  21.838   3.091  0.00  0.00     0.212 HD
ENDBRANCH  22  28
ENDBRANCH  18  19
ENDBRANCH  17  18
ENDBRANCH  13  17
ENDBRANCH  12  13
ENDBRANCH   8  12
ENDBRANCH   7   8
ENDBRANCH   6   7
ENDBRANCH   1   6
BRANCH   2  30
HETATM   30  O   UNK N   1      31.206  13.340   4.098  0.00  0.00    -0.390 OA
HETATM   31  H   UNK N   1      31.425  12.396   4.142  0.00  0.00     0.210 HD
ENDBRANCH   2  30
BRANCH   3  32
HETATM   32  O   UNK N   1      32.929  16.113   4.415  0.00  0.00    -0.284 OA
BRANCH  32  33
HETATM   33  P   UNK N   1      33.856  16.326   5.873  0.00  0.00     0.391 P 
HETATM   34  O   UNK N   1      34.058  17.861   5.997  0.00  0.00    -0.632 OA
BRANCH  33  35
HETATM   35  O   UNK N   1      35.449  15.643   5.795  0.00  0.00    -0.307 OA
HETATM   36  H   UNK N   1      36.368  15.513   6.073  0.00  0.00     0.222 HD
ENDBRANCH  33  35
BRANCH  33  37
HETATM   37  O   UNK N   1      32.969  15.853   7.287  0.00  0.00    -0.307 OA
HETATM   38  H   UNK N   1      32.191  16.361   7.564  0.00  0.00     0.222 HD
ENDBRANCH  33  37
ENDBRANCH  32  33
ENDBRANCH   3  32
BRANCH   4  39
HETATM   39  N   UNK N   1      29.759  17.334   5.322  0.00  0.00    -0.297 N 
HETATM   40  C   UNK N   1      29.824  17.027   6.650  0.00  0.00     0.188 A 
HETATM   41  N   UNK N   1      28.974  17.802   7.388  0.00  0.00    -0.346 N 
HETATM   42  C   UNK N   1      28.381  18.600   6.480  0.00  0.00     0.123 A 
ATOM     43  HN  UNK N   1      28.823  17.781   8.397  1.00  0.00     0.167 HD
HETATM   44  C   UNK N   1      27.503  19.659   6.626  0.00  0.00     0.143 A 
HETATM   45  C   UNK N   1      28.830  18.297   5.239  0.00  0.00     0.142 A 
HETATM   46  N   UNK N   1      26.998  20.182   7.756  0.00  0.00    -0.349 N 
HETATM   47  N   UNK N   1      27.098  20.323   5.533  0.00  0.00    -0.301 N 
HETATM   48  C   UNK N   1      26.234  21.227   7.339  0.00  0.00     0.107 A 
ATOM     49  HN  UNK N   1      27.152  19.865   8.714  1.00  0.00     0.167 HD
HETATM   50  C   UNK N   1      26.296  21.310   5.947  0.00  0.00     0.116 A 
HETATM   51  C   UNK N   1      27.518  19.997   4.276  0.00  0.00     0.191 A 
HETATM   52  N   UNK N   1      28.418  18.975   4.125  0.00  0.00    -0.336 N 
ATOM     53  HN  UNK N   1      28.774  18.725   3.202  1.00  0.00     0.168 HD
ENDBRANCH   4  39
TORSDOF 19
ENDMDL
MODEL 3
REMARK VINA RESULT:      -7.4      2.303      3.319
REMARK  19 active torsions:
REMARK  status: ('A' for Active; 'I' for Inactive)
REMARK    1  A    between atoms: C_7  and  C_3 
REMARK    2  A    between atoms: O_37  and  C_3 
REMARK    3  A    between atoms: C_8  and  C_4 
REMARK    4  A    between atoms: O_38  and  C_4 
REMARK    5  A    between atoms: C_10  and  O_26 
REMARK    6  A    between atoms: C_11  and  O_27 
REMARK    7  A    between atoms: C_12  and  O_28 
REMARK    8  A    between atoms: C_13  and  O_41 
REMARK    9  A    between atoms: C_16  and  N_25 
REMARK   10  A    between atoms: C_17  and  O_29 
REMARK   11  A    between atoms: P_43  and  O_30 
REMARK   12  A    between atoms: P_43  and  O_31 
REMARK   13  A    between atoms: P_44  and  O_33 
REMARK   14  A    between atoms: P_45  and  O_35 
REMARK   15  A    between atoms: P_44  and  O_37 
REMARK   16  A    between atoms: P_45  and  O_38 
REMARK   17  A    between atoms: P_43  and  O_41 
REMARK   18  A    between atoms: P_44  and  O_42 
REMARK   19  A    between atoms: P_45  and  O_42 
ROOT
HETATM    1  C   UNK N   1      23.988  15.950   4.540  0.00  0.00     0.180 C 
HETATM    2  C   UNK N   1      23.068  16.974   5.190  0.00  0.00     0.183 C 
HETATM    3  C   UNK N   1      22.438  16.262   6.374  0.00  0.00     0.214 C 
HETATM    4  C   UNK N   1      22.784  14.786   6.091  0.00  0.00     0.263 C 
HETATM    5  O   UNK N   1      23.477  14.682   4.860  0.00  0.00    -0.353 OA
ENDROOT
BRANCH   1   6
HETATM    6  C   UNK N   1      25.475  16.017   4.911  0.00  0.00     0.215 C 
BRANCH   6   7
HETATM    7  O   UNK N   1      26.043  17.234   4.502  0.00  0.00    -0.294 OA
BRANCH   7   8
HETATM    8  P   UNK N   1      27.425  17.576   5.538  0.00  0.00     0.401 P 
HETATM    9  O   UNK N   1      27.725  16.368   6.469  0.00  0.00    -0.631 OA
BRANCH   8  10
HETATM   10  O   UNK N   1      27.082  18.915   6.585  0.00  0.00    -0.307 OA
HETATM   11  H   UNK N   1      26.289  19.050   7.127  0.00  0.00     0.222 HD
ENDBRANCH   8  10
BRANCH   8  12
HETATM   12  O   UNK N   1      28.919  17.919   4.700  0.00  0.00    -0.195 OA
BRANCH  12  13
HETATM   13  P   UNK N   1      30.183  16.852   5.257  0.00  0.00     0.401 P 
HETATM   14  O   UNK N   1      30.448  15.496   4.557  0.00  0.00    -0.631 OA
BRANCH  13  15
HETATM   15  O   UNK N   1      30.974  17.503   3.860  0.00  0.00    -0.307 OA
HETATM   16  H   UNK N   1      31.078  17.616   2.903  0.00  0.00     0.222 HD
ENDBRANCH  13  15
BRANCH  13  17
HETATM   17  O   UNK N   1      31.563  17.537   6.019  0.00  0.00    -0.294 OA
BRANCH  17  18
HETATM   18  C   UNK N   1      32.566  16.581   5.942  0.00  0.00     0.215 C 
BRANCH  18  19
HETATM   19  C   UNK N   1      33.688  16.909   6.922  0.00  0.00     0.180 C 
HETATM   20  C   UNK N   1      33.474  16.358   8.338  0.00  0.00     0.182 C 
HETATM   21  C   UNK N   1      34.608  17.084   8.985  0.00  0.00     0.204 C 
HETATM   22  C   UNK N   1      34.408  18.474   8.382  0.00  0.00     0.288 C 
HETATM   23  O   UNK N   1      33.921  18.299   7.058  0.00  0.00    -0.349 OA
BRANCH  20  24
HETATM   24  O   UNK N   1      32.263  16.803   8.892  0.00  0.00    -0.390 OA
HETATM   25  H   UNK N   1      31.300  16.813   9.001  0.00  0.00     0.210 HD
ENDBRANCH  20  24
BRANCH  21  26
HETATM   26  O   UNK N   1      34.552  17.074  10.380  0.00  0.00    -0.388 OA
HETATM   27  H   UNK N   1      34.121  17.568  11.095  0.00  0.00     0.210 HD
ENDBRANCH  21  26
BRANCH  22  28
HETATM   28  O   UNK N   1      35.611  19.181   8.378  0.00  0.00    -0.369 OA
HETATM   29  H   UNK N   1      36.439  18.786   8.063  0.00  0.00     0.212 HD
ENDBRANCH  22  28
ENDBRANCH  18  19
ENDBRANCH  17  18
ENDBRANCH  13  17
ENDBRANCH  12  13
ENDBRANCH   8  12
ENDBRANCH   7   8
ENDBRANCH   6   7
ENDBRANCH   1   6
BRANCH   2  30
HETATM   30  O   UNK N   1      23.692  18.178   5.530  0.00  0.00    -0.390 OA
HETATM   31  H   UNK N   1      24.306  18.752   6.013  0.00  0.00     0.210 HD
ENDBRANCH   2  30
BRANCH   3  32
HETATM   32  O   UNK N   1      21.031  16.395   6.237  0.00  0.00    -0.284 OA
BRANCH  32  33
HETATM   33  P   UNK N   1      20.248  16.961   7.686  0.00  0.00     0.391 P 
HETATM   34  O   UNK N   1      18.742  16.641   7.476  0.00  0.00    -0.632 OA
BRANCH  33  35
HETATM   35  O   UNK N   1      20.342  18.679   7.906  0.00  0.00    -0.307 OA
HETATM   36  H   UNK N   1      20.701  19.504   8.266  0.00  0.00     0.222 HD
ENDBRANCH  33  35
BRANCH  33  37
HETATM   37  O   UNK N   1      20.730  16.056   9.086  0.00  0.00    -0.307 OA
HETATM   38  H   UNK N   1      20.239  15.260   9.341  0.00  0.00     0.222 HD
ENDBRANCH  33  37
ENDBRANCH  32  33
ENDBRANCH   3  32
BRANCH   4  39
HETATM   39  N   UNK N   1      23.504  14.075   7.166  0.00  0.00    -0.297 N 
HETATM   40  C   UNK N   1      24.852  14.067   7.374  0.00  0.00     0.188 A 
HETATM   41  N   UNK N   1      25.173  13.492   8.572  0.00  0.00    -0.346 N 
HETATM   42  C   UNK N   1      23.985  13.145   9.102  0.00  0.00     0.123 A 
ATOM     43  HN  UNK N   1      26.101  13.356   8.973  1.00  0.00     0.167 HD
HETATM   44  C   UNK N   1      23.652  12.618  10.337  0.00  0.00     0.143 A 
HETATM   45  C   UNK N   1      22.988  13.468   8.244  0.00  0.00     0.142 A 
HETATM   46  N   UNK N   1      24.461  12.304  11.363  0.00  0.00    -0.349 N 
HETATM   47  N   UNK N   1      22.359  12.409  10.627  0.00  0.00    -0.301 N 
HETATM   48  C   UNK N   1      23.622  11.874  12.342  0.00  0.00     0.107 A 
ATOM     49  HN  UNK N   1      25.478  12.374  11.398  1.00  0.00     0.167 HD
HETATM   50  C   UNK N   1      22.308  11.938  11.877  0.00  0.00     0.116 A 
HETATM   51  C   UNK N   1      21.352  12.697   9.751  0.00  0.00     0.191 A 
HETATM   52  N   UNK N   1      21.669  13.256   8.541  0.00  0.00    -0.336 N 
ATOM     53  HN  UNK N   1      20.939  13.510   7.876  1.00  0.00     0.168 HD
ENDBRANCH   4  39
TORSDOF 19
ENDMDL
MODEL 4
REMARK VINA RESULT:      -7.4      3.334      8.103
REMARK  19 active torsions:
REMARK  status: ('A' for Active; 'I' for Inactive)
REMARK    1  A    between atoms: C_7  and  C_3 
REMARK    2  A    between atoms: O_37  and  C_3 
REMARK    3  A    between atoms: C_8  and  C_4 
REMARK    4  A    between atoms: O_38  and  C_4 
REMARK    5  A    between atoms: C_10  and  O_26 
REMARK    6  A    between atoms: C_11  and  O_27 
REMARK    7  A    between atoms: C_12  and  O_28 
REMARK    8  A    between atoms: C_13  and  O_41 
REMARK    9  A    between atoms: C_16  and  N_25 
REMARK   10  A    between atoms: C_17  and  O_29 
REMARK   11  A    between atoms: P_43  and  O_30 
REMARK   12  A    between atoms: P_43  and  O_31 
REMARK   13  A    between atoms: P_44  and  O_33 
REMARK   14  A    between atoms: P_45  and  O_35 
REMARK   15  A    between atoms: P_44  and  O_37 
REMARK   16  A    between atoms: P_45  and  O_38 
REMARK   17  A    between atoms: P_43  and  O_41 
REMARK   18  A    between atoms: P_44  and  O_42 
REMARK   19  A    between atoms: P_45  and  O_42 
ROOT
HETATM    1  C   UNK N   1      23.479  15.808   3.531  0.00  0.00     0.180 C 
HETATM    2  C   UNK N   1      24.877  16.395   3.406  0.00  0.00     0.183 C 
HETATM    3  C   UNK N   1      25.453  16.379   4.812  0.00  0.00     0.214 C 
HETATM    4  C   UNK N   1      24.202  16.109   5.674  0.00  0.00     0.263 C 
HETATM    5  O   UNK N   1      23.054  16.043   4.848  0.00  0.00    -0.353 OA
ENDROOT
BRANCH   1   6
HETATM    6  C   UNK N   1      23.316  14.321   3.192  0.00  0.00     0.215 C 
BRANCH   6   7
HETATM    7  O   UNK N   1      21.993  14.029   2.826  0.00  0.00    -0.294 OA
BRANCH   7   8
HETATM    8  P   UNK N   1      21.258  13.079   4.114  0.00  0.00     0.401 P 
HETATM    9  O   UNK N   1      22.336  12.250   4.866  0.00  0.00    -0.631 OA
BRANCH   8  10
HETATM   10  O   UNK N   1      20.139  11.929   3.457  0.00  0.00    -0.307 OA
HETATM   11  H   UNK N   1      19.517  12.065   2.724  0.00  0.00     0.222 HD
ENDBRANCH   8  10
BRANCH   8  12
HETATM   12  O   UNK N   1      20.422  14.002   5.337  0.00  0.00    -0.195 OA
BRANCH  12  13
HETATM   13  P   UNK N   1      19.342  15.154   4.593  0.00  0.00     0.401 P 
HETATM   14  O   UNK N   1      18.163  15.771   5.387  0.00  0.00    -0.631 OA
BRANCH  13  15
HETATM   15  O   UNK N   1      20.293  16.249   5.542  0.00  0.00    -0.307 OA
HETATM   16  H   UNK N   1      20.505  17.130   5.887  0.00  0.00     0.222 HD
ENDBRANCH  13  15
BRANCH  13  17
HETATM   17  O   UNK N   1      19.946  16.155   3.332  0.00  0.00    -0.294 OA
BRANCH  17  18
HETATM   18  C   UNK N   1      19.940  17.452   3.826  0.00  0.00     0.215 C 
BRANCH  18  19
HETATM   19  C   UNK N   1      20.738  18.372   2.909  0.00  0.00     0.180 C 
HETATM   20  C   UNK N   1      21.353  19.589   3.611  0.00  0.00     0.182 C 
HETATM   21  C   UNK N   1      21.798  20.303   2.376  0.00  0.00     0.204 C 
HETATM   22  C   UNK N   1      20.546  20.136   1.513  0.00  0.00     0.288 C 
HETATM   23  O   UNK N   1      19.980  18.870   1.822  0.00  0.00    -0.349 OA
BRANCH  20  24
HETATM   24  O   UNK N   1      20.379  20.360   4.265  0.00  0.00    -0.390 OA
HETATM   25  H   UNK N   1      19.940  20.747   5.039  0.00  0.00     0.210 HD
ENDBRANCH  20  24
BRANCH  21  26
HETATM   26  O   UNK N   1      22.143  21.637   2.596  0.00  0.00    -0.388 OA
HETATM   27  H   UNK N   1      21.858  22.519   2.310  0.00  0.00     0.210 HD
ENDBRANCH  21  26
BRANCH  22  28
HETATM   28  O   UNK N   1      20.875  20.216   0.159  0.00  0.00    -0.369 OA
HETATM   29  H   UNK N   1      21.783  20.090  -0.158  0.00  0.00     0.212 HD
ENDBRANCH  22  28
ENDBRANCH  18  19
ENDBRANCH  17  18
ENDBRANCH  13  17
ENDBRANCH  12  13
ENDBRANCH   8  12
ENDBRANCH   7   8
ENDBRANCH   6   7
ENDBRANCH   1   6
BRANCH   2  30
HETATM   30  O   UNK N   1      25.690  15.759   2.463  0.00  0.00    -0.390 OA
HETATM   31  H   UNK N   1      26.279  15.703   1.695  0.00  0.00     0.210 HD
ENDBRANCH   2  30
BRANCH   3  32
HETATM   32  O   UNK N   1      25.883  17.701   5.099  0.00  0.00    -0.284 OA
BRANCH  32  33
HETATM   33  P   UNK N   1      27.593  17.935   4.871  0.00  0.00     0.391 P 
HETATM   34  O   UNK N   1      28.245  17.410   6.180  0.00  0.00    -0.632 OA
BRANCH  33  35
HETATM   35  O   UNK N   1      28.060  19.601   4.743  0.00  0.00    -0.307 OA
HETATM   36  H   UNK N   1      28.670  20.352   4.792  0.00  0.00     0.222 HD
ENDBRANCH  33  35
BRANCH  33  37
HETATM   37  O   UNK N   1      28.225  16.939   3.598  0.00  0.00    -0.307 OA
HETATM   38  H   UNK N   1      27.923  16.023   3.504  0.00  0.00     0.222 HD
ENDBRANCH  33  37
ENDBRANCH  32  33
ENDBRANCH   3  32
BRANCH   4  39
HETATM   39  N   UNK N   1      24.279  14.940   6.573  0.00  0.00    -0.297 N 
HETATM   40  C   UNK N   1      25.391  14.200   6.849  0.00  0.00     0.188 A 
HETATM   41  N   UNK N   1      25.171  13.326   7.877  0.00  0.00    -0.346 N 
HETATM   42  C   UNK N   1      23.891  13.547   8.232  0.00  0.00     0.123 A 
ATOM     43  HN  UNK N   1      25.827  12.659   8.283  1.00  0.00     0.167 HD
HETATM   44  C   UNK N   1      23.128  13.043   9.270  0.00  0.00     0.143 A 
HETATM   45  C   UNK N   1      23.349  14.493   7.428  0.00  0.00     0.142 A 
HETATM   46  N   UNK N   1      23.484  12.169  10.226  0.00  0.00    -0.349 N 
HETATM   47  N   UNK N   1      21.869  13.478   9.421  0.00  0.00    -0.301 N 
HETATM   48  C   UNK N   1      22.381  12.055  11.013  0.00  0.00     0.107 A 
ATOM     49  HN  UNK N   1      24.381  11.696  10.337  1.00  0.00     0.167 HD
HETATM   50  C   UNK N   1      21.371  12.873  10.505  0.00  0.00     0.116 A 
HETATM   51  C   UNK N   1      21.305  14.404   8.591  0.00  0.00     0.191 A 
HETATM   52  N   UNK N   1      22.065  14.939   7.584  0.00  0.00    -0.336 N 
ATOM     53  HN  UNK N   1      21.683  15.653   6.965  1.00  0.00     0.168 HD
ENDBRANCH   4  39
TORSDOF 19
ENDMDL
MODEL 5
REMARK VINA RESULT:      -7.4      1.271      2.155
REMARK  19 active torsions:
REMARK  status: ('A' for Active; 'I' for Inactive)
REMARK    1  A    between atoms: C_7  and  C_3 
REMARK    2  A    between atoms: O_37  and  C_3 
REMARK    3  A    between atoms: C_8  and  C_4 
REMARK    4  A    between atoms: O_38  and  C_4 
REMARK    5  A    between atoms: C_10  and  O_26 
REMARK    6  A    between atoms: C_11  and  O_27 
REMARK    7  A    between atoms: C_12  and  O_28 
REMARK    8  A    between atoms: C_13  and  O_41 
REMARK    9  A    between atoms: C_16  and  N_25 
REMARK   10  A    between atoms: C_17  and  O_29 
REMARK   11  A    between atoms: P_43  and  O_30 
REMARK   12  A    between atoms: P_43  and  O_31 
REMARK   13  A    between atoms: P_44  and  O_33 
REMARK   14  A    between atoms: P_45  and  O_35 
REMARK   15  A    between atoms: P_44  and  O_37 
REMARK   16  A    between atoms: P_45  and  O_38 
REMARK   17  A    between atoms: P_43  and  O_41 
REMARK   18  A    between atoms: P_44  and  O_42 
REMARK   19  A    between atoms: P_45  and  O_42 
ROOT
HETATM    1  C   UNK N   1      24.298  18.174   3.853  0.00  0.00     0.180 C 
HETATM    2  C   UNK N   1      23.203  19.061   3.278  0.00  0.00     0.183 C 
HETATM    3  C   UNK N   1      21.895  18.468   3.775  0.00  0.00     0.214 C 
HETATM    4  C   UNK N   1      22.341  17.088   4.302  0.00  0.00     0.263 C 
HETATM    5  O   UNK N   1      23.726  16.910   4.070  0.00  0.00    -0.353 OA
ENDROOT
BRANCH   1   6
HETATM    6  C   UNK N   1      24.983  18.659   5.138  0.00  0.00     0.215 C 
BRANCH   6   7
HETATM    7  O   UNK N   1      26.302  19.067   4.883  0.00  0.00    -0.294 OA
BRANCH   7   8
HETATM    8  P   UNK N   1      27.390  18.021   5.788  0.00  0.00     0.401 P 
HETATM    9  O   UNK N   1      26.759  16.615   5.990  0.00  0.00    -0.631 OA
BRANCH   8  10
HETATM   10  O   UNK N   1      27.660  18.658   7.379  0.00  0.00    -0.307 OA
HETATM   11  H   UNK N   1      27.238  19.433   7.782  0.00  0.00     0.222 HD
ENDBRANCH   8  10
BRANCH   8  12
HETATM   12  O   UNK N   1      28.948  17.746   5.049  0.00  0.00    -0.195 OA
BRANCH  12  13
HETATM   13  P   UNK N   1      30.115  17.272   6.257  0.00  0.00     0.401 P 
HETATM   14  O   UNK N   1      29.663  16.772   7.652  0.00  0.00    -0.631 OA
BRANCH  13  15
HETATM   15  O   UNK N   1      29.602  15.698   5.746  0.00  0.00    -0.307 OA
HETATM   16  H   UNK N   1      29.502  14.997   5.084  0.00  0.00     0.222 HD
ENDBRANCH  13  15
BRANCH  13  17
HETATM   17  O   UNK N   1      31.630  16.645   5.739  0.00  0.00    -0.294 OA
BRANCH  17  18
HETATM   18  C   UNK N   1      32.118  15.882   6.791  0.00  0.00     0.215 C 
BRANCH  18  19
HETATM   19  C   UNK N   1      32.802  16.775   7.821  0.00  0.00     0.180 C 
HETATM   20  C   UNK N   1      33.651  17.902   7.219  0.00  0.00     0.182 C 
HETATM   21  C   UNK N   1      34.297  18.339   8.493  0.00  0.00     0.204 C 
HETATM   22  C   UNK N   1      34.664  16.976   9.081  0.00  0.00     0.288 C 
HETATM   23  O   UNK N   1      33.643  16.061   8.707  0.00  0.00    -0.349 OA
BRANCH  20  24
HETATM   24  O   UNK N   1      34.634  17.404   6.348  0.00  0.00    -0.390 OA
HETATM   25  H   UNK N   1      35.022  17.214   5.479  0.00  0.00     0.210 HD
ENDBRANCH  20  24
BRANCH  21  26
HETATM   26  O   UNK N   1      35.401  19.173   8.301  0.00  0.00    -0.388 OA
HETATM   27  H   UNK N   1      35.682  20.072   8.531  0.00  0.00     0.210 HD
ENDBRANCH  21  26
BRANCH  22  28
HETATM   28  O   UNK N   1      34.772  17.059  10.470  0.00  0.00    -0.369 OA
HETATM   29  H   UNK N   1      35.630  17.120  10.917  0.00  0.00     0.212 HD
ENDBRANCH  22  28
ENDBRANCH  18  19
ENDBRANCH  17  18
ENDBRANCH  13  17
ENDBRANCH  12  13
ENDBRANCH   8  12
ENDBRANCH   7   8
ENDBRANCH   6   7
ENDBRANCH   1   6
BRANCH   2  30
HETATM   30  O   UNK N   1      23.347  20.420   3.571  0.00  0.00    -0.390 OA
HETATM   31  H   UNK N   1      23.478  21.195   4.139  0.00  0.00     0.210 HD
ENDBRANCH   2  30
BRANCH   3  32
HETATM   32  O   UNK N   1      21.084  18.239   2.633  0.00  0.00    -0.284 OA
BRANCH  32  33
HETATM   33  P   UNK N   1      19.924  19.505   2.346  0.00  0.00     0.391 P 
HETATM   34  O   UNK N   1      20.082  20.471   3.553  0.00  0.00    -0.632 OA
BRANCH  33  35
HETATM   35  O   UNK N   1      18.276  18.965   2.384  0.00  0.00    -0.307 OA
HETATM   36  H   UNK N   1      17.382  18.834   2.034  0.00  0.00     0.222 HD
ENDBRANCH  33  35
BRANCH  33  37
HETATM   37  O   UNK N   1      20.312  20.443   0.939  0.00  0.00    -0.307 OA
HETATM   38  H   UNK N   1      20.442  21.400   1.015  0.00  0.00     0.222 HD
ENDBRANCH  33  37
ENDBRANCH  32  33
ENDBRANCH   3  32
BRANCH   4  39
HETATM   39  N   UNK N   1      21.994  16.792   5.706  0.00  0.00    -0.297 N 
HETATM   40  C   UNK N   1      21.114  17.482   6.487  0.00  0.00     0.188 A 
HETATM   41  N   UNK N   1      20.863  16.826   7.660  0.00  0.00    -0.346 N 
HETATM   42  C   UNK N   1      21.611  15.709   7.583  0.00  0.00     0.123 A 
ATOM     43  HN  UNK N   1      20.248  17.116   8.421  1.00  0.00     0.167 HD
HETATM   44  C   UNK N   1      21.703  14.607   8.415  0.00  0.00     0.143 A 
HETATM   45  C   UNK N   1      22.312  15.706   6.424  0.00  0.00     0.142 A 
HETATM   46  N   UNK N   1      21.042  14.362   9.559  0.00  0.00    -0.349 N 
HETATM   47  N   UNK N   1      22.509  13.595   8.066  0.00  0.00    -0.301 N 
HETATM   48  C   UNK N   1      21.467  13.129   9.942  0.00  0.00     0.107 A 
ATOM     49  HN  UNK N   1      20.372  14.967  10.035  1.00  0.00     0.167 HD
HETATM   50  C   UNK N   1      22.388  12.653   9.007  0.00  0.00     0.116 A 
HETATM   51  C   UNK N   1      23.248  13.603   6.918  0.00  0.00     0.191 A 
HETATM   52  N   UNK N   1      23.133  14.672   6.067  0.00  0.00    -0.336 N 
ATOM     53  HN  UNK N   1      23.649  14.696   5.188  1.00  0.00     0.168 HD
ENDBRANCH   4  39
TORSDOF 19
ENDMDL
MODEL 6
REMARK VINA RESULT:      -7.3      4.052     10.314
REMARK  19 active torsions:
REMARK  status: ('A' for Active; 'I' for Inactive)
REMARK    1  A    between atoms: C_7  and  C_3 
REMARK    2  A    between atoms: O_37  and  C_3 
REMARK    3  A    between atoms: C_8  and  C_4 
REMARK    4  A    between atoms: O_38  and  C_4 
REMARK    5  A    between atoms: C_10  and  O_26 
REMARK    6  A    between atoms: C_11  and  O_27 
REMARK    7  A    between atoms: C_12  and  O_28 
REMARK    8  A    between atoms: C_13  and  O_41 
REMARK    9  A    between atoms: C_16  and  N_25 
REMARK   10  A    between atoms: C_17  and  O_29 
REMARK   11  A    between atoms: P_43  and  O_30 
REMARK   12  A    between atoms: P_43  and  O_31 
REMARK   13  A    between atoms: P_44  and  O_33 
REMARK   14  A    between atoms: P_45  and  O_35 
REMARK   15  A    between atoms: P_44  and  O_37 
REMARK   16  A    between atoms: P_45  and  O_38 
REMARK   17  A    between atoms: P_43  and  O_41 
REMARK   18  A    between atoms: P_44  and  O_42 
REMARK   19  A    between atoms: P_45  and  O_42 
ROOT
HETATM    1  C   UNK N   1      31.484  15.235   5.629  0.00  0.00     0.180 C 
HETATM    2  C   UNK N   1      32.355  14.837   6.811  0.00  0.00     0.183 C 
HETATM    3  C   UNK N   1      32.255  15.988   7.797  0.00  0.00     0.214 C 
HETATM    4  C   UNK N   1      31.615  17.099   6.939  0.00  0.00     0.263 C 
HETATM    5  O   UNK N   1      31.435  16.638   5.613  0.00  0.00    -0.353 OA
ENDROOT
BRANCH   1   6
HETATM    6  C   UNK N   1      30.058  14.668   5.593  0.00  0.00     0.215 C 
BRANCH   6   7
HETATM    7  O   UNK N   1      29.304  15.265   4.571  0.00  0.00    -0.294 OA
BRANCH   7   8
HETATM    8  P   UNK N   1      27.610  15.249   5.051  0.00  0.00     0.401 P 
HETATM    9  O   UNK N   1      27.441  15.823   6.486  0.00  0.00    -0.631 OA
BRANCH   8  10
HETATM   10  O   UNK N   1      27.012  13.622   5.112  0.00  0.00    -0.307 OA
HETATM   11  H   UNK N   1      26.119  13.332   5.357  0.00  0.00     0.222 HD
ENDBRANCH   8  10
BRANCH   8  12
HETATM   12  O   UNK N   1      26.537  16.177   4.034  0.00  0.00    -0.195 OA
BRANCH  12  13
HETATM   13  P   UNK N   1      24.875  15.876   4.474  0.00  0.00     0.401 P 
HETATM   14  O   UNK N   1      24.513  15.249   5.845  0.00  0.00    -0.631 OA
BRANCH  13  15
HETATM   15  O   UNK N   1      25.151  17.300   5.421  0.00  0.00    -0.307 OA
HETATM   16  H   UNK N   1      25.634  17.812   6.088  0.00  0.00     0.222 HD
ENDBRANCH  13  15
BRANCH  13  17
HETATM   17  O   UNK N   1      23.651  16.885   3.813  0.00  0.00    -0.294 OA
BRANCH  17  18
HETATM   18  C   UNK N   1      22.952  17.409   4.892  0.00  0.00     0.215 C 
BRANCH  18  19
HETATM   19  C   UNK N   1      22.105  18.598   4.448  0.00  0.00     0.180 C 
HETATM   20  C   UNK N   1      20.811  18.217   3.719  0.00  0.00     0.182 C 
HETATM   21  C   UNK N   1      20.447  19.595   3.270  0.00  0.00     0.204 C 
HETATM   22  C   UNK N   1      21.808  20.073   2.765  0.00  0.00     0.288 C 
HETATM   23  O   UNK N   1      22.801  19.492   3.600  0.00  0.00    -0.349 OA
BRANCH  20  24
HETATM   24  O   UNK N   1      21.063  17.415   2.595  0.00  0.00    -0.390 OA
HETATM   25  H   UNK N   1      21.181  16.574   2.126  0.00  0.00     0.210 HD
ENDBRANCH  20  24
BRANCH  21  26
HETATM   26  O   UNK N   1      19.455  19.617   2.287  0.00  0.00    -0.388 OA
HETATM   27  H   UNK N   1      18.517  19.386   2.195  0.00  0.00     0.210 HD
ENDBRANCH  21  26
BRANCH  22  28
HETATM   28  O   UNK N   1      21.880  21.466   2.805  0.00  0.00    -0.369 OA
HETATM   29  H   UNK N   1      21.932  21.955   3.641  0.00  0.00     0.212 HD
ENDBRANCH  22  28
ENDBRANCH  18  19
ENDBRANCH  17  18
ENDBRANCH  13  17
ENDBRANCH  12  13
ENDBRANCH   8  12
ENDBRANCH   7   8
ENDBRANCH   6   7
ENDBRANCH   1   6
BRANCH   2  30
HETATM   30  O   UNK N   1      32.040  13.594   7.369  0.00  0.00    -0.390 OA
HETATM   31  H   UNK N   1      32.222  12.712   7.727  0.00  0.00     0.210 HD
ENDBRANCH   2  30
BRANCH   3  32
HETATM   32  O   UNK N   1      33.582  16.398   8.092  0.00  0.00    -0.284 OA
BRANCH  32  33
HETATM   33  P   UNK N   1      34.141  15.854   9.649  0.00  0.00     0.391 P 
HETATM   34  O   UNK N   1      35.265  14.828   9.333  0.00  0.00    -0.632 OA
BRANCH  33  35
HETATM   35  O   UNK N   1      32.946  14.983  10.556  0.00  0.00    -0.307 OA
HETATM   36  H   UNK N   1      32.598  14.497  11.319  0.00  0.00     0.222 HD
ENDBRANCH  33  35
BRANCH  33  37
HETATM   37  O   UNK N   1      34.904  17.125  10.550  0.00  0.00    -0.307 OA
HETATM   38  H   UNK N   1      35.825  17.030  10.837  0.00  0.00     0.222 HD
ENDBRANCH  33  37
ENDBRANCH  32  33
ENDBRANCH   3  32
BRANCH   4  39
HETATM   39  N   UNK N   1      30.370  17.687   7.471  0.00  0.00    -0.297 N 
HETATM   40  C   UNK N   1      30.066  17.894   8.785  0.00  0.00     0.188 A 
HETATM   41  N   UNK N   1      28.934  18.647   8.926  0.00  0.00    -0.346 N 
HETATM   42  C   UNK N   1      28.545  18.903   7.662  0.00  0.00     0.123 A 
ATOM     43  HN  UNK N   1      28.485  18.947   9.792  1.00  0.00     0.167 HD
HETATM   44  C   UNK N   1      27.530  19.696   7.159  0.00  0.00     0.143 A 
HETATM   45  C   UNK N   1      29.390  18.301   6.792  0.00  0.00     0.142 A 
HETATM   46  N   UNK N   1      26.637  20.443   7.829  0.00  0.00    -0.349 N 
HETATM   47  N   UNK N   1      27.394  19.811   5.829  0.00  0.00    -0.301 N 
HETATM   48  C   UNK N   1      25.905  21.053   6.859  0.00  0.00     0.107 A 
ATOM     49  HN  UNK N   1      26.532  20.533   8.840  1.00  0.00     0.167 HD
HETATM   50  C   UNK N   1      26.378  20.652   5.610  0.00  0.00     0.116 A 
HETATM   51  C   UNK N   1      28.220  19.175   4.947  0.00  0.00     0.191 A 
HETATM   52  N   UNK N   1      29.253  18.419   5.436  0.00  0.00    -0.336 N 
ATOM     53  HN  UNK N   1      29.904  17.955   4.804  1.00  0.00     0.168 HD
ENDBRANCH   4  39
TORSDOF 19
ENDMDL
MODEL 7
REMARK VINA RESULT:      -7.3      6.829     10.439
REMARK  19 active torsions:
REMARK  status: ('A' for Active; 'I' for Inactive)
REMARK    1  A    between atoms: C_7  and  C_3 
REMARK    2  A    between atoms: O_37  and  C_3 
REMARK    3  A    between atoms: C_8  and  C_4 
REMARK    4  A    between atoms: O_38  and  C_4 
REMARK    5  A    between atoms: C_10  and  O_26 
REMARK    6  A    between atoms: C_11  and  O_27 
REMARK    7  A    between atoms: C_12  and  O_28 
REMARK    8  A    between atoms: C_13  and  O_41 
REMARK    9  A    between atoms: C_16  and  N_25 
REMARK   10  A    between atoms: C_17  and  O_29 
REMARK   11  A    between atoms: P_43  and  O_30 
REMARK   12  A    between atoms: P_43  and  O_31 
REMARK   13  A    between atoms: P_44  and  O_33 
REMARK   14  A    between atoms: P_45  and  O_35 
REMARK   15  A    between atoms: P_44  and  O_37 
REMARK   16  A    between atoms: P_45  and  O_38 
REMARK   17  A    between atoms: P_43  and  O_41 
REMARK   18  A    between atoms: P_44  and  O_42 
REMARK   19  A    between atoms: P_45  and  O_42 
ROOT
HETATM    1  C   UNK N   1      33.224  15.927   8.125  0.00  0.00     0.180 C 
HETATM    2  C   UNK N   1      33.535  16.335   6.693  0.00  0.00     0.183 C 
HETATM    3  C   UNK N   1      32.186  16.565   6.032  0.00  0.00     0.214 C 
HETATM    4  C   UNK N   1      31.213  15.927   7.045  0.00  0.00     0.263 C 
HETATM    5  O   UNK N   1      31.941  15.356   8.116  0.00  0.00    -0.353 OA
ENDROOT
BRANCH   1   6
HETATM    6  C   UNK N   1      33.293  17.027   9.192  0.00  0.00     0.215 C 
BRANCH   6   7
HETATM    7  O   UNK N   1      34.623  17.384   9.463  0.00  0.00    -0.294 OA
BRANCH   7   8
HETATM    8  P   UNK N   1      35.410  16.026  10.261  0.00  0.00     0.401 P 
HETATM    9  O   UNK N   1      36.798  16.446  10.820  0.00  0.00    -0.631 OA
BRANCH   8  10
HETATM   10  O   UNK N   1      35.716  14.750   9.126  0.00  0.00    -0.307 OA
HETATM   11  H   UNK N   1      35.723  14.813   8.157  0.00  0.00     0.222 HD
ENDBRANCH   8  10
BRANCH   8  12
HETATM   12  O   UNK N   1      34.535  15.344  11.610  0.00  0.00    -0.195 OA
BRANCH  12  13
HETATM   13  P   UNK N   1      35.277  13.848  12.117  0.00  0.00     0.401 P 
HETATM   14  O   UNK N   1      36.596  13.353  11.474  0.00  0.00    -0.631 OA
BRANCH  13  15
HETATM   15  O   UNK N   1      36.324  14.959  12.935  0.00  0.00    -0.307 OA
HETATM   16  H   UNK N   1      36.607  15.464  13.714  0.00  0.00     0.222 HD
ENDBRANCH  13  15
BRANCH  13  17
HETATM   17  O   UNK N   1      35.033  13.314  13.733  0.00  0.00    -0.294 OA
BRANCH  17  18
HETATM   18  C   UNK N   1      36.088  13.825  14.476  0.00  0.00     0.215 C 
BRANCH  18  19
HETATM   19  C   UNK N   1      36.144  13.156  15.846  0.00  0.00     0.180 C 
HETATM   20  C   UNK N   1      35.535  11.749  15.890  0.00  0.00     0.182 C 
HETATM   21  C   UNK N   1      35.570  11.586  17.375  0.00  0.00     0.204 C 
HETATM   22  C   UNK N   1      35.033  12.953  17.801  0.00  0.00     0.288 C 
HETATM   23  O   UNK N   1      35.504  13.908  16.859  0.00  0.00    -0.349 OA
BRANCH  20  24
HETATM   24  O   UNK N   1      34.200  11.746  15.455  0.00  0.00    -0.390 OA
HETATM   25  H   UNK N   1      33.253  11.554  15.532  0.00  0.00     0.210 HD
ENDBRANCH  20  24
BRANCH  21  26
HETATM   26  O   UNK N   1      34.795  10.520  17.836  0.00  0.00    -0.388 OA
HETATM   27  H   UNK N   1      34.803   9.875  18.561  0.00  0.00     0.210 HD
ENDBRANCH  21  26
BRANCH  22  28
HETATM   28  O   UNK N   1      35.469  13.267  19.088  0.00  0.00    -0.369 OA
HETATM   29  H   UNK N   1      36.133  12.732  19.551  0.00  0.00     0.212 HD
ENDBRANCH  22  28
ENDBRANCH  18  19
ENDBRANCH  17  18
ENDBRANCH  13  17
ENDBRANCH  12  13
ENDBRANCH   8  12
ENDBRANCH   7   8
ENDBRANCH   6   7
ENDBRANCH   1   6
BRANCH   2  30
HETATM   30  O   UNK N   1      34.406  17.422   6.577  0.00  0.00    -0.390 OA
HETATM   31  H   UNK N   1      35.235  17.911   6.698  0.00  0.00     0.210 HD
ENDBRANCH   2  30
BRANCH   3  32
HETATM   32  O   UNK N   1      32.157  15.763   4.861  0.00  0.00    -0.284 OA
BRANCH  32  33
HETATM   33  P   UNK N   1      32.270  16.687   3.389  0.00  0.00     0.391 P 
HETATM   34  O   UNK N   1      32.794  18.081   3.834  0.00  0.00    -0.632 OA
BRANCH  33  35
HETATM   35  O   UNK N   1      30.739  16.978   2.626  0.00  0.00    -0.307 OA
HETATM   36  H   UNK N   1      29.936  17.480   2.424  0.00  0.00     0.222 HD
ENDBRANCH  33  35
BRANCH  33  37
HETATM   37  O   UNK N   1      33.472  16.055   2.310  0.00  0.00    -0.307 OA
HETATM   38  H   UNK N   1      33.587  15.097   2.220  0.00  0.00     0.222 HD
ENDBRANCH  33  37
ENDBRANCH  32  33
ENDBRANCH   3  32
BRANCH   4  39
HETATM   39  N   UNK N   1      30.135  16.805   7.542  0.00  0.00    -0.297 N 
HETATM   40  C   UNK N   1      29.912  17.161   8.840  0.00  0.00     0.188 A 
HETATM   41  N   UNK N   1      28.971  18.149   8.936  0.00  0.00    -0.346 N 
HETATM   42  C   UNK N   1      28.619  18.396   7.660  0.00  0.00     0.123 A 
ATOM     43  HN  UNK N   1      28.617  18.596   9.781  1.00  0.00     0.167 HD
HETATM   44  C   UNK N   1      27.787  19.354   7.108  0.00  0.00     0.143 A 
HETATM   45  C   UNK N   1      29.295  17.568   6.828  0.00  0.00     0.142 A 
HETATM   46  N   UNK N   1      27.090  20.319   7.730  0.00  0.00    -0.349 N 
HETATM   47  N   UNK N   1      27.649  19.405   5.775  0.00  0.00    -0.301 N 
HETATM   48  C   UNK N   1      26.484  21.005   6.724  0.00  0.00     0.107 A 
ATOM     49  HN  UNK N   1      27.029  20.498   8.732  1.00  0.00     0.167 HD
HETATM   50  C   UNK N   1      26.833  20.428   5.503  0.00  0.00     0.116 A 
HETATM   51  C   UNK N   1      28.299  18.548   4.934  0.00  0.00     0.191 A 
HETATM   52  N   UNK N   1      29.156  17.621   5.469  0.00  0.00    -0.336 N 
ATOM     53  HN  UNK N   1      29.679  16.986   4.866  1.00  0.00     0.168 HD
ENDBRANCH   4  39
TORSDOF 19
ENDMDL
MODEL 8
REMARK VINA RESULT:      -7.3      4.850      7.433
REMARK  19 active torsions:
REMARK  status: ('A' for Active; 'I' for Inactive)
REMARK    1  A    between atoms: C_7  and  C_3 
REMARK    2  A    between atoms: O_37  and  C_3 
REMARK    3  A    between atoms: C_8  and  C_4 
REMARK    4  A    between atoms: O_38  and  C_4 
REMARK    5  A    between atoms: C_10  and  O_26 
REMARK    6  A    between atoms: C_11  and  O_27 
REMARK    7  A    between atoms: C_12  and  O_28 
REMARK    8  A    between atoms: C_13  and  O_41 
REMARK    9  A    between atoms: C_16  and  N_25 
REMARK   10  A    between atoms: C_17  and  O_29 
REMARK   11  A    between atoms: P_43  and  O_30 
REMARK   12  A    between atoms: P_43  and  O_31 
REMARK   13  A    between atoms: P_44  and  O_33 
REMARK   14  A    between atoms: P_45  and  O_35 
REMARK   15  A    between atoms: P_44  and  O_37 
REMARK   16  A    between atoms: P_45  and  O_38 
REMARK   17  A    between atoms: P_43  and  O_41 
REMARK   18  A    between atoms: P_44  and  O_42 
REMARK   19  A    between atoms: P_45  and  O_42 
ROOT
HETATM    1  C   UNK N   1      19.984  16.411   3.972  0.00  0.00     0.180 C 
HETATM    2  C   UNK N   1      20.046  17.349   2.776  0.00  0.00     0.183 C 
HETATM    3  C   UNK N   1      21.107  18.381   3.121  0.00  0.00     0.214 C 
HETATM    4  C   UNK N   1      21.309  18.148   4.632  0.00  0.00     0.263 C 
HETATM    5  O   UNK N   1      20.421  17.144   5.087  0.00  0.00    -0.353 OA
ENDROOT
BRANCH   1   6
HETATM    6  C   UNK N   1      20.776  15.101   3.871  0.00  0.00     0.215 C 
BRANCH   6   7
HETATM    7  O   UNK N   1      20.036  14.023   4.382  0.00  0.00    -0.294 OA
BRANCH   7   8
HETATM    8  P   UNK N   1      20.640  13.651   5.993  0.00  0.00     0.401 P 
HETATM    9  O   UNK N   1      20.273  12.195   6.393  0.00  0.00    -0.631 OA
BRANCH   8  10
HETATM   10  O   UNK N   1      19.892  14.677   7.174  0.00  0.00    -0.307 OA
HETATM   11  H   UNK N   1      19.012  15.083   7.128  0.00  0.00     0.222 HD
ENDBRANCH   8  10
BRANCH   8  12
HETATM   12  O   UNK N   1      22.371  13.780   6.189  0.00  0.00    -0.195 OA
BRANCH  12  13
HETATM   13  P   UNK N   1      23.176  12.510   5.304  0.00  0.00     0.401 P 
HETATM   14  O   UNK N   1      23.550  12.691   3.811  0.00  0.00    -0.631 OA
BRANCH  13  15
HETATM   15  O   UNK N   1      24.531  13.559   5.564  0.00  0.00    -0.307 OA
HETATM   16  H   UNK N   1      24.956  14.430   5.580  0.00  0.00     0.222 HD
ENDBRANCH  13  15
BRANCH  13  17
HETATM   17  O   UNK N   1      24.199  11.427   6.162  0.00  0.00    -0.294 OA
BRANCH  17  18
HETATM   18  C   UNK N   1      23.411  10.841   7.143  0.00  0.00     0.215 C 
BRANCH  18  19
HETATM   19  C   UNK N   1      23.886  11.265   8.529  0.00  0.00     0.180 C 
HETATM   20  C   UNK N   1      22.762  11.446   9.557  0.00  0.00     0.182 C 
HETATM   21  C   UNK N   1      23.597  12.069  10.627  0.00  0.00     0.204 C 
HETATM   22  C   UNK N   1      24.395  13.068   9.788  0.00  0.00     0.288 C 
HETATM   23  O   UNK N   1      24.627  12.471   8.519  0.00  0.00    -0.349 OA
BRANCH  20  24
HETATM   24  O   UNK N   1      21.802  12.373   9.120  0.00  0.00    -0.390 OA
HETATM   25  H   UNK N   1      21.136  12.723   8.509  0.00  0.00     0.210 HD
ENDBRANCH  20  24
BRANCH  21  26
HETATM   26  O   UNK N   1      22.848  12.672  11.639  0.00  0.00    -0.388 OA
HETATM   27  H   UNK N   1      21.935  12.669  11.968  0.00  0.00     0.210 HD
ENDBRANCH  21  26
BRANCH  22  28
HETATM   28  O   UNK N   1      25.601  13.379  10.418  0.00  0.00    -0.369 OA
HETATM   29  H   UNK N   1      26.302  13.877   9.970  0.00  0.00     0.212 HD
ENDBRANCH  22  28
ENDBRANCH  18  19
ENDBRANCH  17  18
ENDBRANCH  13  17
ENDBRANCH  12  13
ENDBRANCH   8  12
ENDBRANCH   7   8
ENDBRANCH   6   7
ENDBRANCH   1   6
BRANCH   2  30
HETATM   30  O   UNK N   1      20.266  16.711   1.551  0.00  0.00    -0.390 OA
HETATM   31  H   UNK N   1      20.789  16.391   0.800  0.00  0.00     0.210 HD
ENDBRANCH   2  30
BRANCH   3  32
HETATM   32  O   UNK N   1      20.507  19.659   2.970  0.00  0.00    -0.284 OA
BRANCH  32  33
HETATM   33  P   UNK N   1      20.967  20.467   1.498  0.00  0.00     0.391 P 
HETATM   34  O   UNK N   1      22.518  20.538   1.551  0.00  0.00    -0.632 OA
BRANCH  33  35
HETATM   35  O   UNK N   1      20.420  22.110   1.402  0.00  0.00    -0.307 OA
HETATM   36  H   UNK N   1      20.315  22.983   0.994  0.00  0.00     0.222 HD
ENDBRANCH  33  35
BRANCH  33  37
HETATM   37  O   UNK N   1      20.587  19.528   0.090  0.00  0.00    -0.307 OA
HETATM   38  H   UNK N   1      19.830  19.770  -0.465  0.00  0.00     0.222 HD
ENDBRANCH  33  37
ENDBRANCH  32  33
ENDBRANCH   3  32
BRANCH   4  39
HETATM   39  N   UNK N   1      22.694  17.867   5.061  0.00  0.00    -0.297 N 
HETATM   40  C   UNK N   1      23.132  16.749   5.708  0.00  0.00     0.188 A 
HETATM   41  N   UNK N   1      24.497  16.706   5.770  0.00  0.00    -0.346 N 
HETATM   42  C   UNK N   1      24.893  17.829   5.140  0.00  0.00     0.123 A 
ATOM     43  HN  UNK N   1      25.083  15.988   6.195  1.00  0.00     0.167 HD
HETATM   44  C   UNK N   1      26.150  18.292   4.795  0.00  0.00     0.143 A 
HETATM   45  C   UNK N   1      23.810  18.539   4.743  0.00  0.00     0.142 A 
HETATM   46  N   UNK N   1      27.345  17.717   5.010  0.00  0.00    -0.349 N 
HETATM   47  N   UNK N   1      26.255  19.444   4.115  0.00  0.00    -0.301 N 
HETATM   48  C   UNK N   1      28.241  18.561   4.433  0.00  0.00     0.107 A 
ATOM     49  HN  UNK N   1      27.537  16.841   5.498  1.00  0.00     0.167 HD
HETATM   50  C   UNK N   1      27.556  19.642   3.878  0.00  0.00     0.116 A 
HETATM   51  C   UNK N   1      25.168  20.182   3.746  0.00  0.00     0.191 A 
HETATM   52  N   UNK N   1      23.917  19.712   4.048  0.00  0.00    -0.336 N 
ATOM     53  HN  UNK N   1      23.083  20.225   3.761  1.00  0.00     0.168 HD
ENDBRANCH   4  39
TORSDOF 19
ENDMDL
MODEL 9
REMARK VINA RESULT:      -7.2      3.911      9.342
REMARK  19 active torsions:
REMARK  status: ('A' for Active; 'I' for Inactive)
REMARK    1  A    between atoms: C_7  and  C_3 
REMARK    2  A    between atoms: O_37  and  C_3 
REMARK    3  A    between atoms: C_8  and  C_4 
REMARK    4  A    between atoms: O_38  and  C_4 
REMARK    5  A    between atoms: C_10  and  O_26 
REMARK    6  A    between atoms: C_11  and  O_27 
REMARK    7  A    between atoms: C_12  and  O_28 
REMARK    8  A    between atoms: C_13  and  O_41 
REMARK    9  A    between atoms: C_16  and  N_25 
REMARK   10  A    between atoms: C_17  and  O_29 
REMARK   11  A    between atoms: P_43  and  O_30 
REMARK   12  A    between atoms: P_43  and  O_31 
REMARK   13  A    between atoms: P_44  and  O_33 
REMARK   14  A    between atoms: P_45  and  O_35 
REMARK   15  A    between atoms: P_44  and  O_37 
REMARK   16  A    between atoms: P_45  and  O_38 
REMARK   17  A    between atoms: P_43  and  O_41 
REMARK   18  A    between atoms: P_44  and  O_42 
REMARK   19  A    between atoms: P_45  and  O_42 
ROOT
HETATM    1  C   UNK N   1      30.094  16.481   4.564  0.00  0.00     0.180 C 
HETATM    2  C   UNK N   1      30.259  16.132   6.036  0.00  0.00     0.183 C 
HETATM    3  C   UNK N   1      29.117  16.832   6.753  0.00  0.00     0.214 C 
HETATM    4  C   UNK N   1      28.604  17.808   5.673  0.00  0.00     0.263 C 
HETATM    5  O   UNK N   1      29.406  17.704   4.511  0.00  0.00    -0.353 OA
ENDROOT
BRANCH   1   6
HETATM    6  C   UNK N   1      29.383  15.449   3.680  0.00  0.00     0.215 C 
BRANCH   6   7
HETATM    7  O   UNK N   1      28.456  16.069   2.826  0.00  0.00    -0.294 OA
BRANCH   7   8
HETATM    8  P   UNK N   1      27.149  14.932   2.509  0.00  0.00     0.401 P 
HETATM    9  O   UNK N   1      27.675  13.694   1.732  0.00  0.00    -0.631 OA
BRANCH   8  10
HETATM   10  O   UNK N   1      25.945  15.660   1.495  0.00  0.00    -0.307 OA
HETATM   11  H   UNK N   1      25.001  15.771   1.688  0.00  0.00     0.222 HD
ENDBRANCH   8  10
BRANCH   8  12
HETATM   12  O   UNK N   1      26.346  14.304   3.927  0.00  0.00    -0.195 OA
BRANCH  12  13
HETATM   13  P   UNK N   1      24.676  13.949   3.569  0.00  0.00     0.401 P 
HETATM   14  O   UNK N   1      24.069  12.559   3.885  0.00  0.00    -0.631 OA
BRANCH  13  15
HETATM   15  O   UNK N   1      24.542  14.177   5.281  0.00  0.00    -0.307 OA
HETATM   16  H   UNK N   1      24.652  14.695   6.093  0.00  0.00     0.222 HD
ENDBRANCH  13  15
BRANCH  13  17
HETATM   17  O   UNK N   1      23.538  15.238   3.585  0.00  0.00    -0.294 OA
BRANCH  17  18
HETATM   18  C   UNK N   1      22.471  14.826   2.798  0.00  0.00     0.215 C 
BRANCH  18  19
HETATM   19  C   UNK N   1      21.774  16.032   2.176  0.00  0.00     0.180 C 
HETATM   20  C   UNK N   1      20.610  16.589   3.005  0.00  0.00     0.182 C 
HETATM   21  C   UNK N   1      20.091  17.535   1.972  0.00  0.00     0.204 C 
HETATM   22  C   UNK N   1      20.135  16.628   0.742  0.00  0.00     0.288 C 
HETATM   23  O   UNK N   1      21.264  15.775   0.882  0.00  0.00    -0.349 OA
BRANCH  20  24
HETATM   24  O   UNK N   1      19.640  15.609   3.266  0.00  0.00    -0.390 OA
HETATM   25  H   UNK N   1      19.320  14.701   3.382  0.00  0.00     0.210 HD
ENDBRANCH  20  24
BRANCH  21  26
HETATM   26  O   UNK N   1      18.813  18.021   2.254  0.00  0.00    -0.388 OA
HETATM   27  H   UNK N   1      17.991  17.711   2.665  0.00  0.00     0.210 HD
ENDBRANCH  21  26
BRANCH  22  28
HETATM   28  O   UNK N   1      20.232  17.391  -0.422  0.00  0.00    -0.369 OA
HETATM   29  H   UNK N   1      20.355  18.353  -0.398  0.00  0.00     0.212 HD
ENDBRANCH  22  28
ENDBRANCH  18  19
ENDBRANCH  17  18
ENDBRANCH  13  17
ENDBRANCH  12  13
ENDBRANCH   8  12
ENDBRANCH   7   8
ENDBRANCH   6   7
ENDBRANCH   1   6
BRANCH   2  30
HETATM   30  O   UNK N   1      30.326  14.760   6.301  0.00  0.00    -0.390 OA
HETATM   31  H   UNK N   1      30.020  13.909   6.650  0.00  0.00     0.210 HD
ENDBRANCH   2  30
BRANCH   3  32
HETATM   32  O   UNK N   1      29.695  17.616   7.785  0.00  0.00    -0.284 OA
BRANCH  32  33
HETATM   33  P   UNK N   1      28.556  18.081   9.017  0.00  0.00     0.391 P 
HETATM   34  O   UNK N   1      29.417  18.740  10.129  0.00  0.00    -0.632 OA
BRANCH  33  35
HETATM   35  O   UNK N   1      27.755  16.739   9.771  0.00  0.00    -0.307 OA
HETATM   36  H   UNK N   1      27.198  16.303  10.433  0.00  0.00     0.222 HD
ENDBRANCH  33  35
BRANCH  33  37
HETATM   37  O   UNK N   1      27.468  19.317   8.470  0.00  0.00    -0.307 OA
HETATM   38  H   UNK N   1      26.942  19.179   7.668  0.00  0.00     0.222 HD
ENDBRANCH  33  37
ENDBRANCH  32  33
ENDBRANCH   3  32
BRANCH   4  39
HETATM   39  N   UNK N   1      27.169  17.703   5.341  0.00  0.00    -0.297 N 
HETATM   40  C   UNK N   1      26.251  16.898   5.949  0.00  0.00     0.188 A 
HETATM   41  N   UNK N   1      24.978  17.195   5.549  0.00  0.00    -0.346 N 
HETATM   42  C   UNK N   1      25.133  18.210   4.676  0.00  0.00     0.123 A 
ATOM     43  HN  UNK N   1      24.109  16.751   5.844  1.00  0.00     0.167 HD
HETATM   44  C   UNK N   1      24.209  19.000   4.016  0.00  0.00     0.143 A 
HETATM   45  C   UNK N   1      26.449  18.492   4.530  0.00  0.00     0.142 A 
HETATM   46  N   UNK N   1      22.868  18.953   4.078  0.00  0.00    -0.349 N 
HETATM   47  N   UNK N   1      24.648  19.990   3.225  0.00  0.00    -0.301 N 
HETATM   48  C   UNK N   1      22.453  19.972   3.279  0.00  0.00     0.107 A 
ATOM     49  HN  UNK N   1      22.290  18.300   4.608  1.00  0.00     0.167 HD
HETATM   50  C   UNK N   1      23.569  20.616   2.744  0.00  0.00     0.116 A 
HETATM   51  C   UNK N   1      25.975  20.255   3.044  0.00  0.00     0.191 A 
HETATM   52  N   UNK N   1      26.897  19.504   3.725  0.00  0.00    -0.336 N 
ATOM     53  HN  UNK N   1      27.895  19.694   3.634  1.00  0.00     0.168 HD
ENDBRANCH   4  39
TORSDOF 19
ENDMDL
