REMARK  5 active torsions:
REMARK  status: ('A' for Active; 'I' for Inactive)
REMARK    1  A    between atoms: C_2  and  C_1 
REMARK    2  A    between atoms: O_7  and  C_1 
REMARK    3  A    between atoms: C_3  and  O_8 
REMARK    4  A    between atoms: C_5  and  S_12 
REMARK    5  A    between atoms: C_6  and  O_10 
ROOT
HETATM    1  C   UNK N   1       2.187   0.515  -0.142  0.00  0.00     0.164 C 
HETATM    2  C   UNK N   1      -0.261   0.876   0.512  0.00  0.00     0.167 C 
HETATM    3  C   UNK N   1      -0.344  -0.520  -0.100  0.00  0.00     0.203 C 
HETATM    4  C   UNK N   1       1.056   1.570   0.068  0.00  0.00     0.107 C 
HETATM    5  C   UNK N   1       0.852  -1.329   0.486  0.00  0.00     0.288 C 
HETATM    6  O   UNK N   1      -0.273  -0.437  -1.496  0.00  0.00    -0.388 OA
HETATM    7  O   UNK N   1       2.040  -0.571   0.746  0.00  0.00    -0.350 OA
HETATM    8  H   UNK N   1      -0.199  -0.451  -2.463  0.00  0.00     0.210 HD
ENDROOT
BRANCH   2   9
HETATM    9  O   UNK N   1      -1.383   1.651   0.207  0.00  0.00    -0.392 OA
HETATM   10  H   UNK N   1      -1.306   2.595  -0.005  0.00  0.00     0.210 HD
ENDBRANCH   2   9
BRANCH   5  11
HETATM   11  O   UNK N   1       1.140  -2.444  -0.303  0.00  0.00    -0.369 OA
HETATM   12  H   UNK N   1       0.570  -3.005  -0.852  0.00  0.00     0.212 HD
ENDBRANCH   5  11
BRANCH   4  13
HETATM   13  S   UNK N   1       0.841   2.516  -1.488  0.00  0.00    -0.172 SA
HETATM   14  H   UNK N   1       1.369   3.005  -2.642  0.00  0.00     0.102 HD
ENDBRANCH   4  13
BRANCH   1  15
HETATM   15  C   UNK N   1       3.573   1.124   0.060  0.00  0.00     0.197 C 
BRANCH  15  16
HETATM   16  O   UNK N   1       3.840   2.111  -0.890  0.00  0.00    -0.398 OA
HETATM   17  H   UNK N   1       4.527   2.294  -1.550  0.00  0.00     0.209 HD
ENDBRANCH  15  16
ENDBRANCH   1  15
TORSDOF 5
