MODEL 1
REMARK VINA RESULT:      -6.1      0.000      0.000
REMARK  5 active torsions:
REMARK  status: ('A' for Active; 'I' for Inactive)
REMARK    1  A    between atoms: O_1  and  C_2 
REMARK    2  A    between atoms: C_2  and  C_4 
REMARK       I    between atoms: C_4  and  N_6 
REMARK    3  A    between atoms: N_6  and  C_7 
REMARK    4  A    between atoms: C_8  and  C_9 
REMARK    5  A    between atoms: C_9  and  O_10 
ROOT
HETATM    1  C   UNK N   1      27.236  19.114   4.914  0.00  0.00     0.095 A 
HETATM    2  C   UNK N   1      27.493  19.516   6.242  0.00  0.00     0.079 A 
HETATM    3  C   UNK N   1      28.379  18.611   6.917  0.00  0.00    -0.022 A 
HETATM    4  C   UNK N   1      28.778  17.534   6.130  0.00  0.00     0.009 A 
HETATM    5  C   UNK N   1      29.743  16.496   6.588  0.00  0.00     0.161 C 
HETATM    6  N   UNK N   1      30.599  17.068   7.633  0.00  0.00    -0.417 N 
HETATM    7  C   UNK N   1      29.761  17.554   8.737  0.00  0.00     0.118 C 
HETATM    8  C   UNK N   1      28.909  18.769   8.316  0.00  0.00     0.060 C 
HETATM    9  S   UNK N   1      28.073  17.697   4.648  0.00  0.00    -0.074 SA
HETATM   10  H   UNK N   1      31.617  17.119   7.598  0.00  0.00     0.153 HD
ENDROOT
BRANCH   1  11
HETATM   11  N   UNK N   1      26.463  19.845   3.967  0.00  0.00    -0.311 N 
HETATM   12  C   UNK N   1      25.105  19.818   3.876  0.00  0.00     0.320 C 
HETATM   13  O   UNK N   1      24.437  19.146   4.648  0.00  0.00    -0.261 OA
HETATM   14  H   UNK N   1      26.949  20.415   3.327  0.00  0.00     0.170 HD
BRANCH  12  15
HETATM   15  C   UNK N   1      24.432  20.576   2.807  0.00  0.00     0.237 C 
HETATM   16  O   UNK N   1      24.988  20.748   1.734  0.00  0.00    -0.643 OA
BRANCH  15  17
HETATM   17  O   UNK N   1      23.210  21.101   3.016  0.00  0.00    -0.769 OA
HETATM   18  H   UNK N   1      22.942  21.332   3.884  0.00  0.00     0.168 HD
ENDBRANCH  15  17
ENDBRANCH  12  15
ENDBRANCH   1  11
BRANCH   2  19
HETATM   19  C   UNK N   1      26.939  20.751   6.853  0.00  0.00     0.179 C 
HETATM   20  O   UNK N   1      27.199  21.846   6.379  0.00  0.00    -0.646 OA
BRANCH  19  21
HETATM   21  O   UNK N   1      26.136  20.678   7.932  0.00  0.00    -0.773 OA
HETATM   22  H   UNK N   1      25.523  19.975   8.018  0.00  0.00     0.167 HD
ENDBRANCH  19  21
ENDBRANCH   2  19
TORSDOF 5
ENDMDL
MODEL 2
REMARK VINA RESULT:      -5.8      5.979      8.662
REMARK  5 active torsions:
REMARK  status: ('A' for Active; 'I' for Inactive)
REMARK    1  A    between atoms: O_1  and  C_2 
REMARK    2  A    between atoms: C_2  and  C_4 
REMARK       I    between atoms: C_4  and  N_6 
REMARK    3  A    between atoms: N_6  and  C_7 
REMARK    4  A    between atoms: C_8  and  C_9 
REMARK    5  A    between atoms: C_9  and  O_10 
ROOT
HETATM    1  C   UNK N   1      32.217  17.143   8.279  0.00  0.00     0.095 A 
HETATM    2  C   UNK N   1      32.313  17.131   6.872  0.00  0.00     0.079 A 
HETATM    3  C   UNK N   1      31.024  17.135   6.242  0.00  0.00    -0.022 A 
HETATM    4  C   UNK N   1      29.965  17.134   7.146  0.00  0.00     0.009 A 
HETATM    5  C   UNK N   1      28.535  17.201   6.736  0.00  0.00     0.161 C 
HETATM    6  N   UNK N   1      28.445  17.840   5.419  0.00  0.00    -0.417 N 
HETATM    7  C   UNK N   1      29.253  17.082   4.454  0.00  0.00     0.118 C 
HETATM    8  C   UNK N   1      30.760  17.186   4.762  0.00  0.00     0.060 C 
HETATM    9  S   UNK N   1      30.596  17.141   8.670  0.00  0.00    -0.074 SA
HETATM   10  H   UNK N   1      27.907  18.680   5.207  0.00  0.00     0.153 HD
ENDROOT
BRANCH   1  11
HETATM   11  N   UNK N   1      33.317  17.223   9.181  0.00  0.00    -0.311 N 
HETATM   12  C   UNK N   1      34.068  16.167   9.596  0.00  0.00     0.320 C 
HETATM   13  O   UNK N   1      33.842  15.037   9.189  0.00  0.00    -0.261 OA
HETATM   14  H   UNK N   1      33.553  18.113   9.531  0.00  0.00     0.170 HD
BRANCH  12  15
HETATM   15  C   UNK N   1      35.142  16.381  10.582  0.00  0.00     0.237 C 
HETATM   16  O   UNK N   1      35.877  17.350  10.487  0.00  0.00    -0.643 OA
BRANCH  15  17
HETATM   17  O   UNK N   1      35.331  15.496  11.578  0.00  0.00    -0.769 OA
HETATM   18  H   UNK N   1      36.186  15.378  11.945  0.00  0.00     0.168 HD
ENDBRANCH  15  17
ENDBRANCH  12  15
ENDBRANCH   1  11
BRANCH   2  19
HETATM   19  C   UNK N   1      33.602  17.148   6.132  0.00  0.00     0.179 C 
HETATM   20  O   UNK N   1      34.449  17.990   6.388  0.00  0.00    -0.646 OA
BRANCH  19  21
HETATM   21  O   UNK N   1      33.854  16.232   5.178  0.00  0.00    -0.773 OA
HETATM   22  H   UNK N   1      33.869  16.482   4.276  0.00  0.00     0.167 HD
ENDBRANCH  19  21
ENDBRANCH   2  19
TORSDOF 5
ENDMDL
MODEL 3
REMARK VINA RESULT:      -5.8      9.766     11.064
REMARK  5 active torsions:
REMARK  status: ('A' for Active; 'I' for Inactive)
REMARK    1  A    between atoms: O_1  and  C_2 
REMARK    2  A    between atoms: C_2  and  C_4 
REMARK       I    between atoms: C_4  and  N_6 
REMARK    3  A    between atoms: N_6  and  C_7 
REMARK    4  A    between atoms: C_8  and  C_9 
REMARK    5  A    between atoms: C_9  and  O_10 
ROOT
HETATM    1  C   UNK N   1      28.899  24.034  -4.466  0.00  0.00     0.095 A 
HETATM    2  C   UNK N   1      29.439  23.055  -3.606  0.00  0.00     0.079 A 
HETATM    3  C   UNK N   1      30.160  22.044  -4.325  0.00  0.00    -0.022 A 
HETATM    4  C   UNK N   1      30.159  22.237  -5.704  0.00  0.00     0.009 A 
HETATM    5  C   UNK N   1      30.892  21.356  -6.657  0.00  0.00     0.161 C 
HETATM    6  N   UNK N   1      32.006  20.713  -5.952  0.00  0.00    -0.417 N 
HETATM    7  C   UNK N   1      31.485  19.958  -4.805  0.00  0.00     0.118 C 
HETATM    8  C   UNK N   1      30.911  20.890  -3.719  0.00  0.00     0.060 C 
HETATM    9  S   UNK N   1      29.309  23.613  -6.026  0.00  0.00    -0.074 SA
HETATM   10  H   UNK N   1      32.988  20.781  -6.217  0.00  0.00     0.153 HD
ENDROOT
BRANCH   1  11
HETATM   11  N   UNK N   1      28.203  25.205  -4.048  0.00  0.00    -0.311 N 
HETATM   12  C   UNK N   1      26.884  25.255  -3.718  0.00  0.00     0.320 C 
HETATM   13  O   UNK N   1      26.189  24.250  -3.748  0.00  0.00    -0.261 OA
HETATM   14  H   UNK N   1      28.717  26.043  -3.993  0.00  0.00     0.170 HD
BRANCH  12  15
HETATM   15  C   UNK N   1      26.272  26.547  -3.361  0.00  0.00     0.237 C 
HETATM   16  O   UNK N   1      25.929  27.326  -4.236  0.00  0.00    -0.643 OA
BRANCH  15  17
HETATM   17  O   UNK N   1      26.110  26.884  -2.068  0.00  0.00    -0.769 OA
HETATM   18  H   UNK N   1      26.853  27.123  -1.549  0.00  0.00     0.168 HD
ENDBRANCH  15  17
ENDBRANCH  12  15
ENDBRANCH   1  11
BRANCH   2  19
HETATM   19  C   UNK N   1      29.305  23.089  -2.127  0.00  0.00     0.179 C 
HETATM   20  O   UNK N   1      30.297  23.146  -1.418  0.00  0.00    -0.646 OA
BRANCH  19  21
HETATM   21  O   UNK N   1      28.087  23.067  -1.551  0.00  0.00    -0.773 OA
HETATM   22  H   UNK N   1      27.750  22.271  -1.192  0.00  0.00     0.167 HD
ENDBRANCH  19  21
ENDBRANCH   2  19
TORSDOF 5
ENDMDL
MODEL 4
REMARK VINA RESULT:      -5.8     11.545     14.218
REMARK  5 active torsions:
REMARK  status: ('A' for Active; 'I' for Inactive)
REMARK    1  A    between atoms: O_1  and  C_2 
REMARK    2  A    between atoms: C_2  and  C_4 
REMARK       I    between atoms: C_4  and  N_6 
REMARK    3  A    between atoms: N_6  and  C_7 
REMARK    4  A    between atoms: C_8  and  C_9 
REMARK    5  A    between atoms: C_9  and  O_10 
ROOT
HETATM    1  C   UNK N   1      36.791  12.715  13.066  0.00  0.00     0.095 A 
HETATM    2  C   UNK N   1      36.741  12.502  14.460  0.00  0.00     0.079 A 
HETATM    3  C   UNK N   1      36.823  11.110  14.797  0.00  0.00    -0.022 A 
HETATM    4  C   UNK N   1      36.917  10.275  13.686  0.00  0.00     0.009 A 
HETATM    5  C   UNK N   1      37.076   8.797  13.781  0.00  0.00     0.161 C 
HETATM    6  N   UNK N   1      37.691   8.464  15.070  0.00  0.00    -0.417 N 
HETATM    7  C   UNK N   1      36.857   8.992  16.158  0.00  0.00     0.118 C 
HETATM    8  C   UNK N   1      36.860  10.534  16.186  0.00  0.00     0.060 C 
HETATM    9  S   UNK N   1      36.913  11.221  12.335  0.00  0.00    -0.074 SA
HETATM   10  H   UNK N   1      38.561   7.948  15.192  0.00  0.00     0.153 HD
ENDROOT
BRANCH   1  11
HETATM   11  N   UNK N   1      36.813  13.987  12.426  0.00  0.00    -0.311 N 
HETATM   12  C   UNK N   1      35.716  14.663  11.989  0.00  0.00     0.320 C 
HETATM   13  O   UNK N   1      34.593  14.204  12.140  0.00  0.00    -0.261 OA
HETATM   14  H   UNK N   1      37.692  14.411  12.290  0.00  0.00     0.170 HD
BRANCH  12  15
HETATM   15  C   UNK N   1      35.884  15.947  11.286  0.00  0.00     0.237 C 
HETATM   16  O   UNK N   1      36.912  16.178  10.669  0.00  0.00    -0.643 OA
BRANCH  15  17
HETATM   17  O   UNK N   1      34.915  16.880  11.340  0.00  0.00    -0.769 OA
HETATM   18  H   UNK N   1      35.133  17.771  11.531  0.00  0.00     0.168 HD
ENDBRANCH  15  17
ENDBRANCH  12  15
ENDBRANCH   1  11
BRANCH   2  19
HETATM   19  C   UNK N   1      36.651  13.597  15.460  0.00  0.00     0.179 C 
HETATM   20  O   UNK N   1      35.729  13.628  16.260  0.00  0.00    -0.646 OA
BRANCH  19  21
HETATM   21  O   UNK N   1      37.588  14.563  15.501  0.00  0.00    -0.773 OA
HETATM   22  H   UNK N   1      37.446  15.378  15.062  0.00  0.00     0.167 HD
ENDBRANCH  19  21
ENDBRANCH   2  19
TORSDOF 5
ENDMDL
MODEL 5
REMARK VINA RESULT:      -5.7      6.979      8.206
REMARK  5 active torsions:
REMARK  status: ('A' for Active; 'I' for Inactive)
REMARK    1  A    between atoms: O_1  and  C_2 
REMARK    2  A    between atoms: C_2  and  C_4 
REMARK       I    between atoms: C_4  and  N_6 
REMARK    3  A    between atoms: N_6  and  C_7 
REMARK    4  A    between atoms: C_8  and  C_9 
REMARK    5  A    between atoms: C_9  and  O_10 
ROOT
HETATM    1  C   UNK N   1      34.622  16.016   6.931  0.00  0.00     0.095 A 
HETATM    2  C   UNK N   1      34.624  16.796   8.106  0.00  0.00     0.079 A 
HETATM    3  C   UNK N   1      35.157  16.079   9.229  0.00  0.00    -0.022 A 
HETATM    4  C   UNK N   1      35.539  14.776   8.923  0.00  0.00     0.009 A 
HETATM    5  C   UNK N   1      36.177  13.856   9.906  0.00  0.00     0.161 C 
HETATM    6  N   UNK N   1      36.848  14.652  10.939  0.00  0.00    -0.417 N 
HETATM    7  C   UNK N   1      35.870  15.539  11.582  0.00  0.00     0.118 C 
HETATM    8  C   UNK N   1      35.362  16.627  10.614  0.00  0.00     0.060 C 
HETATM    9  S   UNK N   1      35.242  14.518   7.322  0.00  0.00    -0.074 SA
HETATM   10  H   UNK N   1      37.839  14.597  11.174  0.00  0.00     0.153 HD
ENDROOT
BRANCH   1  11
HETATM   11  N   UNK N   1      34.230  16.472   5.639  0.00  0.00    -0.311 N 
HETATM   12  C   UNK N   1      33.023  16.235   5.057  0.00  0.00     0.320 C 
HETATM   13  O   UNK N   1      32.157  15.601   5.642  0.00  0.00    -0.261 OA
HETATM   14  H   UNK N   1      34.885  17.000   5.127  0.00  0.00     0.170 HD
BRANCH  12  15
HETATM   15  C   UNK N   1      32.769  16.713   3.687  0.00  0.00     0.237 C 
HETATM   16  O   UNK N   1      33.259  16.129   2.733  0.00  0.00    -0.643 OA
BRANCH  15  17
HETATM   17  O   UNK N   1      32.014  17.809   3.482  0.00  0.00    -0.769 OA
HETATM   18  H   UNK N   1      32.183  18.592   3.968  0.00  0.00     0.168 HD
ENDBRANCH  15  17
ENDBRANCH  12  15
ENDBRANCH   1  11
BRANCH   2  19
HETATM   19  C   UNK N   1      34.161  18.207   8.161  0.00  0.00     0.179 C 
HETATM   20  O   UNK N   1      32.978  18.474   8.023  0.00  0.00    -0.646 OA
BRANCH  19  21
HETATM   21  O   UNK N   1      35.039  19.206   8.374  0.00  0.00    -0.773 OA
HETATM   22  H   UNK N   1      35.169  19.866   7.723  0.00  0.00     0.167 HD
ENDBRANCH  19  21
ENDBRANCH   2  19
TORSDOF 5
ENDMDL
MODEL 6
REMARK VINA RESULT:      -5.7      3.524      6.890
REMARK  5 active torsions:
REMARK  status: ('A' for Active; 'I' for Inactive)
REMARK    1  A    between atoms: O_1  and  C_2 
REMARK    2  A    between atoms: C_2  and  C_4 
REMARK       I    between atoms: C_4  and  N_6 
REMARK    3  A    between atoms: N_6  and  C_7 
REMARK    4  A    between atoms: C_8  and  C_9 
REMARK    5  A    between atoms: C_9  and  O_10 
ROOT
HETATM    1  C   UNK N   1      23.687  18.790   4.582  0.00  0.00     0.095 A 
HETATM    2  C   UNK N   1      22.964  19.400   3.536  0.00  0.00     0.079 A 
HETATM    3  C   UNK N   1      21.776  18.669   3.202  0.00  0.00    -0.022 A 
HETATM    4  C   UNK N   1      21.600  17.518   3.966  0.00  0.00     0.009 A 
HETATM    5  C   UNK N   1      20.411  16.628   3.849  0.00  0.00     0.161 C 
HETATM    6  N   UNK N   1      19.283  17.406   3.326  0.00  0.00    -0.417 N 
HETATM    7  C   UNK N   1      19.653  17.991   2.031  0.00  0.00     0.118 C 
HETATM    8  C   UNK N   1      20.747  19.068   2.180  0.00  0.00     0.060 C 
HETATM    9  S   UNK N   1      22.861  17.410   5.024  0.00  0.00    -0.074 SA
HETATM   10  H   UNK N   1      18.383  17.523   3.790  0.00  0.00     0.153 HD
ENDROOT
BRANCH   1  11
HETATM   11  N   UNK N   1      24.863  19.317   5.189  0.00  0.00    -0.311 N 
HETATM   12  C   UNK N   1      26.137  18.966   4.864  0.00  0.00     0.320 C 
HETATM   13  O   UNK N   1      26.358  18.151   3.981  0.00  0.00    -0.261 OA
HETATM   14  H   UNK N   1      24.745  19.989   5.900  0.00  0.00     0.170 HD
BRANCH  12  15
HETATM   15  C   UNK N   1      27.265  19.543   5.615  0.00  0.00     0.237 C 
HETATM   16  O   UNK N   1      28.011  20.347   5.080  0.00  0.00    -0.643 OA
BRANCH  15  17
HETATM   17  O   UNK N   1      27.492  19.170   6.889  0.00  0.00    -0.769 OA
HETATM   18  H   UNK N   1      26.773  18.946   7.447  0.00  0.00     0.168 HD
ENDBRANCH  15  17
ENDBRANCH  12  15
ENDBRANCH   1  11
BRANCH   2  19
HETATM   19  C   UNK N   1      23.372  20.670   2.882  0.00  0.00     0.179 C 
HETATM   20  O   UNK N   1      24.443  20.750   2.301  0.00  0.00    -0.646 OA
BRANCH  19  21
HETATM   21  O   UNK N   1      22.563  21.746   2.916  0.00  0.00    -0.773 OA
HETATM   22  H   UNK N   1      21.683  21.685   2.601  0.00  0.00     0.167 HD
ENDBRANCH  19  21
ENDBRANCH   2  19
TORSDOF 5
ENDMDL
MODEL 7
REMARK VINA RESULT:      -5.7     10.220     12.523
REMARK  5 active torsions:
REMARK  status: ('A' for Active; 'I' for Inactive)
REMARK    1  A    between atoms: O_1  and  C_2 
REMARK    2  A    between atoms: C_2  and  C_4 
REMARK       I    between atoms: C_4  and  N_6 
REMARK    3  A    between atoms: N_6  and  C_7 
REMARK    4  A    between atoms: C_8  and  C_9 
REMARK    5  A    between atoms: C_9  and  O_10 
ROOT
HETATM    1  C   UNK N   1      29.332  24.989  -4.014  0.00  0.00     0.095 A 
HETATM    2  C   UNK N   1      27.964  25.281  -3.832  0.00  0.00     0.079 A 
HETATM    3  C   UNK N   1      27.688  26.683  -3.971  0.00  0.00    -0.022 A 
HETATM    4  C   UNK N   1      28.821  27.447  -4.238  0.00  0.00     0.009 A 
HETATM    5  C   UNK N   1      28.781  28.916  -4.484  0.00  0.00     0.161 C 
HETATM    6  N   UNK N   1      27.451  29.280  -4.981  0.00  0.00    -0.417 N 
HETATM    7  C   UNK N   1      26.435  28.866  -4.003  0.00  0.00     0.118 C 
HETATM    8  C   UNK N   1      26.333  27.331  -3.900  0.00  0.00     0.060 C 
HETATM    9  S   UNK N   1      30.117  26.430  -4.312  0.00  0.00    -0.074 SA
HETATM   10  H   UNK N   1      27.260  29.748  -5.867  0.00  0.00     0.153 HD
ENDROOT
BRANCH   1  11
HETATM   11  N   UNK N   1      29.903  23.684  -4.018  0.00  0.00    -0.311 N 
HETATM   12  C   UNK N   1      30.434  23.059  -2.932  0.00  0.00     0.320 C 
HETATM   13  O   UNK N   1      30.440  23.598  -1.836  0.00  0.00    -0.261 OA
HETATM   14  H   UNK N   1      29.913  23.196  -4.873  0.00  0.00     0.170 HD
BRANCH  12  15
HETATM   15  C   UNK N   1      31.050  21.729  -3.087  0.00  0.00     0.237 C 
HETATM   16  O   UNK N   1      30.616  20.945  -3.915  0.00  0.00    -0.643 OA
BRANCH  15  17
HETATM   17  O   UNK N   1      32.081  21.365  -2.301  0.00  0.00    -0.769 OA
HETATM   18  H   UNK N   1      32.809  20.903  -2.668  0.00  0.00     0.168 HD
ENDBRANCH  15  17
ENDBRANCH  12  15
ENDBRANCH   1  11
BRANCH   2  19
HETATM   19  C   UNK N   1      26.928  24.251  -3.564  0.00  0.00     0.179 C 
HETATM   20  O   UNK N   1      26.912  23.654  -2.499  0.00  0.00    -0.646 OA
BRANCH  19  21
HETATM   21  O   UNK N   1      25.989  23.970  -4.487  0.00  0.00    -0.773 OA
HETATM   22  H   UNK N   1      25.171  24.426  -4.484  0.00  0.00     0.167 HD
ENDBRANCH  19  21
ENDBRANCH   2  19
TORSDOF 5
ENDMDL
MODEL 8
REMARK VINA RESULT:      -5.7      7.189      9.724
REMARK  5 active torsions:
REMARK  status: ('A' for Active; 'I' for Inactive)
REMARK    1  A    between atoms: O_1  and  C_2 
REMARK    2  A    between atoms: C_2  and  C_4 
REMARK       I    between atoms: C_4  and  N_6 
REMARK    3  A    between atoms: N_6  and  C_7 
REMARK    4  A    between atoms: C_8  and  C_9 
REMARK    5  A    between atoms: C_9  and  O_10 
ROOT
HETATM    1  C   UNK N   1      34.894  15.773   7.633  0.00  0.00     0.095 A 
HETATM    2  C   UNK N   1      34.221  16.900   7.117  0.00  0.00     0.079 A 
HETATM    3  C   UNK N   1      33.813  16.709   5.755  0.00  0.00    -0.022 A 
HETATM    4  C   UNK N   1      34.178  15.469   5.236  0.00  0.00     0.009 A 
HETATM    5  C   UNK N   1      33.812  15.013   3.866  0.00  0.00     0.161 C 
HETATM    6  N   UNK N   1      32.604  15.724   3.433  0.00  0.00    -0.417 N 
HETATM    7  C   UNK N   1      32.848  17.171   3.476  0.00  0.00     0.118 C 
HETATM    8  C   UNK N   1      33.022  17.680   4.922  0.00  0.00     0.060 C 
HETATM    9  S   UNK N   1      34.967  14.633   6.418  0.00  0.00    -0.074 SA
HETATM   10  H   UNK N   1      31.731  15.281   3.147  0.00  0.00     0.153 HD
ENDROOT
BRANCH   1  11
HETATM   11  N   UNK N   1      35.349  15.627   8.975  0.00  0.00    -0.311 N 
HETATM   12  C   UNK N   1      34.643  15.045   9.982  0.00  0.00     0.320 C 
HETATM   13  O   UNK N   1      33.532  14.577   9.783  0.00  0.00    -0.261 OA
HETATM   14  H   UNK N   1      36.245  15.975   9.191  0.00  0.00     0.170 HD
BRANCH  12  15
HETATM   15  C   UNK N   1      35.207  15.014  11.343  0.00  0.00     0.237 C 
HETATM   16  O   UNK N   1      34.644  14.388  12.227  0.00  0.00    -0.643 OA
BRANCH  15  17
HETATM   17  O   UNK N   1      36.335  15.694  11.623  0.00  0.00    -0.769 OA
HETATM   18  H   UNK N   1      37.127  15.498  11.163  0.00  0.00     0.168 HD
ENDBRANCH  15  17
ENDBRANCH  12  15
ENDBRANCH   1  11
BRANCH   2  19
HETATM   19  C   UNK N   1      33.940  18.127   7.907  0.00  0.00     0.179 C 
HETATM   20  O   UNK N   1      32.797  18.396   8.242  0.00  0.00    -0.646 OA
BRANCH  19  21
HETATM   21  O   UNK N   1      34.941  18.951   8.269  0.00  0.00    -0.773 OA
HETATM   22  H   UNK N   1      35.833  18.694   8.143  0.00  0.00     0.167 HD
ENDBRANCH  19  21
ENDBRANCH   2  19
TORSDOF 5
ENDMDL
MODEL 9
REMARK VINA RESULT:      -5.5      5.177      8.000
REMARK  5 active torsions:
REMARK  status: ('A' for Active; 'I' for Inactive)
REMARK    1  A    between atoms: O_1  and  C_2 
REMARK    2  A    between atoms: C_2  and  C_4 
REMARK       I    between atoms: C_4  and  N_6 
REMARK    3  A    between atoms: N_6  and  C_7 
REMARK    4  A    between atoms: C_8  and  C_9 
REMARK    5  A    between atoms: C_9  and  O_10 
ROOT
HETATM    1  C   UNK N   1      31.201  17.313   8.495  0.00  0.00     0.095 A 
HETATM    2  C   UNK N   1      30.714  16.877   7.245  0.00  0.00     0.079 A 
HETATM    3  C   UNK N   1      29.495  17.540   6.880  0.00  0.00    -0.022 A 
HETATM    4  C   UNK N   1      29.052  18.451   7.834  0.00  0.00     0.009 A 
HETATM    5  C   UNK N   1      27.845  19.306   7.655  0.00  0.00     0.161 C 
HETATM    6  N   UNK N   1      27.595  19.485   6.221  0.00  0.00    -0.417 N 
HETATM    7  C   UNK N   1      27.427  18.169   5.589  0.00  0.00     0.118 C 
HETATM    8  C   UNK N   1      28.741  17.361   5.591  0.00  0.00     0.060 C 
HETATM    9  S   UNK N   1      30.130  18.449   9.082  0.00  0.00    -0.074 SA
HETATM   10  H   UNK N   1      27.546  20.381   5.738  0.00  0.00     0.153 HD
ENDROOT
BRANCH   1  11
HETATM   11  N   UNK N   1      32.428  16.902   9.091  0.00  0.00    -0.311 N 
HETATM   12  C   UNK N   1      33.654  17.408   8.786  0.00  0.00     0.320 C 
HETATM   13  O   UNK N   1      33.780  18.297   7.957  0.00  0.00    -0.261 OA
HETATM   14  H   UNK N   1      32.386  16.196   9.777  0.00  0.00     0.170 HD
BRANCH  12  15
HETATM   15  C   UNK N   1      34.853  16.849   9.435  0.00  0.00     0.237 C 
HETATM   16  O   UNK N   1      35.182  15.692   9.224  0.00  0.00    -0.643 OA
BRANCH  15  17
HETATM   17  O   UNK N   1      35.580  17.603  10.280  0.00  0.00    -0.769 OA
HETATM   18  H   UNK N   1      36.513  17.627  10.203  0.00  0.00     0.168 HD
ENDBRANCH  15  17
ENDBRANCH  12  15
ENDBRANCH   1  11
BRANCH   2  19
HETATM   19  C   UNK N   1      31.405  15.874   6.394  0.00  0.00     0.179 C 
HETATM   20  O   UNK N   1      30.888  14.790   6.174  0.00  0.00    -0.646 OA
BRANCH  19  21
HETATM   21  O   UNK N   1      32.604  16.152   5.848  0.00  0.00    -0.773 OA
HETATM   22  H   UNK N   1      32.914  17.035   5.813  0.00  0.00     0.167 HD
ENDBRANCH  19  21
ENDBRANCH   2  19
TORSDOF 5
ENDMDL
