MODEL 1
REMARK VINA RESULT:      -4.5      0.000      0.000
REMARK  2 active torsions:
REMARK  status: ('A' for Active; 'I' for Inactive)
REMARK    1  A    between atoms: O_1  and  C_2 
REMARK    2  A    between atoms: C_5  and  C_6 
ROOT
HETATM    1  C   UNK N   1      24.139  12.216  11.073  0.00  0.00     0.065 A 
HETATM    2  C   UNK N   1      24.220  12.949   9.887  0.00  0.00     0.037 A 
HETATM    3  C   UNK N   1      23.058  13.466   9.307  0.00  0.00     0.017 A 
HETATM    4  C   UNK N   1      21.813  13.249   9.915  0.00  0.00     0.002 A 
HETATM    5  C   UNK N   1      21.737  12.515  11.102  0.00  0.00     0.017 A 
HETATM    6  C   UNK N   1      22.900  11.998  11.681  0.00  0.00     0.037 A 
ENDROOT
BRANCH   1   7
HETATM    7  O   UNK N   1      25.255  11.719  11.630  0.00  0.00    -0.361 OA
HETATM    8  H   UNK N   1      25.247  10.866  12.018  0.00  0.00     0.217 HD
ENDBRANCH   1   7
BRANCH   4   9
HETATM    9  C   UNK N   1      20.585  13.785   9.319  0.00  0.00     0.269 C 
HETATM   10  O   UNK N   1      19.539  13.796   9.947  0.00  0.00    -0.301 OA
ENDBRANCH   4   9
TORSDOF 2
ENDMDL
MODEL 2
REMARK VINA RESULT:      -4.4     19.733     20.628
REMARK  2 active torsions:
REMARK  status: ('A' for Active; 'I' for Inactive)
REMARK    1  A    between atoms: O_1  and  C_2 
REMARK    2  A    between atoms: C_5  and  C_6 
ROOT
HETATM    1  C   UNK N   1      25.645  27.630  -3.939  0.00  0.00     0.065 A 
HETATM    2  C   UNK N   1      26.341  26.610  -3.287  0.00  0.00     0.037 A 
HETATM    3  C   UNK N   1      26.452  25.350  -3.883  0.00  0.00     0.017 A 
HETATM    4  C   UNK N   1      25.864  25.111  -5.134  0.00  0.00     0.002 A 
HETATM    5  C   UNK N   1      25.168  26.135  -5.782  0.00  0.00     0.017 A 
HETATM    6  C   UNK N   1      25.058  27.394  -5.186  0.00  0.00     0.037 A 
ENDROOT
BRANCH   1   7
HETATM    7  O   UNK N   1      25.538  28.840  -3.367  0.00  0.00    -0.361 OA
HETATM    8  H   UNK N   1      25.048  29.518  -3.789  0.00  0.00     0.217 HD
ENDBRANCH   1   7
BRANCH   4   9
HETATM    9  C   UNK N   1      25.971  23.796  -5.772  0.00  0.00     0.269 C 
HETATM   10  O   UNK N   1      25.284  23.512  -6.740  0.00  0.00    -0.301 OA
ENDBRANCH   4   9
TORSDOF 2
ENDMDL
MODEL 3
REMARK VINA RESULT:      -4.3     13.268     14.583
REMARK  2 active torsions:
REMARK  status: ('A' for Active; 'I' for Inactive)
REMARK    1  A    between atoms: O_1  and  C_2 
REMARK    2  A    between atoms: C_5  and  C_6 
ROOT
HETATM    1  C   UNK N   1      35.310  12.654  19.195  0.00  0.00     0.065 A 
HETATM    2  C   UNK N   1      35.361  11.331  18.749  0.00  0.00     0.037 A 
HETATM    3  C   UNK N   1      35.271  11.052  17.382  0.00  0.00     0.017 A 
HETATM    4  C   UNK N   1      35.129  12.100  16.460  0.00  0.00     0.002 A 
HETATM    5  C   UNK N   1      35.079  13.422  16.912  0.00  0.00     0.017 A 
HETATM    6  C   UNK N   1      35.169  13.699  18.279  0.00  0.00     0.037 A 
ENDROOT
BRANCH   1   7
HETATM    7  O   UNK N   1      35.397  12.921  20.508  0.00  0.00    -0.361 OA
HETATM    8  H   UNK N   1      35.950  12.400  21.058  0.00  0.00     0.217 HD
ENDBRANCH   1   7
BRANCH   4   9
HETATM    9  C   UNK N   1      35.033  11.825  15.023  0.00  0.00     0.269 C 
HETATM   10  O   UNK N   1      34.281  12.471  14.312  0.00  0.00    -0.301 OA
ENDBRANCH   4   9
TORSDOF 2
ENDMDL
MODEL 4
REMARK VINA RESULT:      -4.2     10.522     12.328
REMARK  2 active torsions:
REMARK  status: ('A' for Active; 'I' for Inactive)
REMARK    1  A    between atoms: O_1  and  C_2 
REMARK    2  A    between atoms: C_5  and  C_6 
ROOT
HETATM    1  C   UNK N   1      31.398  17.127   5.939  0.00  0.00     0.065 A 
HETATM    2  C   UNK N   1      32.675  17.305   5.402  0.00  0.00     0.037 A 
HETATM    3  C   UNK N   1      33.746  17.627   6.241  0.00  0.00     0.017 A 
HETATM    4  C   UNK N   1      33.537  17.770   7.621  0.00  0.00     0.002 A 
HETATM    5  C   UNK N   1      32.258  17.590   8.154  0.00  0.00     0.017 A 
HETATM    6  C   UNK N   1      31.188  17.269   7.313  0.00  0.00     0.037 A 
ENDROOT
BRANCH   1   7
HETATM    7  O   UNK N   1      30.370  16.818   5.132  0.00  0.00    -0.361 OA
HETATM    8  H   UNK N   1      29.573  16.484   5.495  0.00  0.00     0.217 HD
ENDBRANCH   1   7
BRANCH   4   9
HETATM    9  C   UNK N   1      34.649  18.107   8.516  0.00  0.00     0.269 C 
HETATM   10  O   UNK N   1      35.239  19.170   8.408  0.00  0.00    -0.301 OA
ENDBRANCH   4   9
TORSDOF 2
ENDMDL
MODEL 5
REMARK VINA RESULT:      -4.2      1.047      1.918
REMARK  2 active torsions:
REMARK  status: ('A' for Active; 'I' for Inactive)
REMARK    1  A    between atoms: O_1  and  C_2 
REMARK    2  A    between atoms: C_5  and  C_6 
ROOT
HETATM    1  C   UNK N   1      24.279  12.237  10.978  0.00  0.00     0.065 A 
HETATM    2  C   UNK N   1      22.971  12.099  11.449  0.00  0.00     0.037 A 
HETATM    3  C   UNK N   1      21.898  12.523  10.660  0.00  0.00     0.017 A 
HETATM    4  C   UNK N   1      22.134  13.086   9.397  0.00  0.00     0.002 A 
HETATM    5  C   UNK N   1      23.444  13.222   8.931  0.00  0.00     0.017 A 
HETATM    6  C   UNK N   1      24.517  12.798   9.720  0.00  0.00     0.037 A 
ENDROOT
BRANCH   1   7
HETATM    7  O   UNK N   1      25.309  11.829  11.736  0.00  0.00    -0.361 OA
HETATM    8  H   UNK N   1      26.180  12.115  11.537  0.00  0.00     0.217 HD
ENDBRANCH   1   7
BRANCH   4   9
HETATM    9  C   UNK N   1      21.019  13.536   8.558  0.00  0.00     0.269 C 
HETATM   10  O   UNK N   1      20.695  12.911   7.561  0.00  0.00    -0.301 OA
ENDBRANCH   4   9
TORSDOF 2
ENDMDL
MODEL 6
REMARK VINA RESULT:      -4.1      8.318     10.093
REMARK  2 active torsions:
REMARK  status: ('A' for Active; 'I' for Inactive)
REMARK    1  A    between atoms: O_1  and  C_2 
REMARK    2  A    between atoms: C_5  and  C_6 
ROOT
HETATM    1  C   UNK N   1      28.566  18.031   8.792  0.00  0.00     0.065 A 
HETATM    2  C   UNK N   1      29.744  18.442   9.421  0.00  0.00     0.037 A 
HETATM    3  C   UNK N   1      30.981  18.170   8.829  0.00  0.00     0.017 A 
HETATM    4  C   UNK N   1      31.039  17.487   7.605  0.00  0.00     0.002 A 
HETATM    5  C   UNK N   1      29.857  17.078   6.980  0.00  0.00     0.017 A 
HETATM    6  C   UNK N   1      28.621  17.350   7.573  0.00  0.00     0.037 A 
ENDROOT
BRANCH   1   7
HETATM    7  O   UNK N   1      27.378  18.292   9.361  0.00  0.00    -0.361 OA
HETATM    8  H   UNK N   1      26.616  18.402   8.826  0.00  0.00     0.217 HD
ENDBRANCH   1   7
BRANCH   4   9
HETATM    9  C   UNK N   1      32.328  17.194   6.971  0.00  0.00     0.269 C 
HETATM   10  O   UNK N   1      33.293  17.918   7.153  0.00  0.00    -0.301 OA
ENDBRANCH   4   9
TORSDOF 2
ENDMDL
MODEL 7
REMARK VINA RESULT:      -4.1     19.819     20.884
REMARK  2 active torsions:
REMARK  status: ('A' for Active; 'I' for Inactive)
REMARK    1  A    between atoms: O_1  and  C_2 
REMARK    2  A    between atoms: C_5  and  C_6 
ROOT
HETATM    1  C   UNK N   1      25.600  25.110  -5.702  0.00  0.00     0.065 A 
HETATM    2  C   UNK N   1      26.121  24.994  -4.411  0.00  0.00     0.037 A 
HETATM    3  C   UNK N   1      26.349  26.142  -3.646  0.00  0.00     0.017 A 
HETATM    4  C   UNK N   1      26.055  27.408  -4.174  0.00  0.00     0.002 A 
HETATM    5  C   UNK N   1      25.534  27.518  -5.466  0.00  0.00     0.017 A 
HETATM    6  C   UNK N   1      25.306  26.370  -6.230  0.00  0.00     0.037 A 
ENDROOT
BRANCH   1   7
HETATM    7  O   UNK N   1      25.382  24.008  -6.437  0.00  0.00    -0.361 OA
HETATM    8  H   UNK N   1      25.779  23.195  -6.193  0.00  0.00     0.217 HD
ENDBRANCH   1   7
BRANCH   4   9
HETATM    9  C   UNK N   1      26.288  28.621  -3.384  0.00  0.00     0.269 C 
HETATM   10  O   UNK N   1      27.007  28.598  -2.399  0.00  0.00    -0.301 OA
ENDBRANCH   4   9
TORSDOF 2
ENDMDL
MODEL 8
REMARK VINA RESULT:      -4.0     14.295     15.054
REMARK  2 active torsions:
REMARK  status: ('A' for Active; 'I' for Inactive)
REMARK    1  A    between atoms: O_1  and  C_2 
REMARK    2  A    between atoms: C_5  and  C_6 
ROOT
HETATM    1  C   UNK N   1      35.220  13.701  18.378  0.00  0.00     0.065 A 
HETATM    2  C   UNK N   1      35.281  12.730  19.381  0.00  0.00     0.037 A 
HETATM    3  C   UNK N   1      35.295  11.375  19.038  0.00  0.00     0.017 A 
HETATM    4  C   UNK N   1      35.247  10.990  17.690  0.00  0.00     0.002 A 
HETATM    5  C   UNK N   1      35.187  11.965  16.691  0.00  0.00     0.017 A 
HETATM    6  C   UNK N   1      35.173  13.320  17.034  0.00  0.00     0.037 A 
ENDROOT
BRANCH   1   7
HETATM    7  O   UNK N   1      35.206  15.002  18.707  0.00  0.00    -0.361 OA
HETATM    8  H   UNK N   1      36.008  15.443  18.910  0.00  0.00     0.217 HD
ENDBRANCH   1   7
BRANCH   4   9
HETATM    9  C   UNK N   1      35.261   9.573  17.315  0.00  0.00     0.269 C 
HETATM   10  O   UNK N   1      35.169   9.235  16.146  0.00  0.00    -0.301 OA
ENDBRANCH   4   9
TORSDOF 2
ENDMDL
MODEL 9
REMARK VINA RESULT:      -3.9     21.473     22.351
REMARK  2 active torsions:
REMARK  status: ('A' for Active; 'I' for Inactive)
REMARK    1  A    between atoms: O_1  and  C_2 
REMARK    2  A    between atoms: C_5  and  C_6 
ROOT
HETATM    1  C   UNK N   1      26.162  26.697  -7.030  0.00  0.00     0.065 A 
HETATM    2  C   UNK N   1      27.217  27.607  -6.930  0.00  0.00     0.037 A 
HETATM    3  C   UNK N   1      27.282  28.483  -5.843  0.00  0.00     0.017 A 
HETATM    4  C   UNK N   1      26.289  28.447  -4.852  0.00  0.00     0.002 A 
HETATM    5  C   UNK N   1      25.236  27.535  -4.956  0.00  0.00     0.017 A 
HETATM    6  C   UNK N   1      25.172  26.660  -6.044  0.00  0.00     0.037 A 
ENDROOT
BRANCH   1   7
HETATM    7  O   UNK N   1      26.100  25.856  -8.075  0.00  0.00    -0.361 OA
HETATM    8  H   UNK N   1      26.887  25.499  -8.437  0.00  0.00     0.217 HD
ENDBRANCH   1   7
BRANCH   4   9
HETATM    9  C   UNK N   1      26.343  29.359  -3.705  0.00  0.00     0.269 C 
HETATM   10  O   UNK N   1      26.801  28.992  -2.635  0.00  0.00    -0.301 OA
ENDBRANCH   4   9
TORSDOF 2
ENDMDL
