REMARK  0 active torsions:
REMARK  status: ('A' for Active; 'I' for Inactive)
ROOT
HETATM    1  C   UNK N   1       0.840   2.942   0.000  0.00  0.00     0.069 C 
HETATM    2  C   UNK N   1       1.761   0.575   0.000  0.00  0.00     0.113 A 
HETATM    3  C   UNK N   1      -0.101  -0.507  -0.000  0.00  0.00     0.180 A 
HETATM    4  C   UNK N   1       0.716   1.461  -0.000  0.00  0.00     0.021 A 
HETATM    5  N   UNK N   1       1.240  -0.666   0.000  0.00  0.00    -0.360 N 
ATOM      6  HN  UNK N   1       1.753  -1.547   0.000  1.00  0.00     0.166 HD
HETATM    7  N   UNK N   1      -0.448   0.797  -0.000  0.00  0.00    -0.355 N 
HETATM    8  H   UNK N   1      -1.357   1.177  -0.000  0.00  0.00     0.166 HD
ENDROOT
TORSDOF 0
