MODEL 1
REMARK VINA RESULT:      -8.9      0.000      0.000
REMARK  10 active torsions:
REMARK  status: ('A' for Active; 'I' for Inactive)
REMARK       I    between atoms: N_1  and  C_2 
REMARK       I    between atoms: C_5  and  N_6 
REMARK    1  A    between atoms: N_6  and  C_7 
REMARK    2  A    between atoms: C_9  and  S_36 
REMARK    3  A    between atoms: C_13  and  O_14 
REMARK    4  A    between atoms: C_15  and  N_16 
REMARK    5  A    between atoms: N_18  and  C_20 
REMARK    6  A    between atoms: C_25  and  S_26 
REMARK    7  A    between atoms: S_26  and  O_27 
REMARK    8  A    between atoms: C_30  and  S_32 
REMARK    9  A    between atoms: S_32  and  O_33 
REMARK   10  A    between atoms: S_36  and  O_37 
REMARK       I    between atoms: C_42  and  N_43 
ROOT
HETATM    1  C   UNK N   1      23.273  15.322   5.183  0.00  0.00     0.064 A 
HETATM    2  C   UNK N   1      21.943  15.454   4.769  0.00  0.00     0.056 A 
HETATM    3  C   UNK N   1      21.470  16.661   4.262  0.00  0.00     0.075 A 
HETATM    4  C   UNK N   1      22.324  17.763   4.163  0.00  0.00     0.038 A 
HETATM    5  C   UNK N   1      23.661  17.653   4.554  0.00  0.00    -0.018 A 
HETATM    6  C   UNK N   1      24.156  16.429   5.052  0.00  0.00     0.037 A 
HETATM    7  C   UNK N   1      25.533  16.314   5.343  0.00  0.00     0.108 A 
HETATM    8  C   UNK N   1      26.425  17.394   5.097  0.00  0.00     0.105 A 
HETATM    9  C   UNK N   1      25.893  18.623   4.639  0.00  0.00     0.104 A 
HETATM   10  C   UNK N   1      24.522  18.735   4.378  0.00  0.00     0.040 A 
ENDROOT
BRANCH   1  11
HETATM   11  N   UNK N   1      23.781  14.066   5.620  0.00  0.00    -0.190 N 
HETATM   12  C   UNK N   1      23.448  13.362   6.801  0.00  0.00     0.711 A 
HETATM   13  N   UNK N   1      23.809  12.059   6.905  0.00  0.00    -0.021 N 
HETATM   14  N   UNK N   1      22.705  13.934   7.782  0.00  0.00    -0.021 N 
HETATM   15  C   UNK N   1      23.433  11.328   7.981  0.00  0.00     0.705 A 
ATOM     16  HN  UNK N   1      24.367  11.626   6.168  1.00  0.00     0.203 HD
HETATM   17  N   UNK N   1      23.785   9.967   8.066  0.00  0.00    -0.234 N 
HETATM   18  N   UNK N   1      22.696  11.904   8.964  0.00  0.00    -0.022 N 
HETATM   19  H   UNK N   1      24.044   9.471   7.257  0.00  0.00     0.174 HD
HETATM   20  H   UNK N   1      23.772   9.511   8.939  0.00  0.00     0.174 HD
HETATM   21  C   UNK N   1      22.339  13.209   8.868  0.00  0.00     0.705 A 
ATOM     22  HN  UNK N   1      22.411  11.355   9.775  1.00  0.00     0.203 HD
HETATM   23  N   UNK N   1      21.572  13.807   9.886  0.00  0.00    -0.234 N 
HETATM   24  H   UNK N   1      21.341  13.322  10.711  0.00  0.00     0.174 HD
HETATM   25  H   UNK N   1      21.258  14.733   9.770  0.00  0.00     0.174 HD
ATOM     26  HN  UNK N   1      22.421  14.911   7.702  1.00  0.00     0.203 HD
HETATM   27  H   UNK N   1      24.442  13.636   5.029  0.00  0.00     0.184 HD
ENDBRANCH   1  11
BRANCH   3  28
HETATM   28  S   UNK N   1      19.825  16.727   3.566  0.00  0.00     0.129 S 
HETATM   29  O   UNK N   1      18.756  16.465   4.637  0.00  0.00    -0.598 OA
HETATM   30  O   UNK N   1      19.474  18.171   3.171  0.00  0.00    -0.598 OA
BRANCH  28  31
HETATM   31  O   UNK N   1      19.383  15.769   2.214  0.00  0.00    -0.292 OA
HETATM   32  H   UNK N   1      18.927  15.883   1.365  0.00  0.00     0.232 HD
ENDBRANCH  28  31
ENDBRANCH   3  28
BRANCH   7  33
HETATM   33  O   UNK N   1      26.015  15.152   5.826  0.00  0.00    -0.357 OA
HETATM   34  H   UNK N   1      25.604  14.730   6.554  0.00  0.00     0.217 HD
ENDBRANCH   7  33
BRANCH   8  35
HETATM   35  N   UNK N   1      27.842  17.199   5.252  0.00  0.00    -0.296 N 
HETATM   36  N   UNK N   1      28.350  17.463   6.364  0.00  0.00    -0.299 N 
ATOM     37  HN  UNK N   1      27.698  17.775   7.083  1.00  0.00     0.187 HD
ATOM     38  HN  UNK N   1      28.413  16.858   4.479  1.00  0.00     0.187 HD
BRANCH  36  39
HETATM   39  C   UNK N   1      29.710  17.385   6.761  0.00  0.00     0.071 A 
HETATM   40  C   UNK N   1      30.630  17.176   5.724  0.00  0.00     0.032 A 
HETATM   41  C   UNK N   1      31.995  17.066   5.973  0.00  0.00     0.002 A 
HETATM   42  C   UNK N   1      32.465  17.163   7.278  0.00  0.00     0.002 A 
HETATM   43  C   UNK N   1      31.570  17.379   8.327  0.00  0.00     0.028 A 
HETATM   44  C   UNK N   1      30.192  17.494   8.089  0.00  0.00     0.100 A 
BRANCH  44  45
HETATM   45  S   UNK N   1      29.138  17.788   9.503  0.00  0.00     0.132 S 
HETATM   46  O   UNK N   1      29.198  16.664  10.546  0.00  0.00    -0.597 OA
HETATM   47  O   UNK N   1      29.665  18.981  10.318  0.00  0.00    -0.597 OA
BRANCH  45  48
HETATM   48  O   UNK N   1      27.485  18.155   9.250  0.00  0.00    -0.292 OA
HETATM   49  H   UNK N   1      26.915  18.337   8.486  0.00  0.00     0.232 HD
ENDBRANCH  45  48
ENDBRANCH  44  45
ENDBRANCH  36  39
ENDBRANCH   8  35
BRANCH   9  50
HETATM   50  S   UNK N   1      26.924  20.049   4.292  0.00  0.00     0.132 S 
HETATM   51  O   UNK N   1      26.678  21.150   5.337  0.00  0.00    -0.597 OA
HETATM   52  O   UNK N   1      26.504  20.777   3.008  0.00  0.00    -0.597 OA
BRANCH  50  53
HETATM   53  O   UNK N   1      28.632  19.898   4.237  0.00  0.00    -0.292 OA
HETATM   54  H   UNK N   1      29.246  19.148   4.230  0.00  0.00     0.232 HD
ENDBRANCH  50  53
ENDBRANCH   9  50
TORSDOF 10
ENDMDL
MODEL 2
REMARK VINA RESULT:      -8.8      6.790     11.698
REMARK  10 active torsions:
REMARK  status: ('A' for Active; 'I' for Inactive)
REMARK       I    between atoms: N_1  and  C_2 
REMARK       I    between atoms: C_5  and  N_6 
REMARK    1  A    between atoms: N_6  and  C_7 
REMARK    2  A    between atoms: C_9  and  S_36 
REMARK    3  A    between atoms: C_13  and  O_14 
REMARK    4  A    between atoms: C_15  and  N_16 
REMARK    5  A    between atoms: N_18  and  C_20 
REMARK    6  A    between atoms: C_25  and  S_26 
REMARK    7  A    between atoms: S_26  and  O_27 
REMARK    8  A    between atoms: C_30  and  S_32 
REMARK    9  A    between atoms: S_32  and  O_33 
REMARK   10  A    between atoms: S_36  and  O_37 
REMARK       I    between atoms: C_42  and  N_43 
ROOT
HETATM    1  C   UNK N   1      34.586  12.737  11.429  0.00  0.00     0.064 A 
HETATM    2  C   UNK N   1      35.268  12.693  12.649  0.00  0.00     0.056 A 
HETATM    3  C   UNK N   1      35.975  13.800  13.112  0.00  0.00     0.075 A 
HETATM    4  C   UNK N   1      36.013  14.974  12.354  0.00  0.00     0.038 A 
HETATM    5  C   UNK N   1      35.325  15.050  11.140  0.00  0.00    -0.018 A 
HETATM    6  C   UNK N   1      34.592  13.940  10.671  0.00  0.00     0.037 A 
HETATM    7  C   UNK N   1      33.822  14.075   9.494  0.00  0.00     0.108 A 
HETATM    8  C   UNK N   1      33.745  15.320   8.810  0.00  0.00     0.105 A 
HETATM    9  C   UNK N   1      34.527  16.402   9.279  0.00  0.00     0.104 A 
HETATM   10  C   UNK N   1      35.306  16.251  10.433  0.00  0.00     0.040 A 
ENDROOT
BRANCH   1  11
HETATM   11  N   UNK N   1      33.792  11.637  10.996  0.00  0.00    -0.190 N 
HETATM   12  C   UNK N   1      34.225  10.324  10.693  0.00  0.00     0.711 A 
HETATM   13  N   UNK N   1      33.295   9.343  10.580  0.00  0.00    -0.021 N 
HETATM   14  N   UNK N   1      35.544  10.016  10.604  0.00  0.00    -0.021 N 
HETATM   15  C   UNK N   1      33.677   8.060  10.377  0.00  0.00     0.705 A 
ATOM     16  HN  UNK N   1      32.304   9.573  10.647  1.00  0.00     0.203 HD
HETATM   17  N   UNK N   1      32.706   7.043  10.292  0.00  0.00    -0.234 N 
HETATM   18  N   UNK N   1      34.994   7.754  10.281  0.00  0.00    -0.022 N 
HETATM   19  H   UNK N   1      31.802   7.190  10.650  0.00  0.00     0.174 HD
HETATM   20  H   UNK N   1      32.934   6.181   9.873  0.00  0.00     0.174 HD
HETATM   21  C   UNK N   1      35.927   8.733  10.387  0.00  0.00     0.705 A 
ATOM     22  HN  UNK N   1      35.284   6.787  10.130  1.00  0.00     0.203 HD
HETATM   23  N   UNK N   1      37.295   8.416  10.290  0.00  0.00    -0.234 N 
HETATM   24  H   UNK N   1      37.601   7.505  10.076  0.00  0.00     0.174 HD
HETATM   25  H   UNK N   1      37.964   9.123  10.440  0.00  0.00     0.174 HD
ATOM     26  HN  UNK N   1      36.246  10.749  10.701  1.00  0.00     0.203 HD
HETATM   27  H   UNK N   1      32.828  11.811  10.896  0.00  0.00     0.184 HD
ENDBRANCH   1  11
BRANCH   3  28
HETATM   28  S   UNK N   1      36.665  13.764  14.759  0.00  0.00     0.129 S 
HETATM   29  O   UNK N   1      35.578  13.516  15.814  0.00  0.00    -0.598 OA
HETATM   30  O   UNK N   1      37.527  12.505  14.947  0.00  0.00    -0.598 OA
BRANCH  28  31
HETATM   31  O   UNK N   1      37.619  15.057  15.362  0.00  0.00    -0.292 OA
HETATM   32  H   UNK N   1      38.216  15.738  15.015  0.00  0.00     0.232 HD
ENDBRANCH  28  31
ENDBRANCH   3  28
BRANCH   7  33
HETATM   33  O   UNK N   1      33.123  13.020   9.032  0.00  0.00    -0.357 OA
HETATM   34  H   UNK N   1      32.193  13.069   8.933  0.00  0.00     0.217 HD
ENDBRANCH   7  33
BRANCH   8  35
HETATM   35  N   UNK N   1      32.833  15.473   7.708  0.00  0.00    -0.296 N 
HETATM   36  N   UNK N   1      31.821  16.187   7.882  0.00  0.00    -0.299 N 
ATOM     37  HN  UNK N   1      31.744  16.626   8.800  1.00  0.00     0.187 HD
ATOM     38  HN  UNK N   1      33.006  15.013   6.814  1.00  0.00     0.187 HD
BRANCH  36  39
HETATM   39  C   UNK N   1      30.766  16.470   6.976  0.00  0.00     0.071 A 
HETATM   40  C   UNK N   1      30.975  16.048   5.656  0.00  0.00     0.032 A 
HETATM   41  C   UNK N   1      30.028  16.274   4.662  0.00  0.00     0.002 A 
HETATM   42  C   UNK N   1      28.846  16.935   4.976  0.00  0.00     0.002 A 
HETATM   43  C   UNK N   1      28.611  17.358   6.285  0.00  0.00     0.028 A 
HETATM   44  C   UNK N   1      29.556  17.135   7.297  0.00  0.00     0.100 A 
BRANCH  44  45
HETATM   45  S   UNK N   1      29.145  17.701   8.942  0.00  0.00     0.132 S 
HETATM   46  O   UNK N   1      29.640  16.758  10.047  0.00  0.00    -0.597 OA
HETATM   47  O   UNK N   1      29.927  18.983   9.272  0.00  0.00    -0.597 OA
BRANCH  45  48
HETATM   48  O   UNK N   1      27.521  18.100   9.307  0.00  0.00    -0.292 OA
HETATM   49  H   UNK N   1      26.846  17.791   9.931  0.00  0.00     0.232 HD
ENDBRANCH  45  48
ENDBRANCH  44  45
ENDBRANCH  36  39
ENDBRANCH   8  35
BRANCH   9  50
HETATM   50  S   UNK N   1      34.504  18.016   8.498  0.00  0.00     0.132 S 
HETATM   51  O   UNK N   1      33.119  18.665   8.660  0.00  0.00    -0.597 OA
HETATM   52  O   UNK N   1      34.599  17.928   6.968  0.00  0.00    -0.597 OA
BRANCH  50  53
HETATM   53  O   UNK N   1      35.600  19.240   8.990  0.00  0.00    -0.292 OA
HETATM   54  H   UNK N   1      35.980  19.508   9.841  0.00  0.00     0.232 HD
ENDBRANCH  50  53
ENDBRANCH   9  50
TORSDOF 10
ENDMDL
MODEL 3
REMARK VINA RESULT:      -8.5      4.830      8.137
REMARK  10 active torsions:
REMARK  status: ('A' for Active; 'I' for Inactive)
REMARK       I    between atoms: N_1  and  C_2 
REMARK       I    between atoms: C_5  and  N_6 
REMARK    1  A    between atoms: N_6  and  C_7 
REMARK    2  A    between atoms: C_9  and  S_36 
REMARK    3  A    between atoms: C_13  and  O_14 
REMARK    4  A    between atoms: C_15  and  N_16 
REMARK    5  A    between atoms: N_18  and  C_20 
REMARK    6  A    between atoms: C_25  and  S_26 
REMARK    7  A    between atoms: S_26  and  O_27 
REMARK    8  A    between atoms: C_30  and  S_32 
REMARK    9  A    between atoms: S_32  and  O_33 
REMARK   10  A    between atoms: S_36  and  O_37 
REMARK       I    between atoms: C_42  and  N_43 
ROOT
HETATM    1  C   UNK N   1      22.442  11.131   6.111  0.00  0.00     0.064 A 
HETATM    2  C   UNK N   1      22.381   9.752   6.336  0.00  0.00     0.056 A 
HETATM    3  C   UNK N   1      21.519   8.946   5.597  0.00  0.00     0.075 A 
HETATM    4  C   UNK N   1      20.697   9.511   4.618  0.00  0.00     0.038 A 
HETATM    5  C   UNK N   1      20.751  10.883   4.361  0.00  0.00    -0.018 A 
HETATM    6  C   UNK N   1      21.634  11.707   5.093  0.00  0.00     0.037 A 
HETATM    7  C   UNK N   1      21.745  13.071   4.745  0.00  0.00     0.108 A 
HETATM    8  C   UNK N   1      21.016  13.607   3.647  0.00  0.00     0.105 A 
HETATM    9  C   UNK N   1      20.105  12.768   2.962  0.00  0.00     0.104 A 
HETATM   10  C   UNK N   1      19.985  11.423   3.330  0.00  0.00     0.040 A 
ENDROOT
BRANCH   1  11
HETATM   11  N   UNK N   1      23.384  11.943   6.804  0.00  0.00    -0.190 N 
HETATM   12  C   UNK N   1      23.403  12.259   8.183  0.00  0.00     0.711 A 
HETATM   13  N   UNK N   1      24.530  12.801   8.709  0.00  0.00    -0.021 N 
HETATM   14  N   UNK N   1      22.361  11.951   8.996  0.00  0.00    -0.021 N 
HETATM   15  C   UNK N   1      24.618  13.037  10.040  0.00  0.00     0.705 A 
ATOM     16  HN  UNK N   1      25.315  13.033   8.101  1.00  0.00     0.203 HD
HETATM   17  N   UNK N   1      25.803  13.570  10.583  0.00  0.00    -0.234 N 
HETATM   18  N   UNK N   1      23.573  12.736  10.851  0.00  0.00    -0.022 N 
HETATM   19  H   UNK N   1      26.647  13.513  10.082  0.00  0.00     0.174 HD
HETATM   20  H   UNK N   1      25.786  14.003  11.468  0.00  0.00     0.174 HD
HETATM   21  C   UNK N   1      22.442  12.199  10.327  0.00  0.00     0.705 A 
ATOM     22  HN  UNK N   1      23.638  12.911  11.853  1.00  0.00     0.203 HD
HETATM   23  N   UNK N   1      21.357  11.883  11.167  0.00  0.00    -0.234 N 
HETATM   24  H   UNK N   1      21.365  12.105  12.127  0.00  0.00     0.174 HD
HETATM   25  H   UNK N   1      20.571  11.430  10.787  0.00  0.00     0.174 HD
ATOM     26  HN  UNK N   1      21.517  11.532   8.606  1.00  0.00     0.203 HD
HETATM   27  H   UNK N   1      24.107  12.330   6.259  0.00  0.00     0.184 HD
ENDBRANCH   1  11
BRANCH   3  28
HETATM   28  S   UNK N   1      21.616   7.171   5.781  0.00  0.00     0.129 S 
HETATM   29  O   UNK N   1      22.532   6.781   6.950  0.00  0.00    -0.598 OA
HETATM   30  O   UNK N   1      20.273   6.616   6.284  0.00  0.00    -0.598 OA
BRANCH  28  31
HETATM   31  O   UNK N   1      22.062   6.155   4.473  0.00  0.00    -0.292 OA
HETATM   32  H   UNK N   1      22.395   5.254   4.338  0.00  0.00     0.232 HD
ENDBRANCH  28  31
ENDBRANCH   3  28
BRANCH   7  33
HETATM   33  O   UNK N   1      22.579  13.868   5.440  0.00  0.00    -0.357 OA
HETATM   34  H   UNK N   1      22.301  14.268   6.240  0.00  0.00     0.217 HD
ENDBRANCH   7  33
BRANCH   8  35
HETATM   35  N   UNK N   1      21.265  14.957   3.217  0.00  0.00    -0.296 N 
HETATM   36  N   UNK N   1      20.716  15.884   3.852  0.00  0.00    -0.299 N 
ATOM     37  HN  UNK N   1      20.149  15.597   4.649  1.00  0.00     0.187 HD
ATOM     38  HN  UNK N   1      21.870  15.152   2.419  1.00  0.00     0.187 HD
BRANCH  36  39
HETATM   39  C   UNK N   1      20.776  17.282   3.614  0.00  0.00     0.071 A 
HETATM   40  C   UNK N   1      19.668  17.830   2.952  0.00  0.00     0.032 A 
HETATM   41  C   UNK N   1      19.602  19.185   2.643  0.00  0.00     0.002 A 
HETATM   42  C   UNK N   1      20.655  20.022   2.995  0.00  0.00     0.002 A 
HETATM   43  C   UNK N   1      21.765  19.502   3.662  0.00  0.00     0.028 A 
HETATM   44  C   UNK N   1      21.844  18.139   3.981  0.00  0.00     0.100 A 
BRANCH  44  45
HETATM   45  S   UNK N   1      23.302  17.583   4.854  0.00  0.00     0.132 S 
HETATM   46  O   UNK N   1      22.979  16.813   6.142  0.00  0.00    -0.597 OA
HETATM   47  O   UNK N   1      24.030  16.504   4.036  0.00  0.00    -0.597 OA
BRANCH  45  48
HETATM   48  O   UNK N   1      24.529  18.714   5.235  0.00  0.00    -0.292 OA
HETATM   49  H   UNK N   1      24.715  19.330   5.961  0.00  0.00     0.232 HD
ENDBRANCH  45  48
ENDBRANCH  44  45
ENDBRANCH  36  39
ENDBRANCH   8  35
BRANCH   9  50
HETATM   50  S   UNK N   1      19.139  13.337   1.562  0.00  0.00     0.132 S 
HETATM   51  O   UNK N   1      17.707  12.782   1.644  0.00  0.00    -0.597 OA
HETATM   52  O   UNK N   1      19.607  12.719   0.237  0.00  0.00    -0.597 OA
BRANCH  50  53
HETATM   53  O   UNK N   1      18.922  15.014   1.275  0.00  0.00    -0.292 OA
HETATM   54  H   UNK N   1      19.524  15.760   1.126  0.00  0.00     0.232 HD
ENDBRANCH  50  53
ENDBRANCH   9  50
TORSDOF 10
ENDMDL
MODEL 4
REMARK VINA RESULT:      -8.5      3.311      5.609
REMARK  10 active torsions:
REMARK  status: ('A' for Active; 'I' for Inactive)
REMARK       I    between atoms: N_1  and  C_2 
REMARK       I    between atoms: C_5  and  N_6 
REMARK    1  A    between atoms: N_6  and  C_7 
REMARK    2  A    between atoms: C_9  and  S_36 
REMARK    3  A    between atoms: C_13  and  O_14 
REMARK    4  A    between atoms: C_15  and  N_16 
REMARK    5  A    between atoms: N_18  and  C_20 
REMARK    6  A    between atoms: C_25  and  S_26 
REMARK    7  A    between atoms: S_26  and  O_27 
REMARK    8  A    between atoms: C_30  and  S_32 
REMARK    9  A    between atoms: S_32  and  O_33 
REMARK   10  A    between atoms: S_36  and  O_37 
REMARK       I    between atoms: C_42  and  N_43 
ROOT
HETATM    1  C   UNK N   1      21.485  13.058   6.181  0.00  0.00     0.064 A 
HETATM    2  C   UNK N   1      20.800  11.853   5.993  0.00  0.00     0.056 A 
HETATM    3  C   UNK N   1      19.774  11.754   5.057  0.00  0.00     0.075 A 
HETATM    4  C   UNK N   1      19.412  12.867   4.293  0.00  0.00     0.038 A 
HETATM    5  C   UNK N   1      20.092  14.078   4.449  0.00  0.00    -0.018 A 
HETATM    6  C   UNK N   1      21.145  14.183   5.383  0.00  0.00     0.037 A 
HETATM    7  C   UNK N   1      21.883  15.386   5.449  0.00  0.00     0.108 A 
HETATM    8  C   UNK N   1      21.607  16.463   4.562  0.00  0.00     0.105 A 
HETATM    9  C   UNK N   1      20.516  16.344   3.669  0.00  0.00     0.104 A 
HETATM   10  C   UNK N   1      19.775  15.157   3.627  0.00  0.00     0.040 A 
ENDROOT
BRANCH   1  11
HETATM   11  N   UNK N   1      22.591  13.137   7.075  0.00  0.00    -0.190 N 
HETATM   12  C   UNK N   1      22.587  12.938   8.476  0.00  0.00     0.711 A 
HETATM   13  N   UNK N   1      23.773  12.769   9.111  0.00  0.00    -0.021 N 
HETATM   14  N   UNK N   1      21.427  12.825   9.173  0.00  0.00    -0.021 N 
HETATM   15  C   UNK N   1      23.805  12.489  10.436  0.00  0.00     0.705 A 
ATOM     16  HN  UNK N   1      24.645  12.852   8.589  1.00  0.00     0.203 HD
HETATM   17  N   UNK N   1      25.040  12.284  11.082  0.00  0.00    -0.234 N 
HETATM   18  N   UNK N   1      22.646  12.384  11.133  0.00  0.00    -0.022 N 
HETATM   19  H   UNK N   1      25.842  12.061  10.557  0.00  0.00     0.174 HD
HETATM   20  H   UNK N   1      25.100  12.363  12.062  0.00  0.00     0.174 HD
HETATM   21  C   UNK N   1      21.458  12.559  10.502  0.00  0.00     0.705 A 
ATOM     22  HN  UNK N   1      22.668  12.173  12.130  1.00  0.00     0.203 HD
HETATM   23  N   UNK N   1      20.254  12.448  11.223  0.00  0.00    -0.234 N 
HETATM   24  H   UNK N   1      20.247  12.313  12.199  0.00  0.00     0.174 HD
HETATM   25  H   UNK N   1      19.398  12.506  10.741  0.00  0.00     0.174 HD
ATOM     26  HN  UNK N   1      20.533  12.940   8.696  1.00  0.00     0.203 HD
HETATM   27  H   UNK N   1      23.461  13.356   6.669  0.00  0.00     0.184 HD
ENDBRANCH   1  11
BRANCH   3  28
HETATM   28  S   UNK N   1      19.062  10.151   4.713  0.00  0.00     0.129 S 
HETATM   29  O   UNK N   1      19.360   9.706   3.274  0.00  0.00    -0.598 OA
HETATM   30  O   UNK N   1      19.805   9.060   5.500  0.00  0.00    -0.598 OA
BRANCH  28  31
HETATM   31  O   UNK N   1      17.395   9.835   4.968  0.00  0.00    -0.292 OA
HETATM   32  H   UNK N   1      16.710   9.244   4.620  0.00  0.00     0.232 HD
ENDBRANCH  28  31
ENDBRANCH   3  28
BRANCH   7  33
HETATM   33  O   UNK N   1      22.887  15.501   6.341  0.00  0.00    -0.357 OA
HETATM   34  H   UNK N   1      23.778  15.540   6.055  0.00  0.00     0.217 HD
ENDBRANCH   7  33
BRANCH   8  35
HETATM   35  N   UNK N   1      22.473  17.612   4.544  0.00  0.00    -0.296 N 
HETATM   36  N   UNK N   1      23.623  17.469   4.071  0.00  0.00    -0.299 N 
ATOM     37  HN  UNK N   1      23.839  16.540   3.711  1.00  0.00     0.187 HD
ATOM     38  HN  UNK N   1      22.161  18.512   4.906  1.00  0.00     0.187 HD
BRANCH  36  39
HETATM   39  C   UNK N   1      24.665  18.426   3.966  0.00  0.00     0.071 A 
HETATM   40  C   UNK N   1      24.336  19.606   3.286  0.00  0.00     0.032 A 
HETATM   41  C   UNK N   1      25.267  20.623   3.099  0.00  0.00     0.002 A 
HETATM   42  C   UNK N   1      26.559  20.471   3.593  0.00  0.00     0.002 A 
HETATM   43  C   UNK N   1      26.909  19.309   4.281  0.00  0.00     0.028 A 
HETATM   44  C   UNK N   1      25.979  18.278   4.478  0.00  0.00     0.100 A 
BRANCH  44  45
HETATM   45  S   UNK N   1      26.528  16.841   5.389  0.00  0.00     0.132 S 
HETATM   46  O   UNK N   1      25.553  15.659   5.299  0.00  0.00    -0.597 OA
HETATM   47  O   UNK N   1      27.783  16.244   4.731  0.00  0.00    -0.597 OA
BRANCH  45  48
HETATM   48  O   UNK N   1      26.964  17.012   7.036  0.00  0.00    -0.292 OA
HETATM   49  H   UNK N   1      26.507  16.973   7.891  0.00  0.00     0.232 HD
ENDBRANCH  45  48
ENDBRANCH  44  45
ENDBRANCH  36  39
ENDBRANCH   8  35
BRANCH   9  50
HETATM   50  S   UNK N   1      20.081  17.637   2.504  0.00  0.00     0.132 S 
HETATM   51  O   UNK N   1      20.242  17.129   1.061  0.00  0.00    -0.597 OA
HETATM   52  O   UNK N   1      21.088  18.796   2.511  0.00  0.00    -0.597 OA
BRANCH  50  53
HETATM   53  O   UNK N   1      18.518  18.342   2.528  0.00  0.00    -0.292 OA
HETATM   54  H   UNK N   1      17.635  18.044   2.261  0.00  0.00     0.232 HD
ENDBRANCH  50  53
ENDBRANCH   9  50
TORSDOF 10
ENDMDL
MODEL 5
REMARK VINA RESULT:      -8.4      3.295      4.489
REMARK  10 active torsions:
REMARK  status: ('A' for Active; 'I' for Inactive)
REMARK       I    between atoms: N_1  and  C_2 
REMARK       I    between atoms: C_5  and  N_6 
REMARK    1  A    between atoms: N_6  and  C_7 
REMARK    2  A    between atoms: C_9  and  S_36 
REMARK    3  A    between atoms: C_13  and  O_14 
REMARK    4  A    between atoms: C_15  and  N_16 
REMARK    5  A    between atoms: N_18  and  C_20 
REMARK    6  A    between atoms: C_25  and  S_26 
REMARK    7  A    between atoms: S_26  and  O_27 
REMARK    8  A    between atoms: C_30  and  S_32 
REMARK    9  A    between atoms: S_32  and  O_33 
REMARK   10  A    between atoms: S_36  and  O_37 
REMARK       I    between atoms: C_42  and  N_43 
ROOT
HETATM    1  C   UNK N   1      21.595  14.396   5.668  0.00  0.00     0.064 A 
HETATM    2  C   UNK N   1      20.715  13.424   5.182  0.00  0.00     0.056 A 
HETATM    3  C   UNK N   1      19.762  13.741   4.218  0.00  0.00     0.075 A 
HETATM    4  C   UNK N   1      19.671  15.046   3.725  0.00  0.00     0.038 A 
HETATM    5  C   UNK N   1      20.550  16.032   4.181  0.00  0.00    -0.018 A 
HETATM    6  C   UNK N   1      21.532  15.716   5.145  0.00  0.00     0.037 A 
HETATM    7  C   UNK N   1      22.473  16.703   5.513  0.00  0.00     0.108 A 
HETATM    8  C   UNK N   1      22.469  17.984   4.895  0.00  0.00     0.105 A 
HETATM    9  C   UNK N   1      21.446  18.286   3.966  0.00  0.00     0.104 A 
HETATM   10  C   UNK N   1      20.502  17.309   3.625  0.00  0.00     0.040 A 
ENDROOT
BRANCH   1  11
HETATM   11  N   UNK N   1      22.626  14.053   6.588  0.00  0.00    -0.190 N 
HETATM   12  C   UNK N   1      22.484  13.669   7.943  0.00  0.00     0.711 A 
HETATM   13  N   UNK N   1      23.543  13.103   8.573  0.00  0.00    -0.021 N 
HETATM   14  N   UNK N   1      21.294  13.772   8.588  0.00  0.00    -0.021 N 
HETATM   15  C   UNK N   1      23.419  12.643   9.840  0.00  0.00     0.705 A 
ATOM     16  HN  UNK N   1      24.438  13.024   8.090  1.00  0.00     0.203 HD
HETATM   17  N   UNK N   1      24.516  12.029  10.476  0.00  0.00    -0.234 N 
HETATM   18  N   UNK N   1      22.232  12.754  10.486  0.00  0.00    -0.022 N 
HETATM   19  H   UNK N   1      25.264  11.677   9.943  0.00  0.00     0.174 HD
HETATM   20  H   UNK N   1      24.534  11.952  11.458  0.00  0.00     0.174 HD
HETATM   21  C   UNK N   1      21.171  13.325   9.862  0.00  0.00     0.705 A 
ATOM     22  HN  UNK N   1      22.136  12.407  11.441  1.00  0.00     0.203 HD
HETATM   23  N   UNK N   1      19.937  13.438  10.530  0.00  0.00    -0.234 N 
HETATM   24  H   UNK N   1      19.835  13.175  11.474  0.00  0.00     0.174 HD
HETATM   25  H   UNK N   1      19.157  13.788  10.043  0.00  0.00     0.174 HD
ATOM     26  HN  UNK N   1      20.491  14.186   8.113  1.00  0.00     0.203 HD
HETATM   27  H   UNK N   1      23.547  14.088   6.241  0.00  0.00     0.184 HD
ENDBRANCH   1  11
BRANCH   3  28
HETATM   28  S   UNK N   1      18.793  12.430   3.487  0.00  0.00     0.129 S 
HETATM   29  O   UNK N   1      17.434  12.283   4.187  0.00  0.00    -0.598 OA
HETATM   30  O   UNK N   1      18.335  12.832   2.076  0.00  0.00    -0.598 OA
BRANCH  28  31
HETATM   31  O   UNK N   1      19.413  10.839   3.323  0.00  0.00    -0.292 OA
HETATM   32  H   UNK N   1      19.932  10.328   2.684  0.00  0.00     0.232 HD
ENDBRANCH  28  31
ENDBRANCH   3  28
BRANCH   7  33
HETATM   33  O   UNK N   1      23.410  16.415   6.437  0.00  0.00    -0.357 OA
HETATM   34  H   UNK N   1      23.946  15.652   6.353  0.00  0.00     0.217 HD
ENDBRANCH   7  33
BRANCH   8  35
HETATM   35  N   UNK N   1      23.532  18.913   5.173  0.00  0.00    -0.296 N 
HETATM   36  N   UNK N   1      24.704  18.547   4.934  0.00  0.00    -0.299 N 
ATOM     37  HN  UNK N   1      24.802  17.615   4.533  1.00  0.00     0.187 HD
ATOM     38  HN  UNK N   1      23.336  19.839   5.553  1.00  0.00     0.187 HD
BRANCH  36  39
HETATM   39  C   UNK N   1      25.916  19.255   5.144  0.00  0.00     0.071 A 
HETATM   40  C   UNK N   1      25.785  20.507   5.761  0.00  0.00     0.032 A 
HETATM   41  C   UNK N   1      26.890  21.313   6.015  0.00  0.00     0.002 A 
HETATM   42  C   UNK N   1      28.159  20.875   5.648  0.00  0.00     0.002 A 
HETATM   43  C   UNK N   1      28.316  19.629   5.040  0.00  0.00     0.028 A 
HETATM   44  C   UNK N   1      27.210  18.806   4.781  0.00  0.00     0.100 A 
BRANCH  44  45
HETATM   45  S   UNK N   1      27.528  17.222   4.015  0.00  0.00     0.132 S 
HETATM   46  O   UNK N   1      27.481  16.051   5.006  0.00  0.00    -0.597 OA
HETATM   47  O   UNK N   1      26.379  16.854   3.063  0.00  0.00    -0.597 OA
BRANCH  45  48
HETATM   48  O   UNK N   1      28.937  17.022   3.063  0.00  0.00    -0.292 OA
HETATM   49  H   UNK N   1      29.204  16.470   2.311  0.00  0.00     0.232 HD
ENDBRANCH  45  48
ENDBRANCH  44  45
ENDBRANCH  36  39
ENDBRANCH   8  35
BRANCH   9  50
HETATM   50  S   UNK N   1      21.347  19.867   3.123  0.00  0.00     0.132 S 
HETATM   51  O   UNK N   1      20.312  20.772   3.813  0.00  0.00    -0.597 OA
HETATM   52  O   UNK N   1      20.730  19.746   1.722  0.00  0.00    -0.597 OA
BRANCH  50  53
HETATM   53  O   UNK N   1      22.735  20.860   2.966  0.00  0.00    -0.292 OA
HETATM   54  H   UNK N   1      23.669  20.765   3.212  0.00  0.00     0.232 HD
ENDBRANCH  50  53
ENDBRANCH   9  50
TORSDOF 10
ENDMDL
MODEL 6
REMARK VINA RESULT:      -8.4      4.895      7.392
REMARK  10 active torsions:
REMARK  status: ('A' for Active; 'I' for Inactive)
REMARK       I    between atoms: N_1  and  C_2 
REMARK       I    between atoms: C_5  and  N_6 
REMARK    1  A    between atoms: N_6  and  C_7 
REMARK    2  A    between atoms: C_9  and  S_36 
REMARK    3  A    between atoms: C_13  and  O_14 
REMARK    4  A    between atoms: C_15  and  N_16 
REMARK    5  A    between atoms: N_18  and  C_20 
REMARK    6  A    between atoms: C_25  and  S_26 
REMARK    7  A    between atoms: S_26  and  O_27 
REMARK    8  A    between atoms: C_30  and  S_32 
REMARK    9  A    between atoms: S_32  and  O_33 
REMARK   10  A    between atoms: S_36  and  O_37 
REMARK       I    between atoms: C_42  and  N_43 
ROOT
HETATM    1  C   UNK N   1      28.164  16.153   5.577  0.00  0.00     0.064 A 
HETATM    2  C   UNK N   1      27.033  15.620   4.949  0.00  0.00     0.056 A 
HETATM    3  C   UNK N   1      27.118  14.451   4.198  0.00  0.00     0.075 A 
HETATM    4  C   UNK N   1      28.344  13.794   4.060  0.00  0.00     0.038 A 
HETATM    5  C   UNK N   1      29.485  14.295   4.691  0.00  0.00    -0.018 A 
HETATM    6  C   UNK N   1      29.406  15.471   5.470  0.00  0.00     0.037 A 
HETATM    7  C   UNK N   1      30.548  15.899   6.181  0.00  0.00     0.108 A 
HETATM    8  C   UNK N   1      31.752  15.142   6.156  0.00  0.00     0.105 A 
HETATM    9  C   UNK N   1      31.815  13.994   5.332  0.00  0.00     0.104 A 
HETATM   10  C   UNK N   1      30.684  13.590   4.612  0.00  0.00     0.040 A 
ENDROOT
BRANCH   1  11
HETATM   11  N   UNK N   1      28.061  17.299   6.416  0.00  0.00    -0.190 N 
HETATM   12  C   UNK N   1      27.547  18.574   6.079  0.00  0.00     0.711 A 
HETATM   13  N   UNK N   1      27.263  19.445   7.079  0.00  0.00    -0.021 N 
HETATM   14  N   UNK N   1      27.253  18.903   4.796  0.00  0.00    -0.021 N 
HETATM   15  C   UNK N   1      26.690  20.640   6.803  0.00  0.00     0.705 A 
ATOM     16  HN  UNK N   1      27.483  19.199   8.045  1.00  0.00     0.203 HD
HETATM   17  N   UNK N   1      26.369  21.525   7.850  0.00  0.00    -0.234 N 
HETATM   18  N   UNK N   1      26.403  20.971   5.519  0.00  0.00    -0.022 N 
HETATM   19  H   UNK N   1      26.290  21.193   8.773  0.00  0.00     0.174 HD
HETATM   20  H   UNK N   1      26.224  22.480   7.658  0.00  0.00     0.174 HD
HETATM   21  C   UNK N   1      26.691  20.105   4.515  0.00  0.00     0.705 A 
ATOM     22  HN  UNK N   1      25.970  21.870   5.310  1.00  0.00     0.203 HD
HETATM   23  N   UNK N   1      26.391  20.447   3.183  0.00  0.00    -0.234 N 
HETATM   24  H   UNK N   1      26.037  21.334   2.944  0.00  0.00     0.174 HD
HETATM   25  H   UNK N   1      26.539  19.782   2.472  0.00  0.00     0.174 HD
ATOM     26  HN  UNK N   1      27.454  18.246   4.042  1.00  0.00     0.203 HD
HETATM   27  H   UNK N   1      28.386  17.191   7.339  0.00  0.00     0.184 HD
ENDBRANCH   1  11
BRANCH   3  28
HETATM   28  S   UNK N   1      25.618  13.704   3.579  0.00  0.00     0.129 S 
HETATM   29  O   UNK N   1      25.573  13.730   2.044  0.00  0.00    -0.598 OA
HETATM   30  O   UNK N   1      25.638  12.187   3.830  0.00  0.00    -0.598 OA
BRANCH  28  31
HETATM   31  O   UNK N   1      24.071  14.226   4.104  0.00  0.00    -0.292 OA
HETATM   32  H   UNK N   1      23.328  13.880   4.622  0.00  0.00     0.232 HD
ENDBRANCH  28  31
ENDBRANCH   3  28
BRANCH   7  33
HETATM   33  O   UNK N   1      30.487  17.024   6.921  0.00  0.00    -0.357 OA
HETATM   34  H   UNK N   1      31.155  17.220   7.547  0.00  0.00     0.217 HD
ENDBRANCH   7  33
BRANCH   8  35
HETATM   35  N   UNK N   1      32.847  15.515   7.012  0.00  0.00    -0.296 N 
HETATM   36  N   UNK N   1      32.779  15.196   8.220  0.00  0.00    -0.299 N 
ATOM     37  HN  UNK N   1      31.949  14.668   8.490  1.00  0.00     0.187 HD
ATOM     38  HN  UNK N   1      33.651  16.023   6.646  1.00  0.00     0.187 HD
BRANCH  36  39
HETATM   39  C   UNK N   1      33.700  15.467   9.264  0.00  0.00     0.071 A 
HETATM   40  C   UNK N   1      33.838  14.456  10.225  0.00  0.00     0.032 A 
HETATM   41  C   UNK N   1      34.698  14.597  11.310  0.00  0.00     0.002 A 
HETATM   42  C   UNK N   1      35.439  15.765  11.454  0.00  0.00     0.002 A 
HETATM   43  C   UNK N   1      35.325  16.782  10.506  0.00  0.00     0.028 A 
HETATM   44  C   UNK N   1      34.464  16.653   9.406  0.00  0.00     0.100 A 
BRANCH  44  45
HETATM   45  S   UNK N   1      34.410  18.009   8.243  0.00  0.00     0.132 S 
HETATM   46  O   UNK N   1      34.727  17.583   6.802  0.00  0.00    -0.597 OA
HETATM   47  O   UNK N   1      32.968  18.521   8.092  0.00  0.00    -0.597 OA
BRANCH  45  48
HETATM   48  O   UNK N   1      35.321  19.423   8.564  0.00  0.00    -0.292 OA
HETATM   49  H   UNK N   1      35.405  20.307   8.175  0.00  0.00     0.232 HD
ENDBRANCH  45  48
ENDBRANCH  44  45
ENDBRANCH  36  39
ENDBRANCH   8  35
BRANCH   9  50
HETATM   50  S   UNK N   1      33.278  12.962   5.228  0.00  0.00     0.132 S 
HETATM   51  O   UNK N   1      32.883  11.510   4.911  0.00  0.00    -0.597 OA
HETATM   52  O   UNK N   1      33.964  12.778   6.590  0.00  0.00    -0.597 OA
BRANCH  50  53
HETATM   53  O   UNK N   1      34.517  13.316   4.097  0.00  0.00    -0.292 OA
HETATM   54  H   UNK N   1      35.431  13.015   3.974  0.00  0.00     0.232 HD
ENDBRANCH  50  53
ENDBRANCH   9  50
TORSDOF 10
ENDMDL
MODEL 7
REMARK VINA RESULT:      -8.2      5.149     10.249
REMARK  10 active torsions:
REMARK  status: ('A' for Active; 'I' for Inactive)
REMARK       I    between atoms: N_1  and  C_2 
REMARK       I    between atoms: C_5  and  N_6 
REMARK    1  A    between atoms: N_6  and  C_7 
REMARK    2  A    between atoms: C_9  and  S_36 
REMARK    3  A    between atoms: C_13  and  O_14 
REMARK    4  A    between atoms: C_15  and  N_16 
REMARK    5  A    between atoms: N_18  and  C_20 
REMARK    6  A    between atoms: C_25  and  S_26 
REMARK    7  A    between atoms: S_26  and  O_27 
REMARK    8  A    between atoms: C_30  and  S_32 
REMARK    9  A    between atoms: S_32  and  O_33 
REMARK   10  A    between atoms: S_36  and  O_37 
REMARK       I    between atoms: C_42  and  N_43 
ROOT
HETATM    1  C   UNK N   1      34.027  15.897   6.659  0.00  0.00     0.064 A 
HETATM    2  C   UNK N   1      34.870  15.595   7.734  0.00  0.00     0.056 A 
HETATM    3  C   UNK N   1      34.472  15.844   9.044  0.00  0.00     0.075 A 
HETATM    4  C   UNK N   1      33.218  16.406   9.302  0.00  0.00     0.038 A 
HETATM    5  C   UNK N   1      32.350  16.701   8.247  0.00  0.00    -0.018 A 
HETATM    6  C   UNK N   1      32.737  16.436   6.916  0.00  0.00     0.037 A 
HETATM    7  C   UNK N   1      31.804  16.647   5.877  0.00  0.00     0.108 A 
HETATM    8  C   UNK N   1      30.478  17.076   6.160  0.00  0.00     0.105 A 
HETATM    9  C   UNK N   1      30.134  17.376   7.500  0.00  0.00     0.104 A 
HETATM   10  C   UNK N   1      31.073  17.188   8.520  0.00  0.00     0.040 A 
ENDROOT
BRANCH   1  11
HETATM   11  N   UNK N   1      34.397  15.563   5.325  0.00  0.00    -0.190 N 
HETATM   12  C   UNK N   1      33.993  14.435   4.573  0.00  0.00     0.711 A 
HETATM   13  N   UNK N   1      34.211  14.434   3.234  0.00  0.00    -0.021 N 
HETATM   14  N   UNK N   1      33.320  13.404   5.145  0.00  0.00    -0.021 N 
HETATM   15  C   UNK N   1      33.761  13.412   2.468  0.00  0.00     0.705 A 
ATOM     16  HN  UNK N   1      34.716  15.208   2.801  1.00  0.00     0.203 HD
HETATM   17  N   UNK N   1      33.964  13.435   1.075  0.00  0.00    -0.234 N 
HETATM   18  N   UNK N   1      33.095  12.380   3.042  0.00  0.00    -0.022 N 
HETATM   19  H   UNK N   1      34.165  14.283   0.617  0.00  0.00     0.174 HD
HETATM   20  H   UNK N   1      33.905  12.600   0.556  0.00  0.00     0.174 HD
HETATM   21  C   UNK N   1      32.881  12.373   4.382  0.00  0.00     0.705 A 
ATOM     22  HN  UNK N   1      32.755  11.609   2.467  1.00  0.00     0.203 HD
HETATM   23  N   UNK N   1      32.187  11.303   4.979  0.00  0.00    -0.234 N 
HETATM   24  H   UNK N   1      31.907  10.515   4.460  0.00  0.00     0.174 HD
HETATM   25  H   UNK N   1      31.976  11.344   5.940  0.00  0.00     0.174 HD
ATOM     26  HN  UNK N   1      33.144  13.407   6.150  1.00  0.00     0.203 HD
HETATM   27  H   UNK N   1      35.005  16.192   4.873  0.00  0.00     0.184 HD
ENDBRANCH   1  11
BRANCH   3  28
HETATM   28  S   UNK N   1      35.496  15.265  10.389  0.00  0.00     0.129 S 
HETATM   29  O   UNK N   1      34.662  15.004  11.652  0.00  0.00    -0.598 OA
HETATM   30  O   UNK N   1      36.004  13.844  10.095  0.00  0.00    -0.598 OA
BRANCH  28  31
HETATM   31  O   UNK N   1      36.877  16.139  10.909  0.00  0.00    -0.292 OA
HETATM   32  H   UNK N   1      37.642  16.584  10.513  0.00  0.00     0.232 HD
ENDBRANCH  28  31
ENDBRANCH   3  28
BRANCH   7  33
HETATM   33  O   UNK N   1      32.164  16.404   4.601  0.00  0.00    -0.357 OA
HETATM   34  H   UNK N   1      32.334  15.530   4.311  0.00  0.00     0.217 HD
ENDBRANCH   7  33
BRANCH   8  35
HETATM   35  N   UNK N   1      29.505  17.130   5.103  0.00  0.00    -0.296 N 
HETATM   36  N   UNK N   1      28.932  16.066   4.780  0.00  0.00    -0.299 N 
ATOM     37  HN  UNK N   1      29.194  15.243   5.323  1.00  0.00     0.187 HD
ATOM     38  HN  UNK N   1      29.289  18.008   4.631  1.00  0.00     0.187 HD
BRANCH  36  39
HETATM   39  C   UNK N   1      27.968  15.848   3.762  0.00  0.00     0.071 A 
HETATM   40  C   UNK N   1      26.831  16.666   3.824  0.00  0.00     0.032 A 
HETATM   41  C   UNK N   1      25.800  16.550   2.896  0.00  0.00     0.002 A 
HETATM   42  C   UNK N   1      25.890  15.601   1.883  0.00  0.00     0.002 A 
HETATM   43  C   UNK N   1      27.015  14.780   1.797  0.00  0.00     0.028 A 
HETATM   44  C   UNK N   1      28.063  14.889   2.723  0.00  0.00     0.100 A 
BRANCH  44  45
HETATM   45  S   UNK N   1      29.465  13.801   2.508  0.00  0.00     0.132 S 
HETATM   46  O   UNK N   1      30.811  14.492   2.764  0.00  0.00    -0.597 OA
HETATM   47  O   UNK N   1      29.471  12.721   3.602  0.00  0.00    -0.597 OA
BRANCH  45  48
HETATM   48  O   UNK N   1      29.620  12.916   1.050  0.00  0.00    -0.292 OA
HETATM   49  H   UNK N   1      29.198  12.138   0.653  0.00  0.00     0.232 HD
ENDBRANCH  45  48
ENDBRANCH  44  45
ENDBRANCH  36  39
ENDBRANCH   8  35
BRANCH   9  50
HETATM   50  S   UNK N   1      28.491  17.920   7.972  0.00  0.00     0.132 S 
HETATM   51  O   UNK N   1      27.433  16.937   7.442  0.00  0.00    -0.597 OA
HETATM   52  O   UNK N   1      28.070  19.208   7.250  0.00  0.00    -0.597 OA
BRANCH  50  53
HETATM   53  O   UNK N   1      28.082  18.125   9.625  0.00  0.00    -0.292 OA
HETATM   54  H   UNK N   1      28.576  18.072  10.458  0.00  0.00     0.232 HD
ENDBRANCH  50  53
ENDBRANCH   9  50
TORSDOF 10
ENDMDL
MODEL 8
REMARK VINA RESULT:      -8.1      8.263     12.080
REMARK  10 active torsions:
REMARK  status: ('A' for Active; 'I' for Inactive)
REMARK       I    between atoms: N_1  and  C_2 
REMARK       I    between atoms: C_5  and  N_6 
REMARK    1  A    between atoms: N_6  and  C_7 
REMARK    2  A    between atoms: C_9  and  S_36 
REMARK    3  A    between atoms: C_13  and  O_14 
REMARK    4  A    between atoms: C_15  and  N_16 
REMARK    5  A    between atoms: N_18  and  C_20 
REMARK    6  A    between atoms: C_25  and  S_26 
REMARK    7  A    between atoms: S_26  and  O_27 
REMARK    8  A    between atoms: C_30  and  S_32 
REMARK    9  A    between atoms: S_32  and  O_33 
REMARK   10  A    between atoms: S_36  and  O_37 
REMARK       I    between atoms: C_42  and  N_43 
ROOT
HETATM    1  C   UNK N   1      34.602  12.741  11.426  0.00  0.00     0.064 A 
HETATM    2  C   UNK N   1      35.278  12.699  12.650  0.00  0.00     0.056 A 
HETATM    3  C   UNK N   1      35.986  13.805  13.113  0.00  0.00     0.075 A 
HETATM    4  C   UNK N   1      36.031  14.977  12.353  0.00  0.00     0.038 A 
HETATM    5  C   UNK N   1      35.350  15.052  11.135  0.00  0.00    -0.018 A 
HETATM    6  C   UNK N   1      34.615  13.942  10.665  0.00  0.00     0.037 A 
HETATM    7  C   UNK N   1      33.852  14.076   9.484  0.00  0.00     0.108 A 
HETATM    8  C   UNK N   1      33.782  15.319   8.795  0.00  0.00     0.105 A 
HETATM    9  C   UNK N   1      34.565  16.400   9.266  0.00  0.00     0.104 A 
HETATM   10  C   UNK N   1      35.337  16.250  10.424  0.00  0.00     0.040 A 
ENDROOT
BRANCH   1  11
HETATM   11  N   UNK N   1      33.807  11.642  10.993  0.00  0.00    -0.190 N 
HETATM   12  C   UNK N   1      34.237  10.327  10.699  0.00  0.00     0.711 A 
HETATM   13  N   UNK N   1      33.305   9.349  10.584  0.00  0.00    -0.021 N 
HETATM   14  N   UNK N   1      35.555  10.012  10.622  0.00  0.00    -0.021 N 
HETATM   15  C   UNK N   1      33.683   8.063  10.390  0.00  0.00     0.705 A 
ATOM     16  HN  UNK N   1      32.314   9.583  10.643  1.00  0.00     0.203 HD
HETATM   17  N   UNK N   1      32.709   7.049  10.303  0.00  0.00    -0.234 N 
HETATM   18  N   UNK N   1      35.000   7.751  10.305  0.00  0.00    -0.022 N 
HETATM   19  H   UNK N   1      31.802   7.202  10.654  0.00  0.00     0.174 HD
HETATM   20  H   UNK N   1      32.936   6.185   9.889  0.00  0.00     0.174 HD
HETATM   21  C   UNK N   1      35.936   8.728  10.414  0.00  0.00     0.705 A 
ATOM     22  HN  UNK N   1      35.286   6.783  10.160  1.00  0.00     0.203 HD
HETATM   23  N   UNK N   1      37.303   8.405  10.328  0.00  0.00    -0.234 N 
HETATM   24  H   UNK N   1      37.607   7.491  10.121  0.00  0.00     0.174 HD
HETATM   25  H   UNK N   1      37.974   9.110  10.480  0.00  0.00     0.174 HD
ATOM     26  HN  UNK N   1      36.260  10.743  10.720  1.00  0.00     0.203 HD
HETATM   27  H   UNK N   1      32.845  11.820  10.885  0.00  0.00     0.184 HD
ENDBRANCH   1  11
BRANCH   3  28
HETATM   28  S   UNK N   1      36.668  13.773  14.764  0.00  0.00     0.129 S 
HETATM   29  O   UNK N   1      35.574  13.534  15.815  0.00  0.00    -0.598 OA
HETATM   30  O   UNK N   1      37.521  12.509  14.961  0.00  0.00    -0.598 OA
BRANCH  28  31
HETATM   31  O   UNK N   1      37.626  15.062  15.366  0.00  0.00    -0.292 OA
HETATM   32  H   UNK N   1      37.513  15.993  15.612  0.00  0.00     0.232 HD
ENDBRANCH  28  31
ENDBRANCH   3  28
BRANCH   7  33
HETATM   33  O   UNK N   1      33.152  13.021   9.022  0.00  0.00    -0.357 OA
HETATM   34  H   UNK N   1      32.342  13.147   8.570  0.00  0.00     0.217 HD
ENDBRANCH   7  33
BRANCH   8  35
HETATM   35  N   UNK N   1      32.876  15.471   7.689  0.00  0.00    -0.296 N 
HETATM   36  N   UNK N   1      33.342  15.364   6.533  0.00  0.00    -0.299 N 
ATOM     37  HN  UNK N   1      34.337  15.149   6.477  1.00  0.00     0.187 HD
ATOM     38  HN  UNK N   1      31.886  15.662   7.842  1.00  0.00     0.187 HD
BRANCH  36  39
HETATM   39  C   UNK N   1      32.673  15.499   5.289  0.00  0.00     0.071 A 
HETATM   40  C   UNK N   1      32.559  16.810   4.804  0.00  0.00     0.032 A 
HETATM   41  C   UNK N   1      31.914  17.088   3.603  0.00  0.00     0.002 A 
HETATM   42  C   UNK N   1      31.366  16.047   2.860  0.00  0.00     0.002 A 
HETATM   43  C   UNK N   1      31.474  14.733   3.317  0.00  0.00     0.028 A 
HETATM   44  C   UNK N   1      32.123  14.439   4.525  0.00  0.00     0.100 A 
BRANCH  44  45
HETATM   45  S   UNK N   1      32.221  12.720   5.007  0.00  0.00     0.132 S 
HETATM   46  O   UNK N   1      32.626  12.526   6.474  0.00  0.00    -0.597 OA
HETATM   47  O   UNK N   1      30.820  12.087   4.998  0.00  0.00    -0.597 OA
BRANCH  45  48
HETATM   48  O   UNK N   1      33.169  11.643   4.073  0.00  0.00    -0.292 OA
HETATM   49  H   UNK N   1      33.006  10.863   3.520  0.00  0.00     0.232 HD
ENDBRANCH  45  48
ENDBRANCH  44  45
ENDBRANCH  36  39
ENDBRANCH   8  35
BRANCH   9  50
HETATM   50  S   UNK N   1      34.551  18.012   8.479  0.00  0.00     0.132 S 
HETATM   51  O   UNK N   1      33.153  18.645   8.591  0.00  0.00    -0.597 OA
HETATM   52  O   UNK N   1      34.700  17.921   6.954  0.00  0.00    -0.597 OA
BRANCH  50  53
HETATM   53  O   UNK N   1      35.615  19.249   9.006  0.00  0.00    -0.292 OA
HETATM   54  H   UNK N   1      35.537  20.210   9.115  0.00  0.00     0.232 HD
ENDBRANCH  50  53
ENDBRANCH   9  50
TORSDOF 10
ENDMDL
MODEL 9
REMARK VINA RESULT:      -8.1      3.914      8.805
REMARK  10 active torsions:
REMARK  status: ('A' for Active; 'I' for Inactive)
REMARK       I    between atoms: N_1  and  C_2 
REMARK       I    between atoms: C_5  and  N_6 
REMARK    1  A    between atoms: N_6  and  C_7 
REMARK    2  A    between atoms: C_9  and  S_36 
REMARK    3  A    between atoms: C_13  and  O_14 
REMARK    4  A    between atoms: C_15  and  N_16 
REMARK    5  A    between atoms: N_18  and  C_20 
REMARK    6  A    between atoms: C_25  and  S_26 
REMARK    7  A    between atoms: S_26  and  O_27 
REMARK    8  A    between atoms: C_30  and  S_32 
REMARK    9  A    between atoms: S_32  and  O_33 
REMARK   10  A    between atoms: S_36  and  O_37 
REMARK       I    between atoms: C_42  and  N_43 
ROOT
HETATM    1  C   UNK N   1      28.982  16.544   5.914  0.00  0.00     0.064 A 
HETATM    2  C   UNK N   1      30.212  16.576   5.249  0.00  0.00     0.056 A 
HETATM    3  C   UNK N   1      30.577  15.556   4.374  0.00  0.00     0.075 A 
HETATM    4  C   UNK N   1      29.712  14.480   4.152  0.00  0.00     0.038 A 
HETATM    5  C   UNK N   1      28.470  14.433   4.791  0.00  0.00    -0.018 A 
HETATM    6  C   UNK N   1      28.084  15.470   5.666  0.00  0.00     0.037 A 
HETATM    7  C   UNK N   1      26.784  15.452   6.219  0.00  0.00     0.108 A 
HETATM    8  C   UNK N   1      25.856  14.432   5.870  0.00  0.00     0.105 A 
HETATM    9  C   UNK N   1      26.287  13.382   5.025  0.00  0.00     0.104 A 
HETATM   10  C   UNK N   1      27.585  13.396   4.502  0.00  0.00     0.040 A 
ENDROOT
BRANCH   1  11
HETATM   11  N   UNK N   1      28.571  17.628   6.741  0.00  0.00    -0.190 N 
HETATM   12  C   UNK N   1      27.869  18.794   6.354  0.00  0.00     0.711 A 
HETATM   13  N   UNK N   1      27.315  19.569   7.318  0.00  0.00    -0.021 N 
HETATM   14  N   UNK N   1      27.667  19.098   5.046  0.00  0.00    -0.021 N 
HETATM   15  C   UNK N   1      26.562  20.644   6.983  0.00  0.00     0.705 A 
ATOM     16  HN  UNK N   1      27.465  19.342   8.301  1.00  0.00     0.203 HD
HETATM   17  N   UNK N   1      25.964  21.426   7.990  0.00  0.00    -0.234 N 
HETATM   18  N   UNK N   1      26.367  20.951   5.676  0.00  0.00    -0.022 N 
HETATM   19  H   UNK N   1      25.843  21.059   8.896  0.00  0.00     0.174 HD
HETATM   20  H   UNK N   1      25.665  22.342   7.788  0.00  0.00     0.174 HD
HETATM   21  C   UNK N   1      26.925  20.182   4.708  0.00  0.00     0.705 A 
ATOM     22  HN  UNK N   1      25.800  21.760   5.422  1.00  0.00     0.203 HD
HETATM   23  N   UNK N   1      26.721  20.498   3.352  0.00  0.00    -0.234 N 
HETATM   24  H   UNK N   1      26.236  21.310   3.078  0.00  0.00     0.174 HD
HETATM   25  H   UNK N   1      27.071  19.892   2.660  0.00  0.00     0.174 HD
ATOM     26  HN  UNK N   1      28.072  18.510   4.318  1.00  0.00     0.203 HD
HETATM   27  H   UNK N   1      28.803  17.557   7.696  0.00  0.00     0.184 HD
ENDBRANCH   1  11
BRANCH   3  28
HETATM   28  S   UNK N   1      32.064  15.735   3.401  0.00  0.00     0.129 S 
HETATM   29  O   UNK N   1      31.967  16.936   2.449  0.00  0.00    -0.598 OA
HETATM   30  O   UNK N   1      33.232  16.183   4.295  0.00  0.00    -0.598 OA
BRANCH  28  31
HETATM   31  O   UNK N   1      32.686  14.440   2.463  0.00  0.00    -0.292 OA
HETATM   32  H   UNK N   1      32.556  13.483   2.376  0.00  0.00     0.232 HD
ENDBRANCH  28  31
ENDBRANCH   3  28
BRANCH   7  33
HETATM   33  O   UNK N   1      26.406  16.433   7.061  0.00  0.00    -0.357 OA
HETATM   34  H   UNK N   1      26.702  17.312   6.934  0.00  0.00     0.217 HD
ENDBRANCH   7  33
BRANCH   8  35
HETATM   35  N   UNK N   1      24.493  14.524   6.321  0.00  0.00    -0.296 N 
HETATM   36  N   UNK N   1      24.243  14.184   7.499  0.00  0.00    -0.299 N 
ATOM     37  HN  UNK N   1      25.047  13.890   8.052  1.00  0.00     0.187 HD
ATOM     38  HN  UNK N   1      23.754  14.854   5.700  1.00  0.00     0.187 HD
BRANCH  36  39
HETATM   39  C   UNK N   1      22.993  14.153   8.169  0.00  0.00     0.071 A 
HETATM   40  C   UNK N   1      21.973  14.913   7.579  0.00  0.00     0.032 A 
HETATM   41  C   UNK N   1      20.701  14.983   8.139  0.00  0.00     0.002 A 
HETATM   42  C   UNK N   1      20.427  14.288   9.312  0.00  0.00     0.002 A 
HETATM   43  C   UNK N   1      21.423  13.519   9.914  0.00  0.00     0.028 A 
HETATM   44  C   UNK N   1      22.709  13.438   9.359  0.00  0.00     0.100 A 
BRANCH  44  45
HETATM   45  S   UNK N   1      23.903  12.408  10.202  0.00  0.00     0.132 S 
HETATM   46  O   UNK N   1      23.277  11.521  11.287  0.00  0.00    -0.597 OA
HETATM   47  O   UNK N   1      24.465  11.350   9.238  0.00  0.00    -0.597 OA
BRANCH  45  48
HETATM   48  O   UNK N   1      25.297  13.132  10.883  0.00  0.00    -0.292 OA
HETATM   49  H   UNK N   1      25.818  13.025  11.694  0.00  0.00     0.232 HD
ENDBRANCH  45  48
ENDBRANCH  44  45
ENDBRANCH  36  39
ENDBRANCH   8  35
BRANCH   9  50
HETATM   50  S   UNK N   1      25.200  12.048   4.517  0.00  0.00     0.132 S 
HETATM   51  O   UNK N   1      24.023  12.605   3.699  0.00  0.00    -0.597 OA
HETATM   52  O   UNK N   1      24.451  11.419   5.700  0.00  0.00    -0.597 OA
BRANCH  50  53
HETATM   53  O   UNK N   1      25.796  10.752   3.565  0.00  0.00    -0.292 OA
HETATM   54  H   UNK N   1      26.085  10.665   2.643  0.00  0.00     0.232 HD
ENDBRANCH  50  53
ENDBRANCH   9  50
TORSDOF 10
ENDMDL
