MODEL 1
REMARK VINA RESULT:      -4.9      0.000      0.000
REMARK  3 active torsions:
REMARK  status: ('A' for Active; 'I' for Inactive)
REMARK    1  A    between atoms: C_3  and  O_7 
REMARK    2  A    between atoms: C_4  and  O_8 
REMARK    3  A    between atoms: C_6  and  O_10 
ROOT
HETATM    1  C   UNK N   1      23.040  17.653   4.605  0.00  0.00     0.042 C 
HETATM    2  C   UNK N   1      22.072  18.671   4.032  0.00  0.00     0.152 C 
HETATM    3  C   UNK N   1      20.918  17.940   3.300  0.00  0.00     0.178 C 
HETATM    4  C   UNK N   1      20.080  18.899   2.418  0.00  0.00     0.182 C 
HETATM    5  C   UNK N   1      20.433  20.363   2.689  0.00  0.00     0.204 C 
HETATM    6  C   UNK N   1      21.966  20.499   2.492  0.00  0.00     0.288 C 
HETATM    7  O   UNK N   1      20.051  20.736   3.983  0.00  0.00    -0.388 OA
HETATM    8  O   UNK N   1      22.786  19.557   3.182  0.00  0.00    -0.351 OA
HETATM    9  H   UNK N   1      19.948  21.006   4.908  0.00  0.00     0.210 HD
ENDROOT
BRANCH   4  10
HETATM   10  O   UNK N   1      18.707  18.675   2.552  0.00  0.00    -0.390 OA
HETATM   11  H   UNK N   1      18.365  17.944   3.090  0.00  0.00     0.210 HD
ENDBRANCH   4  10
BRANCH   6  12
HETATM   12  O   UNK N   1      22.367  21.800   2.812  0.00  0.00    -0.369 OA
HETATM   13  H   UNK N   1      22.755  22.488   2.249  0.00  0.00     0.212 HD
ENDBRANCH   6  12
BRANCH   3  14
HETATM   14  O   UNK N   1      20.115  17.305   4.255  0.00  0.00    -0.390 OA
HETATM   15  H   UNK N   1      20.200  17.280   5.221  0.00  0.00     0.210 HD
ENDBRANCH   3  14
TORSDOF 3
ENDMDL
MODEL 2
REMARK VINA RESULT:      -4.7     13.598     15.451
REMARK  3 active torsions:
REMARK  status: ('A' for Active; 'I' for Inactive)
REMARK    1  A    between atoms: C_3  and  O_7 
REMARK    2  A    between atoms: C_4  and  O_8 
REMARK    3  A    between atoms: C_6  and  O_10 
ROOT
HETATM    1  C   UNK N   1      34.232  18.384   8.102  0.00  0.00     0.042 C 
HETATM    2  C   UNK N   1      34.607  17.076   8.775  0.00  0.00     0.152 C 
HETATM    3  C   UNK N   1      33.330  16.238   9.034  0.00  0.00     0.178 C 
HETATM    4  C   UNK N   1      33.588  15.056  10.001  0.00  0.00     0.182 C 
HETATM    5  C   UNK N   1      35.083  14.854  10.254  0.00  0.00     0.204 C 
HETATM    6  C   UNK N   1      35.642  16.214  10.752  0.00  0.00     0.288 C 
HETATM    7  O   UNK N   1      35.733  14.434   9.088  0.00  0.00    -0.388 OA
HETATM    8  O   UNK N   1      35.325  17.362   9.967  0.00  0.00    -0.351 OA
HETATM    9  H   UNK N   1      36.257  14.290   8.285  0.00  0.00     0.210 HD
ENDROOT
BRANCH   4  10
HETATM   10  O   UNK N   1      32.983  13.874   9.563  0.00  0.00    -0.390 OA
HETATM   11  H   UNK N   1      32.870  13.684   8.620  0.00  0.00     0.210 HD
ENDBRANCH   4  10
BRANCH   6  12
HETATM   12  O   UNK N   1      37.027  16.120  10.918  0.00  0.00    -0.369 OA
HETATM   13  H   UNK N   1      37.604  16.537  11.577  0.00  0.00     0.212 HD
ENDBRANCH   6  12
BRANCH   3  14
HETATM   14  O   UNK N   1      32.838  15.783   7.804  0.00  0.00    -0.390 OA
HETATM   15  H   UNK N   1      32.152  16.160   7.231  0.00  0.00     0.210 HD
ENDBRANCH   3  14
TORSDOF 3
ENDMDL
MODEL 3
REMARK VINA RESULT:      -4.7      1.450      2.076
REMARK  3 active torsions:
REMARK  status: ('A' for Active; 'I' for Inactive)
REMARK    1  A    between atoms: C_3  and  O_7 
REMARK    2  A    between atoms: C_4  and  O_8 
REMARK    3  A    between atoms: C_6  and  O_10 
ROOT
HETATM    1  C   UNK N   1      24.543  20.362   3.114  0.00  0.00     0.042 C 
HETATM    2  C   UNK N   1      23.029  20.271   3.084  0.00  0.00     0.152 C 
HETATM    3  C   UNK N   1      22.585  18.831   3.446  0.00  0.00     0.178 C 
HETATM    4  C   UNK N   1      21.093  18.576   3.119  0.00  0.00     0.182 C 
HETATM    5  C   UNK N   1      20.366  19.875   2.768  0.00  0.00     0.204 C 
HETATM    6  C   UNK N   1      21.162  20.537   1.612  0.00  0.00     0.288 C 
HETATM    7  O   UNK N   1      20.288  20.719   3.881  0.00  0.00    -0.388 OA
HETATM    8  O   UNK N   1      22.569  20.681   1.805  0.00  0.00    -0.351 OA
HETATM    9  H   UNK N   1      20.336  21.402   4.567  0.00  0.00     0.210 HD
ENDROOT
BRANCH   4  10
HETATM   10  O   UNK N   1      20.438  17.889   4.146  0.00  0.00    -0.390 OA
HETATM   11  H   UNK N   1      19.687  17.304   3.963  0.00  0.00     0.210 HD
ENDBRANCH   4  10
BRANCH   6  12
HETATM   12  O   UNK N   1      20.597  21.777   1.301  0.00  0.00    -0.369 OA
HETATM   13  H   UNK N   1      20.528  22.234   0.448  0.00  0.00     0.212 HD
ENDBRANCH   6  12
BRANCH   3  14
HETATM   14  O   UNK N   1      22.847  18.611   4.804  0.00  0.00    -0.390 OA
HETATM   15  H   UNK N   1      23.356  19.146   5.433  0.00  0.00     0.210 HD
ENDBRANCH   3  14
TORSDOF 3
ENDMDL
MODEL 4
REMARK VINA RESULT:      -4.6     20.791     22.419
REMARK  3 active torsions:
REMARK  status: ('A' for Active; 'I' for Inactive)
REMARK    1  A    between atoms: C_3  and  O_7 
REMARK    2  A    between atoms: C_4  and  O_8 
REMARK    3  A    between atoms: C_6  and  O_10 
ROOT
HETATM    1  C   UNK N   1      41.674  20.106   3.396  0.00  0.00     0.042 C 
HETATM    2  C   UNK N   1      42.528  21.357   3.294  0.00  0.00     0.152 C 
HETATM    3  C   UNK N   1      42.163  22.135   2.004  0.00  0.00     0.178 C 
HETATM    4  C   UNK N   1      43.204  23.231   1.664  0.00  0.00     0.182 C 
HETATM    5  C   UNK N   1      44.187  23.448   2.815  0.00  0.00     0.204 C 
HETATM    6  C   UNK N   1      44.809  22.063   3.142  0.00  0.00     0.288 C 
HETATM    7  O   UNK N   1      43.537  23.989   3.930  0.00  0.00    -0.388 OA
HETATM    8  O   UNK N   1      43.898  20.983   3.339  0.00  0.00    -0.351 OA
HETATM    9  H   UNK N   1      43.119  24.219   4.774  0.00  0.00     0.210 HD
ENDROOT
BRANCH   4  10
HETATM   10  O   UNK N   1      42.599  24.431   1.279  0.00  0.00    -0.390 OA
HETATM   11  H   UNK N   1      43.114  25.152   0.885  0.00  0.00     0.210 HD
ENDBRANCH   4  10
BRANCH   6  12
HETATM   12  O   UNK N   1      45.655  22.178   4.249  0.00  0.00    -0.369 OA
HETATM   13  H   UNK N   1      46.055  21.487   4.801  0.00  0.00     0.212 HD
ENDBRANCH   6  12
BRANCH   3  14
HETATM   14  O   UNK N   1      40.886  22.687   2.162  0.00  0.00    -0.390 OA
HETATM   15  H   UNK N   1      40.455  23.407   1.676  0.00  0.00     0.210 HD
ENDBRANCH   3  14
TORSDOF 3
ENDMDL
MODEL 5
REMARK VINA RESULT:      -4.6     16.140     17.895
REMARK  3 active torsions:
REMARK  status: ('A' for Active; 'I' for Inactive)
REMARK    1  A    between atoms: C_3  and  O_7 
REMARK    2  A    between atoms: C_4  and  O_8 
REMARK    3  A    between atoms: C_6  and  O_10 
ROOT
HETATM    1  C   UNK N   1      36.973  11.520  12.695  0.00  0.00     0.042 C 
HETATM    2  C   UNK N   1      36.660  12.877  12.089  0.00  0.00     0.152 C 
HETATM    3  C   UNK N   1      35.142  12.981  11.799  0.00  0.00     0.178 C 
HETATM    4  C   UNK N   1      34.798  14.188  10.890  0.00  0.00     0.182 C 
HETATM    5  C   UNK N   1      35.998  15.120  10.719  0.00  0.00     0.204 C 
HETATM    6  C   UNK N   1      37.173  14.250  10.199  0.00  0.00     0.288 C 
HETATM    7  O   UNK N   1      36.323  15.742  11.930  0.00  0.00    -0.388 OA
HETATM    8  O   UNK N   1      37.454  13.054  10.925  0.00  0.00    -0.351 OA
HETATM    9  H   UNK N   1      36.686  16.082  12.762  0.00  0.00     0.210 HD
ENDROOT
BRANCH   4  10
HETATM   10  O   UNK N   1      33.673  14.884  11.341  0.00  0.00    -0.390 OA
HETATM   11  H   UNK N   1      33.206  14.621  12.148  0.00  0.00     0.210 HD
ENDBRANCH   4  10
BRANCH   6  12
HETATM   12  O   UNK N   1      38.330  15.029  10.105  0.00  0.00    -0.369 OA
HETATM   13  H   UNK N   1      38.842  15.471  10.801  0.00  0.00     0.212 HD
ENDBRANCH   6  12
BRANCH   3  14
HETATM   14  O   UNK N   1      34.459  13.061  13.019  0.00  0.00    -0.390 OA
HETATM   15  H   UNK N   1      33.531  12.865  13.227  0.00  0.00     0.210 HD
ENDBRANCH   3  14
TORSDOF 3
ENDMDL
MODEL 6
REMARK VINA RESULT:      -4.6      1.204      3.104
REMARK  3 active torsions:
REMARK  status: ('A' for Active; 'I' for Inactive)
REMARK    1  A    between atoms: C_3  and  O_7 
REMARK    2  A    between atoms: C_4  and  O_8 
REMARK    3  A    between atoms: C_6  and  O_10 
ROOT
HETATM    1  C   UNK N   1      22.584  17.061   3.896  0.00  0.00     0.042 C 
HETATM    2  C   UNK N   1      21.763  18.078   3.124  0.00  0.00     0.152 C 
HETATM    3  C   UNK N   1      22.106  19.507   3.613  0.00  0.00     0.178 C 
HETATM    4  C   UNK N   1      21.085  20.560   3.115  0.00  0.00     0.182 C 
HETATM    5  C   UNK N   1      20.148  19.976   2.057  0.00  0.00     0.204 C 
HETATM    6  C   UNK N   1      19.499  18.712   2.681  0.00  0.00     0.288 C 
HETATM    7  O   UNK N   1      20.850  19.663   0.888  0.00  0.00    -0.388 OA
HETATM    8  O   UNK N   1      20.385  17.763   3.273  0.00  0.00    -0.351 OA
HETATM    9  H   UNK N   1      21.302  19.289   0.116  0.00  0.00     0.210 HD
ENDROOT
BRANCH   4  10
HETATM   10  O   UNK N   1      21.710  21.723   2.654  0.00  0.00    -0.390 OA
HETATM   11  H   UNK N   1      22.501  21.684   2.094  0.00  0.00     0.210 HD
ENDBRANCH   4  10
BRANCH   6  12
HETATM   12  O   UNK N   1      18.694  18.078   1.729  0.00  0.00    -0.369 OA
HETATM   13  H   UNK N   1      18.936  17.663   0.886  0.00  0.00     0.212 HD
ENDBRANCH   6  12
BRANCH   3  14
HETATM   14  O   UNK N   1      23.403  19.824   3.191  0.00  0.00    -0.390 OA
HETATM   15  H   UNK N   1      24.134  19.240   2.937  0.00  0.00     0.210 HD
ENDBRANCH   3  14
TORSDOF 3
ENDMDL
MODEL 7
REMARK VINA RESULT:      -4.5     13.292     13.952
REMARK  3 active torsions:
REMARK  status: ('A' for Active; 'I' for Inactive)
REMARK    1  A    between atoms: C_3  and  O_7 
REMARK    2  A    between atoms: C_4  and  O_8 
REMARK    3  A    between atoms: C_6  and  O_10 
ROOT
HETATM    1  C   UNK N   1      34.161  16.031   5.120  0.00  0.00     0.042 C 
HETATM    2  C   UNK N   1      34.202  16.420   6.587  0.00  0.00     0.152 C 
HETATM    3  C   UNK N   1      32.964  15.840   7.316  0.00  0.00     0.178 C 
HETATM    4  C   UNK N   1      32.764  16.461   8.721  0.00  0.00     0.182 C 
HETATM    5  C   UNK N   1      33.975  17.293   9.143  0.00  0.00     0.204 C 
HETATM    6  C   UNK N   1      34.219  18.335   8.019  0.00  0.00     0.288 C 
HETATM    7  O   UNK N   1      35.098  16.479   9.333  0.00  0.00    -0.388 OA
HETATM    8  O   UNK N   1      34.283  17.835   6.685  0.00  0.00    -0.351 OA
HETATM    9  H   UNK N   1      35.936  15.992   9.332  0.00  0.00     0.210 HD
ENDROOT
BRANCH   4  10
HETATM   10  O   UNK N   1      32.449  15.497   9.684  0.00  0.00    -0.390 OA
HETATM   11  H   UNK N   1      32.256  14.580   9.436  0.00  0.00     0.210 HD
ENDBRANCH   4  10
BRANCH   6  12
HETATM   12  O   UNK N   1      35.371  19.074   8.304  0.00  0.00    -0.369 OA
HETATM   13  H   UNK N   1      35.814  19.234   9.153  0.00  0.00     0.212 HD
ENDBRANCH   6  12
BRANCH   3  14
HETATM   14  O   UNK N   1      33.104  14.449   7.396  0.00  0.00    -0.390 OA
HETATM   15  H   UNK N   1      33.188  13.876   8.175  0.00  0.00     0.210 HD
ENDBRANCH   3  14
TORSDOF 3
ENDMDL
MODEL 8
REMARK VINA RESULT:      -4.5      8.657     10.308
REMARK  3 active torsions:
REMARK  status: ('A' for Active; 'I' for Inactive)
REMARK    1  A    between atoms: C_3  and  O_7 
REMARK    2  A    between atoms: C_4  and  O_8 
REMARK    3  A    between atoms: C_6  and  O_10 
ROOT
HETATM    1  C   UNK N   1      20.407  13.437  10.180  0.00  0.00     0.042 C 
HETATM    2  C   UNK N   1      21.880  13.073  10.223  0.00  0.00     0.152 C 
HETATM    3  C   UNK N   1      22.266  12.305   8.934  0.00  0.00     0.178 C 
HETATM    4  C   UNK N   1      23.651  11.621   9.050  0.00  0.00     0.182 C 
HETATM    5  C   UNK N   1      24.403  12.084  10.298  0.00  0.00     0.204 C 
HETATM    6  C   UNK N   1      23.466  11.827  11.509  0.00  0.00     0.288 C 
HETATM    7  O   UNK N   1      24.746  13.438  10.199  0.00  0.00    -0.388 OA
HETATM    8  O   UNK N   1      22.133  12.325  11.404  0.00  0.00    -0.351 OA
HETATM    9  H   UNK N   1      24.875  14.396  10.254  0.00  0.00     0.210 HD
ENDROOT
BRANCH   4  10
HETATM   10  O   UNK N   1      24.423  11.794   7.898  0.00  0.00    -0.390 OA
HETATM   11  H   UNK N   1      25.390  11.740   7.926  0.00  0.00     0.210 HD
ENDBRANCH   4  10
BRANCH   6  12
HETATM   12  O   UNK N   1      24.063  12.313  12.676  0.00  0.00    -0.369 OA
HETATM   13  H   UNK N   1      24.175  13.225  12.985  0.00  0.00     0.212 HD
ENDBRANCH   6  12
BRANCH   3  14
HETATM   14  O   UNK N   1      22.235  13.199   7.856  0.00  0.00    -0.390 OA
HETATM   15  H   UNK N   1      22.905  13.376   7.177  0.00  0.00     0.210 HD
ENDBRANCH   3  14
TORSDOF 3
ENDMDL
MODEL 9
REMARK VINA RESULT:      -4.4     12.792     14.118
REMARK  3 active torsions:
REMARK  status: ('A' for Active; 'I' for Inactive)
REMARK    1  A    between atoms: C_3  and  O_7 
REMARK    2  A    between atoms: C_4  and  O_8 
REMARK    3  A    between atoms: C_6  and  O_10 
ROOT
HETATM    1  C   UNK N   1      35.861  14.484   9.647  0.00  0.00     0.042 C 
HETATM    2  C   UNK N   1      34.809  15.487   9.210  0.00  0.00     0.152 C 
HETATM    3  C   UNK N   1      33.400  14.960   9.578  0.00  0.00     0.178 C 
HETATM    4  C   UNK N   1      32.272  15.759   8.880  0.00  0.00     0.182 C 
HETATM    5  C   UNK N   1      32.812  17.025   8.213  0.00  0.00     0.204 C 
HETATM    6  C   UNK N   1      33.954  16.579   7.261  0.00  0.00     0.288 C 
HETATM    7  O   UNK N   1      33.274  17.935   9.170  0.00  0.00    -0.388 OA
HETATM    8  O   UNK N   1      34.957  15.731   7.818  0.00  0.00    -0.351 OA
HETATM    9  H   UNK N   1      33.743  18.533   9.771  0.00  0.00     0.210 HD
ENDROOT
BRANCH   4  10
HETATM   10  O   UNK N   1      31.218  16.054   9.750  0.00  0.00    -0.390 OA
HETATM   11  H   UNK N   1      30.630  16.809   9.594  0.00  0.00     0.210 HD
ENDBRANCH   4  10
BRANCH   6  12
HETATM   12  O   UNK N   1      34.551  17.703   6.683  0.00  0.00    -0.369 OA
HETATM   13  H   UNK N   1      34.429  18.089   5.801  0.00  0.00     0.212 HD
ENDBRANCH   6  12
BRANCH   3  14
HETATM   14  O   UNK N   1      33.257  15.001  10.971  0.00  0.00    -0.390 OA
HETATM   15  H   UNK N   1      33.384  15.740  11.587  0.00  0.00     0.210 HD
ENDBRANCH   3  14
TORSDOF 3
ENDMDL
