REMARK  14 active torsions:
REMARK  status: ('A' for Active; 'I' for Inactive)
REMARK    1  A    between atoms: C_8  and  C_5 
REMARK    2  A    between atoms: C_9  and  C_5 
REMARK    3  A    between atoms: C_14  and  C_8 
REMARK    4  A    between atoms: N_22  and  C_9 
REMARK    5  A    between atoms: C_15  and  C_10 
REMARK    6  A    between atoms: C_13  and  C_11 
REMARK    7  A    between atoms: O_30  and  C_11 
REMARK    8  A    between atoms: C_15  and  C_12 
REMARK    9  A    between atoms: N_23  and  C_12 
REMARK   10  A    between atoms: C_16  and  C_14 
REMARK   11  A    between atoms: C_14  and  N_25 
REMARK   12  A    between atoms: C_16  and  O_28 
REMARK       I    between atoms: N_20  and  C_17 
REMARK       I    between atoms: N_21  and  C_17 
REMARK       I    between atoms: N_22  and  C_17 
REMARK   13  A    between atoms: C_18  and  O_29 
REMARK   14  A    between atoms: O_30  and  C_18 
ROOT
HETATM    1  C   UNK N   1       5.329   0.997   1.262  0.00  0.00     0.160 C 
ENDROOT
BRANCH   1   2
HETATM    2  C   UNK N   1       6.743   1.583   1.214  0.00  0.00     0.035 C 
BRANCH   2   3
HETATM    3  C   UNK N   1       7.448   1.466  -0.126  0.00  0.00     0.022 C 
BRANCH   3   4
HETATM    4  C   UNK N   1       8.294   0.202  -0.095  0.00  0.00     0.117 C 
BRANCH   4   5
HETATM    5  N   UNK N   1       9.405   0.304  -1.027  0.00  0.00    -0.387 N 
HETATM    6  C   UNK N   1      10.502   0.948  -0.321  0.00  0.00     0.270 C 
HETATM    7  N   UNK N   1      10.854   2.181  -0.999  0.00  0.00    -0.396 N 
HETATM    8  N   UNK N   1      11.653   0.064  -0.295  0.00  0.00    -0.396 N 
HETATM    9  H   UNK N   1      11.729   2.401  -1.475  0.00  0.00     0.153 HD
HETATM   10  H   UNK N   1      10.144   2.914  -0.999  0.00  0.00     0.153 HD
HETATM   11  H   UNK N   1      11.520  -0.947  -0.278  0.00  0.00     0.153 HD
HETATM   12  H   UNK N   1      12.596   0.454  -0.295  0.00  0.00     0.153 HD
HETATM   13  H   UNK N   1       9.414  -0.016  -1.995  0.00  0.00     0.157 HD
ENDBRANCH   4   5
ENDBRANCH   3   4
ENDBRANCH   2   3
ENDBRANCH   1   2
BRANCH   1  14
HETATM   14  C   UNK N   1       4.271   2.040   0.971  0.00  0.00     0.135 C 
HETATM   15  N   UNK N   1       4.209   2.657  -0.164  0.00  0.00    -0.362 N 
ATOM     16  HN  UNK N   1       4.897   2.445  -0.887  1.00  0.00     0.162 HD
BRANCH  15  17
HETATM   17  C   UNK N   1       3.175   3.650  -0.430  0.00  0.00     0.151 C 
HETATM   18  C   UNK N   1       3.514   4.410  -1.698  0.00  0.00     0.040 C 
BRANCH  17  19
HETATM   19  C   UNK N   1       1.808   3.014  -0.569  0.00  0.00     0.177 C 
HETATM   20  O   UNK N   1       1.684   1.798  -0.565  0.00  0.00    -0.293 OA
BRANCH  19  21
HETATM   21  C   UNK N   1       0.590   3.870  -0.694  0.00  0.00     0.302 C 
HETATM   22  F   UNK N   1      -0.266   3.610   0.363  0.00  0.00    -0.247 F 
ENDBRANCH  19  21
ENDBRANCH  17  19
ENDBRANCH  15  17
BRANCH  14  23
HETATM   23  O   UNK N   1       3.382   2.330   1.948  0.00  0.00    -0.348 OA
HETATM   24  H   UNK N   1       3.249   2.964   2.625  0.00  0.00     0.219 HD
ENDBRANCH  14  23
ENDBRANCH   1  14
BRANCH   1  25
HETATM   25  N   UNK N   1       5.200  -0.225   0.474  0.00  0.00    -0.338 N 
HETATM   26  C   UNK N   1       4.112  -0.919   0.434  0.00  0.00     0.259 C 
ATOM     27  HN  UNK N   1       6.003  -0.544  -0.069  1.00  0.00     0.164 HD
BRANCH  26  28
HETATM   28  O   UNK N   1       2.994  -0.468   1.055  0.00  0.00    -0.327 OA
HETATM   29  H   UNK N   1       2.877   0.357   1.484  0.00  0.00     0.221 HD
ENDBRANCH  26  28
BRANCH  26  30
HETATM   30  O   UNK N   1       4.087  -2.126  -0.181  0.00  0.00    -0.312 OA
BRANCH  30  31
HETATM   31  C   UNK N   1       2.935  -2.886  -0.148  0.00  0.00     0.218 C 
BRANCH  31  32
HETATM   32  C   UNK N   1       3.166  -4.358  -0.285  0.00  0.00    -0.034 A 
HETATM   33  C   UNK N   1       4.199  -4.866  -1.084  0.00  0.00     0.009 A 
HETATM   34  C   UNK N   1       4.325  -6.248  -1.270  0.00  0.00     0.001 A 
HETATM   35  C   UNK N   1       3.412  -7.123  -0.672  0.00  0.00     0.000 A 
HETATM   36  C   UNK N   1       2.378  -6.619   0.121  0.00  0.00     0.001 A 
HETATM   37  C   UNK N   1       2.254  -5.239   0.310  0.00  0.00     0.009 A 
ENDBRANCH  31  32
ENDBRANCH  30  31
ENDBRANCH  26  30
ENDBRANCH   1  25
TORSDOF 14
