REMARK  2 active torsions:
REMARK  status: ('A' for Active; 'I' for Inactive)
REMARK    1  A    between atoms: C_2  and  S_3 
REMARK    2  A    between atoms: S_3  and  O_4 
ROOT
HETATM    1  S   UNK N   1       0.970   0.201   0.543  0.00  0.00     0.093 S 
HETATM    2  O   UNK N   1       2.222   0.348  -0.336  0.00  0.00    -0.601 OA
HETATM    3  O   UNK N   1      -0.128   0.193  -0.534  0.00  0.00    -0.601 OA
ENDROOT
BRANCH   1   4
HETATM    4  C   UNK N   1       1.141  -1.311  -0.460  0.00  0.00     0.151 C 
HETATM    5  C   UNK N   1       0.409  -2.474   0.192  0.00  0.00     0.023 C 
ENDBRANCH   1   4
BRANCH   1   6
HETATM    6  O   UNK N   1       0.869   1.845   0.055  0.00  0.00    -0.296 OA
HETATM    7  H   UNK N   1       1.645   2.358  -0.220  0.00  0.00     0.232 HD
ENDBRANCH   1   6
TORSDOF 2
