MODEL 1
REMARK VINA RESULT:      -2.5      0.000      0.000
REMARK  3 active torsions:
REMARK  status: ('A' for Active; 'I' for Inactive)
REMARK    1  A    between atoms: O_1  and  C_2 
REMARK    2  A    between atoms: C_2  and  C_3 
REMARK    3  A    between atoms: C_3  and  S_4 
ROOT
HETATM    1  C   UNK N   1      20.771  20.715   1.286  0.00  0.00     0.174 C 
ENDROOT
BRANCH   1   2
HETATM    2  O   UNK N   1      20.614  20.602  -0.093  0.00  0.00    -0.400 OA
HETATM    3  H   UNK N   1      20.759  19.749  -0.530  0.00  0.00     0.209 HD
ENDBRANCH   1   2
BRANCH   1   4
HETATM    4  C   UNK N   1      20.569  19.363   1.934  0.00  0.00     0.096 C 
BRANCH   4   5
HETATM    5  S   UNK N   1      21.014  19.486   3.687  0.00  0.00    -0.180 SA
HETATM    6  H   UNK N   1      20.062  19.310   4.644  0.00  0.00     0.101 HD
ENDBRANCH   4   5
ENDBRANCH   1   4
TORSDOF 3
ENDMDL
MODEL 2
REMARK VINA RESULT:      -2.4     13.423     13.716
REMARK  3 active torsions:
REMARK  status: ('A' for Active; 'I' for Inactive)
REMARK    1  A    between atoms: O_1  and  C_2 
REMARK    2  A    between atoms: C_2  and  C_3 
REMARK    3  A    between atoms: C_3  and  S_4 
ROOT
HETATM    1  C   UNK N   1      23.057  11.823  13.068  0.00  0.00     0.174 C 
ENDROOT
BRANCH   1   2
HETATM    2  O   UNK N   1      23.917  12.521  13.913  0.00  0.00    -0.400 OA
HETATM    3  H   UNK N   1      23.634  12.749  14.812  0.00  0.00     0.209 HD
ENDBRANCH   1   2
BRANCH   1   4
HETATM    4  C   UNK N   1      23.524  11.963  11.636  0.00  0.00     0.096 C 
BRANCH   4   5
HETATM    5  S   UNK N   1      22.099  12.382  10.597  0.00  0.00    -0.180 SA
HETATM    6  H   UNK N   1      20.836  12.175  11.061  0.00  0.00     0.101 HD
ENDBRANCH   4   5
ENDBRANCH   1   4
TORSDOF 3
ENDMDL
MODEL 3
REMARK VINA RESULT:      -2.3     12.503     12.636
REMARK  3 active torsions:
REMARK  status: ('A' for Active; 'I' for Inactive)
REMARK    1  A    between atoms: O_1  and  C_2 
REMARK    2  A    between atoms: C_2  and  C_3 
REMARK    3  A    between atoms: C_3  and  S_4 
ROOT
HETATM    1  C   UNK N   1      24.422  12.269  10.588  0.00  0.00     0.174 C 
ENDROOT
BRANCH   1   2
HETATM    2  O   UNK N   1      25.474  12.819  11.317  0.00  0.00    -0.400 OA
HETATM    3  H   UNK N   1      25.535  13.780  11.431  0.00  0.00     0.209 HD
ENDBRANCH   1   2
BRANCH   1   4
HETATM    4  C   UNK N   1      23.260  11.977  11.511  0.00  0.00     0.096 C 
BRANCH   4   5
HETATM    5  S   UNK N   1      21.716  12.358  10.641  0.00  0.00    -0.180 SA
HETATM    6  H   UNK N   1      20.665  12.888  11.324  0.00  0.00     0.101 HD
ENDBRANCH   4   5
ENDBRANCH   1   4
TORSDOF 3
ENDMDL
MODEL 4
REMARK VINA RESULT:      -2.3      2.164      2.164
REMARK  3 active torsions:
REMARK  status: ('A' for Active; 'I' for Inactive)
REMARK    1  A    between atoms: O_1  and  C_2 
REMARK    2  A    between atoms: C_2  and  C_3 
REMARK    3  A    between atoms: C_3  and  S_4 
ROOT
HETATM    1  C   UNK N   1      21.042  20.818   2.289  0.00  0.00     0.174 C 
ENDROOT
BRANCH   1   2
HETATM    2  O   UNK N   1      21.974  21.730   2.779  0.00  0.00    -0.400 OA
HETATM    3  H   UNK N   1      22.430  21.555   3.617  0.00  0.00     0.209 HD
ENDBRANCH   1   2
BRANCH   1   4
HETATM    4  C   UNK N   1      20.539  19.947   3.419  0.00  0.00     0.096 C 
BRANCH   4   5
HETATM    5  S   UNK N   1      19.644  18.538   2.712  0.00  0.00    -0.180 SA
HETATM    6  H   UNK N   1      18.797  18.728   1.664  0.00  0.00     0.101 HD
ENDBRANCH   4   5
ENDBRANCH   1   4
TORSDOF 3
ENDMDL
MODEL 5
REMARK VINA RESULT:      -2.3     14.853     14.926
REMARK  3 active torsions:
REMARK  status: ('A' for Active; 'I' for Inactive)
REMARK    1  A    between atoms: O_1  and  C_2 
REMARK    2  A    between atoms: C_2  and  C_3 
REMARK    3  A    between atoms: C_3  and  S_4 
ROOT
HETATM    1  C   UNK N   1      34.684  17.999   8.487  0.00  0.00     0.174 C 
ENDROOT
BRANCH   1   2
HETATM    2  O   UNK N   1      35.296  19.250   8.513  0.00  0.00    -0.400 OA
HETATM    3  H   UNK N   1      35.110  19.895   7.815  0.00  0.00     0.209 HD
ENDBRANCH   1   2
BRANCH   1   4
HETATM    4  C   UNK N   1      33.573  17.996   7.461  0.00  0.00     0.096 C 
BRANCH   4   5
HETATM    5  S   UNK N   1      32.003  17.665   8.304  0.00  0.00    -0.180 SA
HETATM    6  H   UNK N   1      30.839  17.670   7.600  0.00  0.00     0.101 HD
ENDBRANCH   4   5
ENDBRANCH   1   4
TORSDOF 3
ENDMDL
MODEL 6
REMARK VINA RESULT:      -2.1     11.950     12.100
REMARK  3 active torsions:
REMARK  status: ('A' for Active; 'I' for Inactive)
REMARK    1  A    between atoms: O_1  and  C_2 
REMARK    2  A    between atoms: C_2  and  C_3 
REMARK    3  A    between atoms: C_3  and  S_4 
ROOT
HETATM    1  C   UNK N   1      32.460  21.459  -3.224  0.00  0.00     0.174 C 
ENDROOT
BRANCH   1   2
HETATM    2  O   UNK N   1      32.821  21.115  -1.924  0.00  0.00    -0.400 OA
HETATM    3  H   UNK N   1      33.512  20.452  -1.772  0.00  0.00     0.209 HD
ENDBRANCH   1   2
BRANCH   1   4
HETATM    4  C   UNK N   1      30.952  21.457  -3.352  0.00  0.00     0.096 C 
BRANCH   4   5
HETATM    5  S   UNK N   1      30.290  22.888  -2.458  0.00  0.00    -0.180 SA
HETATM    6  H   UNK N   1      30.931  24.086  -2.523  0.00  0.00     0.101 HD
ENDBRANCH   4   5
ENDBRANCH   1   4
TORSDOF 3
ENDMDL
MODEL 7
REMARK VINA RESULT:      -2.1     23.829     23.886
REMARK  3 active torsions:
REMARK  status: ('A' for Active; 'I' for Inactive)
REMARK    1  A    between atoms: O_1  and  C_2 
REMARK    2  A    between atoms: C_2  and  C_3 
REMARK    3  A    between atoms: C_3  and  S_4 
ROOT
HETATM    1  C   UNK N   1      44.955  21.418   3.877  0.00  0.00     0.174 C 
ENDROOT
BRANCH   1   2
HETATM    2  O   UNK N   1      45.870  22.410   4.221  0.00  0.00    -0.400 OA
HETATM    3  H   UNK N   1      46.534  22.241   4.907  0.00  0.00     0.209 HD
ENDBRANCH   1   2
BRANCH   1   4
HETATM    4  C   UNK N   1      43.551  21.893   4.177  0.00  0.00     0.096 C 
BRANCH   4   5
HETATM    5  S   UNK N   1      42.903  22.750   2.716  0.00  0.00    -0.180 SA
HETATM    6  H   UNK N   1      42.324  23.974   2.848  0.00  0.00     0.101 HD
ENDBRANCH   4   5
ENDBRANCH   1   4
TORSDOF 3
ENDMDL
MODEL 8
REMARK VINA RESULT:      -2.1     17.066     17.098
REMARK  3 active torsions:
REMARK  status: ('A' for Active; 'I' for Inactive)
REMARK    1  A    between atoms: O_1  and  C_2 
REMARK    2  A    between atoms: C_2  and  C_3 
REMARK    3  A    between atoms: C_3  and  S_4 
ROOT
HETATM    1  C   UNK N   1      34.647  14.972  11.235  0.00  0.00     0.174 C 
ENDROOT
BRANCH   1   2
HETATM    2  O   UNK N   1      33.259  15.030  11.145  0.00  0.00    -0.400 OA
HETATM    3  H   UNK N   1      32.768  15.698  11.648  0.00  0.00     0.209 HD
ENDBRANCH   1   2
BRANCH   1   4
HETATM    4  C   UNK N   1      35.237  16.326  10.908  0.00  0.00     0.096 C 
BRANCH   4   5
HETATM    5  S   UNK N   1      34.588  16.872   9.306  0.00  0.00    -0.180 SA
HETATM    6  H   UNK N   1      34.776  16.102   8.199  0.00  0.00     0.101 HD
ENDBRANCH   4   5
ENDBRANCH   1   4
TORSDOF 3
ENDMDL
MODEL 9
REMARK VINA RESULT:      -2.1     10.705     10.913
REMARK  3 active torsions:
REMARK  status: ('A' for Active; 'I' for Inactive)
REMARK    1  A    between atoms: O_1  and  C_2 
REMARK    2  A    between atoms: C_2  and  C_3 
REMARK    3  A    between atoms: C_3  and  S_4 
ROOT
HETATM    1  C   UNK N   1      29.387  23.021  -2.211  0.00  0.00     0.174 C 
ENDROOT
BRANCH   1   2
HETATM    2  O   UNK N   1      30.525  22.995  -1.408  0.00  0.00    -0.400 OA
HETATM    3  H   UNK N   1      30.893  22.147  -1.116  0.00  0.00     0.209 HD
ENDBRANCH   1   2
BRANCH   1   4
HETATM    4  C   UNK N   1      29.776  22.787  -3.654  0.00  0.00     0.096 C 
BRANCH   4   5
HETATM    5  S   UNK N   1      30.635  21.195  -3.774  0.00  0.00    -0.180 SA
HETATM    6  H   UNK N   1      30.294  20.175  -2.941  0.00  0.00     0.101 HD
ENDBRANCH   4   5
ENDBRANCH   1   4
TORSDOF 3
ENDMDL
