MODEL 1
REMARK VINA RESULT:      -2.9      0.000      0.000
REMARK  0 active torsions:
REMARK  status: ('A' for Active; 'I' for Inactive)
ROOT
HETATM    1  C   UNK N   1      17.535  18.876  10.918  0.00  0.00     0.180 A 
HETATM    2  N   UNK N   1      17.574  17.898   9.994  0.00  0.00    -0.361 N 
ATOM      3  HN  UNK N   1      16.852  17.204   9.801  1.00  0.00     0.166 HD
HETATM    4  C   UNK N   1      18.762  18.024   9.378  0.00  0.00     0.105 A 
HETATM    5  C   UNK N   1      19.434  19.087   9.941  0.00  0.00     0.105 A 
HETATM    6  N   UNK N   1      18.661  19.615  10.904  0.00  0.00    -0.361 N 
HETATM    7  H   UNK N   1      18.872  20.385  11.482  0.00  0.00     0.166 HD
ENDROOT
TORSDOF 0
ENDMDL
MODEL 2
REMARK VINA RESULT:      -2.9      7.742      8.199
REMARK  0 active torsions:
REMARK  status: ('A' for Active; 'I' for Inactive)
ROOT
HETATM    1  C   UNK N   1      23.086  11.883  12.559  0.00  0.00     0.180 A 
HETATM    2  N   UNK N   1      23.951  12.369  11.649  0.00  0.00    -0.361 N 
ATOM      3  HN  UNK N   1      24.943  12.564  11.787  1.00  0.00     0.166 HD
HETATM    4  C   UNK N   1      23.238  12.543  10.523  0.00  0.00     0.105 A 
HETATM    5  C   UNK N   1      21.939  12.157  10.766  0.00  0.00     0.105 A 
HETATM    6  N   UNK N   1      21.850  11.745  12.042  0.00  0.00    -0.361 N 
HETATM    7  H   UNK N   1      21.047  11.411  12.505  0.00  0.00     0.166 HD
ENDROOT
TORSDOF 0
ENDMDL
MODEL 3
REMARK VINA RESULT:      -2.8      8.141      8.523
REMARK  0 active torsions:
REMARK  status: ('A' for Active; 'I' for Inactive)
ROOT
HETATM    1  C   UNK N   1      20.868  20.621   1.291  0.00  0.00     0.180 A 
HETATM    2  N   UNK N   1      20.299  19.403   1.354  0.00  0.00    -0.361 N 
ATOM      3  HN  UNK N   1      20.108  18.772   0.576  1.00  0.00     0.166 HD
HETATM    4  C   UNK N   1      20.033  19.190   2.655  0.00  0.00     0.105 A 
HETATM    5  C   UNK N   1      20.448  20.291   3.370  0.00  0.00     0.105 A 
HETATM    6  N   UNK N   1      20.970  21.183   2.511  0.00  0.00    -0.361 N 
HETATM    7  H   UNK N   1      21.349  22.066   2.727  0.00  0.00     0.166 HD
ENDROOT
TORSDOF 0
ENDMDL
MODEL 4
REMARK VINA RESULT:      -2.7     26.326     27.078
REMARK  0 active torsions:
REMARK  status: ('A' for Active; 'I' for Inactive)
ROOT
HETATM    1  C   UNK N   1      44.327  23.455   2.825  0.00  0.00     0.180 A 
HETATM    2  N   UNK N   1      45.095  22.350   2.828  0.00  0.00    -0.361 N 
ATOM      3  HN  UNK N   1      45.788  22.080   2.129  1.00  0.00     0.166 HD
HETATM    4  C   UNK N   1      44.761  21.675   3.942  0.00  0.00     0.105 A 
HETATM    5  C   UNK N   1      43.786  22.385   4.606  0.00  0.00     0.105 A 
HETATM    6  N   UNK N   1      43.519  23.499   3.902  0.00  0.00    -0.361 N 
HETATM    7  H   UNK N   1      42.867  24.202   4.126  0.00  0.00     0.166 HD
ENDROOT
TORSDOF 0
ENDMDL
MODEL 5
REMARK VINA RESULT:      -2.6      8.008      8.514
REMARK  0 active torsions:
REMARK  status: ('A' for Active; 'I' for Inactive)
ROOT
HETATM    1  C   UNK N   1      24.744  13.042   9.924  0.00  0.00     0.180 A 
HETATM    2  N   UNK N   1      25.019  12.348  11.044  0.00  0.00    -0.361 N 
ATOM      3  HN  UNK N   1      25.941  12.127  11.420  1.00  0.00     0.166 HD
HETATM    4  C   UNK N   1      23.827  12.006  11.564  0.00  0.00     0.105 A 
HETATM    5  C   UNK N   1      22.836  12.501  10.746  0.00  0.00     0.105 A 
HETATM    6  N   UNK N   1      23.417  13.148   9.721  0.00  0.00    -0.361 N 
HETATM    7  H   UNK N   1      22.966  13.607   8.974  0.00  0.00     0.166 HD
ENDROOT
TORSDOF 0
ENDMDL
MODEL 6
REMARK VINA RESULT:      -2.6      8.016      8.491
REMARK  0 active torsions:
REMARK  status: ('A' for Active; 'I' for Inactive)
ROOT
HETATM    1  C   UNK N   1      19.770  19.214   2.715  0.00  0.00     0.180 A 
HETATM    2  N   UNK N   1      20.347  20.214   3.407  0.00  0.00    -0.361 N 
ATOM      3  HN  UNK N   1      20.237  20.420   4.399  1.00  0.00     0.166 HD
HETATM    4  C   UNK N   1      21.100  20.887   2.518  0.00  0.00     0.105 A 
HETATM    5  C   UNK N   1      20.968  20.280   1.288  0.00  0.00     0.105 A 
HETATM    6  N   UNK N   1      20.135  19.233   1.419  0.00  0.00    -0.361 N 
HETATM    7  H   UNK N   1      19.849  18.609   0.713  0.00  0.00     0.166 HD
ENDROOT
TORSDOF 0
ENDMDL
MODEL 7
REMARK VINA RESULT:      -2.4     14.918     15.639
REMARK  0 active torsions:
REMARK  status: ('A' for Active; 'I' for Inactive)
ROOT
HETATM    1  C   UNK N   1      34.608  17.091   9.437  0.00  0.00     0.180 A 
HETATM    2  N   UNK N   1      34.715  18.172   8.641  0.00  0.00    -0.361 N 
ATOM      3  HN  UNK N   1      35.530  18.775   8.529  1.00  0.00     0.166 HD
HETATM    4  C   UNK N   1      33.526  18.292   8.025  0.00  0.00     0.105 A 
HETATM    5  C   UNK N   1      32.706  17.274   8.458  0.00  0.00     0.105 A 
HETATM    6  N   UNK N   1      33.389  16.526   9.342  0.00  0.00    -0.361 N 
HETATM    7  H   UNK N   1      33.066  15.729   9.822  0.00  0.00     0.166 HD
ENDROOT
TORSDOF 0
ENDMDL
MODEL 8
REMARK VINA RESULT:      -2.4     16.528     17.125
REMARK  0 active torsions:
REMARK  status: ('A' for Active; 'I' for Inactive)
ROOT
HETATM    1  C   UNK N   1      34.597  16.844   9.452  0.00  0.00     0.180 A 
HETATM    2  N   UNK N   1      35.096  15.686   8.982  0.00  0.00    -0.361 N 
ATOM      3  HN  UNK N   1      34.913  15.262   8.072  1.00  0.00     0.166 HD
HETATM    4  C   UNK N   1      35.884  15.203   9.958  0.00  0.00     0.105 A 
HETATM    5  C   UNK N   1      35.854  16.083  11.017  0.00  0.00     0.105 A 
HETATM    6  N   UNK N   1      35.046  17.108  10.694  0.00  0.00    -0.361 N 
HETATM    7  H   UNK N   1      34.827  17.891  11.250  0.00  0.00     0.166 HD
ENDROOT
TORSDOF 0
ENDMDL
MODEL 9
REMARK VINA RESULT:      -2.3     16.857     17.411
REMARK  0 active torsions:
REMARK  status: ('A' for Active; 'I' for Inactive)
ROOT
HETATM    1  C   UNK N   1      35.567  14.038  12.528  0.00  0.00     0.180 A 
HETATM    2  N   UNK N   1      34.489  13.953  11.726  0.00  0.00    -0.361 N 
ATOM      3  HN  UNK N   1      33.826  13.181  11.666  1.00  0.00     0.166 HD
HETATM    4  C   UNK N   1      34.467  15.097  11.020  0.00  0.00     0.105 A 
HETATM    5  C   UNK N   1      35.541  15.868  11.406  0.00  0.00     0.105 A 
HETATM    6  N   UNK N   1      36.225  15.200  12.350  0.00  0.00    -0.361 N 
HETATM    7  H   UNK N   1      37.041  15.496  12.817  0.00  0.00     0.166 HD
ENDROOT
TORSDOF 0
ENDMDL
