MODEL 1
REMARK VINA RESULT:      -5.8      0.000      0.000
REMARK  6 active torsions:
REMARK  status: ('A' for Active; 'I' for Inactive)
REMARK    1  A    between atoms: C_4  and  O_10 
REMARK    2  A    between atoms: C_5  and  O_11 
REMARK    3  A    between atoms: C_7  and  C_6 
REMARK    4  A    between atoms: O_13  and  C_6 
REMARK    5  A    between atoms: C_7  and  O_14 
REMARK    6  A    between atoms: O_15  and  N_8 
ROOT
HETATM    1  C   UNK N   1      19.446  19.161   2.321  0.00  0.00     0.106 C 
HETATM    2  C   UNK N   1      21.467  17.830   3.203  0.00  0.00     0.084 C 
HETATM    3  C   UNK N   1      20.511  20.016   1.696  0.00  0.00     0.044 C 
HETATM    4  C   UNK N   1      21.873  19.240   3.650  0.00  0.00     0.156 C 
HETATM    5  C   UNK N   1      21.840  20.156   2.413  0.00  0.00     0.194 C 
HETATM    6  C   UNK N   1      19.997  17.774   2.712  0.00  0.00     0.150 C 
HETATM    7  N   UNK N   1      20.296  20.565   0.551  0.00  0.00    -0.275 N 
ATOM      8  HN  UNK N   1      19.390  20.441   0.099  1.00  0.00     0.193 HD
ENDROOT
BRANCH   6   9
HETATM    9  C   UNK N   1      19.888  16.845   1.530  0.00  0.00     0.176 C 
HETATM   10  O   UNK N   1      20.683  15.927   1.392  0.00  0.00    -0.648 OA
BRANCH   9  11
HETATM   11  O   UNK N   1      18.926  17.032   0.604  0.00  0.00    -0.774 OA
HETATM   12  H   UNK N   1      19.093  17.550  -0.158  0.00  0.00     0.167 HD
ENDBRANCH   9  11
ENDBRANCH   6   9
BRANCH   6  13
HETATM   13  O   UNK N   1      19.213  17.286   3.759  0.00  0.00    -0.378 OA
HETATM   14  H   UNK N   1      18.284  17.014   3.813  0.00  0.00     0.211 HD
ENDBRANCH   6  13
BRANCH   4  15
HETATM   15  O   UNK N   1      23.157  19.218   4.198  0.00  0.00    -0.393 OA
HETATM   16  H   UNK N   1      24.032  19.029   3.827  0.00  0.00     0.210 HD
ENDBRANCH   4  15
BRANCH   5  17
HETATM   17  O   UNK N   1      22.055  21.485   2.788  0.00  0.00    -0.387 OA
HETATM   18  H   UNK N   1      21.362  22.110   3.048  0.00  0.00     0.210 HD
ENDBRANCH   5  17
BRANCH   7  19
HETATM   19  O   UNK N   1      21.222  21.281  -0.050  0.00  0.00    -0.290 OA
HETATM   20  H   UNK N   1      21.918  21.783   0.325  0.00  0.00     0.244 HD
ENDBRANCH   7  19
TORSDOF 6
ENDMDL
MODEL 2
REMARK VINA RESULT:      -5.7     12.345     14.380
REMARK  6 active torsions:
REMARK  status: ('A' for Active; 'I' for Inactive)
REMARK    1  A    between atoms: C_4  and  O_10 
REMARK    2  A    between atoms: C_5  and  O_11 
REMARK    3  A    between atoms: C_7  and  C_6 
REMARK    4  A    between atoms: O_13  and  C_6 
REMARK    5  A    between atoms: C_7  and  O_14 
REMARK    6  A    between atoms: O_15  and  N_8 
ROOT
HETATM    1  C   UNK N   1      32.666  15.788   7.961  0.00  0.00     0.106 C 
HETATM    2  C   UNK N   1      33.016  18.338   8.052  0.00  0.00     0.084 C 
HETATM    3  C   UNK N   1      33.394  15.823   9.273  0.00  0.00     0.044 C 
HETATM    4  C   UNK N   1      34.456  17.872   8.300  0.00  0.00     0.156 C 
HETATM    5  C   UNK N   1      34.439  16.900   9.493  0.00  0.00     0.194 C 
HETATM    6  C   UNK N   1      32.096  17.175   7.598  0.00  0.00     0.150 C 
HETATM    7  N   UNK N   1      33.083  14.979  10.196  0.00  0.00    -0.275 N 
ATOM      8  HN  UNK N   1      32.370  14.274  10.010  1.00  0.00     0.193 HD
ENDROOT
BRANCH   6   9
HETATM    9  C   UNK N   1      30.732  17.330   8.220  0.00  0.00     0.176 C 
HETATM   10  O   UNK N   1      29.735  16.951   7.623  0.00  0.00    -0.648 OA
BRANCH   9  11
HETATM   11  O   UNK N   1      30.598  17.907   9.431  0.00  0.00    -0.774 OA
HETATM   12  H   UNK N   1      30.954  18.758   9.595  0.00  0.00     0.167 HD
ENDBRANCH   9  11
ENDBRANCH   6   9
BRANCH   6  13
HETATM   13  O   UNK N   1      31.982  17.237   6.208  0.00  0.00    -0.378 OA
HETATM   14  H   UNK N   1      32.307  16.664   5.496  0.00  0.00     0.211 HD
ENDBRANCH   6  13
BRANCH   4  15
HETATM   15  O   UNK N   1      35.273  18.969   8.584  0.00  0.00    -0.393 OA
HETATM   16  H   UNK N   1      35.378  19.840   8.173  0.00  0.00     0.210 HD
ENDBRANCH   4  15
BRANCH   5  17
HETATM   17  O   UNK N   1      35.701  16.326   9.669  0.00  0.00    -0.387 OA
HETATM   18  H   UNK N   1      36.532  16.819   9.752  0.00  0.00     0.210 HD
ENDBRANCH   5  17
BRANCH   7  19
HETATM   19  O   UNK N   1      33.666  15.009  11.375  0.00  0.00    -0.290 OA
HETATM   20  H   UNK N   1      34.126  14.329  11.825  0.00  0.00     0.244 HD
ENDBRANCH   7  19
TORSDOF 6
ENDMDL
MODEL 3
REMARK VINA RESULT:      -5.5     13.283     14.994
REMARK  6 active torsions:
REMARK  status: ('A' for Active; 'I' for Inactive)
REMARK    1  A    between atoms: C_4  and  O_10 
REMARK    2  A    between atoms: C_5  and  O_11 
REMARK    3  A    between atoms: C_7  and  C_6 
REMARK    4  A    between atoms: O_13  and  C_6 
REMARK    5  A    between atoms: C_7  and  O_14 
REMARK    6  A    between atoms: O_15  and  N_8 
ROOT
HETATM    1  C   UNK N   1      33.150  17.370   8.544  0.00  0.00     0.106 C 
HETATM    2  C   UNK N   1      32.848  15.038   7.493  0.00  0.00     0.084 C 
HETATM    3  C   UNK N   1      34.056  16.630   9.485  0.00  0.00     0.044 C 
HETATM    4  C   UNK N   1      32.548  14.700   8.960  0.00  0.00     0.156 C 
HETATM    5  C   UNK N   1      33.738  15.183   9.809  0.00  0.00     0.194 C 
HETATM    6  C   UNK N   1      32.911  16.568   7.248  0.00  0.00     0.150 C 
HETATM    7  N   UNK N   1      35.103  17.217   9.954  0.00  0.00    -0.275 N 
ATOM      8  HN  UNK N   1      35.284  18.190   9.707  1.00  0.00     0.193 HD
ENDROOT
BRANCH   6   9
HETATM    9  C   UNK N   1      34.005  16.882   6.260  0.00  0.00     0.176 C 
HETATM   10  O   UNK N   1      33.983  17.927   5.626  0.00  0.00    -0.648 OA
BRANCH   9  11
HETATM   11  O   UNK N   1      35.007  16.004   6.052  0.00  0.00    -0.774 OA
HETATM   12  H   UNK N   1      35.308  15.452   6.747  0.00  0.00     0.167 HD
ENDBRANCH   9  11
ENDBRANCH   6   9
BRANCH   6  13
HETATM   13  O   UNK N   1      31.682  16.968   6.721  0.00  0.00    -0.378 OA
HETATM   14  H   UNK N   1      31.269  17.838   6.604  0.00  0.00     0.211 HD
ENDBRANCH   6  13
BRANCH   4  15
HETATM   15  O   UNK N   1      32.378  13.323   9.109  0.00  0.00    -0.393 OA
HETATM   16  H   UNK N   1      32.013  12.635   8.532  0.00  0.00     0.210 HD
ENDBRANCH   4  15
BRANCH   5  17
HETATM   17  O   UNK N   1      33.453  15.039  11.169  0.00  0.00    -0.387 OA
HETATM   18  H   UNK N   1      32.741  14.491  11.535  0.00  0.00     0.210 HD
ENDBRANCH   5  17
BRANCH   7  19
HETATM   19  O   UNK N   1      35.945  16.586  10.744  0.00  0.00    -0.290 OA
HETATM   20  H   UNK N   1      35.774  15.923  11.382  0.00  0.00     0.244 HD
ENDBRANCH   7  19
TORSDOF 6
ENDMDL
MODEL 4
REMARK VINA RESULT:      -5.3     13.362     14.466
REMARK  6 active torsions:
REMARK  status: ('A' for Active; 'I' for Inactive)
REMARK    1  A    between atoms: C_4  and  O_10 
REMARK    2  A    between atoms: C_5  and  O_11 
REMARK    3  A    between atoms: C_7  and  C_6 
REMARK    4  A    between atoms: O_13  and  C_6 
REMARK    5  A    between atoms: C_7  and  O_14 
REMARK    6  A    between atoms: O_15  and  N_8 
ROOT
HETATM    1  C   UNK N   1      32.152  16.635   8.556  0.00  0.00     0.106 C 
HETATM    2  C   UNK N   1      34.105  15.501   9.794  0.00  0.00     0.084 C 
HETATM    3  C   UNK N   1      33.256  17.211   7.716  0.00  0.00     0.044 C 
HETATM    4  C   UNK N   1      34.595  16.955   9.817  0.00  0.00     0.156 C 
HETATM    5  C   UNK N   1      34.599  17.475   8.369  0.00  0.00     0.194 C 
HETATM    6  C   UNK N   1      32.628  15.390   9.333  0.00  0.00     0.150 C 
HETATM    7  N   UNK N   1      33.058  17.418   6.460  0.00  0.00    -0.275 N 
ATOM      8  HN  UNK N   1      32.141  17.221   6.059  1.00  0.00     0.193 HD
ENDROOT
BRANCH   6   9
HETATM    9  C   UNK N   1      32.454  14.168   8.469  0.00  0.00     0.176 C 
HETATM   10  O   UNK N   1      32.134  14.283   7.295  0.00  0.00    -0.648 OA
BRANCH   9  11
HETATM   11  O   UNK N   1      32.629  12.936   8.990  0.00  0.00    -0.774 OA
HETATM   12  H   UNK N   1      33.435  12.706   9.406  0.00  0.00     0.167 HD
ENDBRANCH   9  11
ENDBRANCH   6   9
BRANCH   6  13
HETATM   13  O   UNK N   1      31.832  15.271  10.473  0.00  0.00    -0.378 OA
HETATM   14  H   UNK N   1      31.485  14.504  10.955  0.00  0.00     0.211 HD
ENDBRANCH   6  13
BRANCH   4  15
HETATM   15  O   UNK N   1      35.882  17.018  10.355  0.00  0.00    -0.393 OA
HETATM   16  H   UNK N   1      36.757  17.166   9.964  0.00  0.00     0.210 HD
ENDBRANCH   4  15
BRANCH   5  17
HETATM   17  O   UNK N   1      34.892  18.841   8.345  0.00  0.00    -0.387 OA
HETATM   18  H   UNK N   1      35.730  19.237   8.630  0.00  0.00     0.210 HD
ENDBRANCH   5  17
BRANCH   7  19
HETATM   19  O   UNK N   1      34.015  17.876   5.683  0.00  0.00    -0.290 OA
HETATM   20  H   UNK N   1      34.601  17.404   5.125  0.00  0.00     0.244 HD
ENDBRANCH   7  19
TORSDOF 6
ENDMDL
MODEL 5
REMARK VINA RESULT:      -5.3     13.639     15.085
REMARK  6 active torsions:
REMARK  status: ('A' for Active; 'I' for Inactive)
REMARK    1  A    between atoms: C_4  and  O_10 
REMARK    2  A    between atoms: C_5  and  O_11 
REMARK    3  A    between atoms: C_7  and  C_6 
REMARK    4  A    between atoms: O_13  and  C_6 
REMARK    5  A    between atoms: C_7  and  O_14 
REMARK    6  A    between atoms: O_15  and  N_8 
ROOT
HETATM    1  C   UNK N   1      32.702  17.059   7.671  0.00  0.00     0.106 C 
HETATM    2  C   UNK N   1      34.978  15.908   7.310  0.00  0.00     0.084 C 
HETATM    3  C   UNK N   1      32.447  15.874   8.558  0.00  0.00     0.044 C 
HETATM    4  C   UNK N   1      34.043  14.732   7.001  0.00  0.00     0.156 C 
HETATM    5  C   UNK N   1      33.098  14.551   8.203  0.00  0.00     0.194 C 
HETATM    6  C   UNK N   1      34.210  17.252   7.412  0.00  0.00     0.150 C 
HETATM    7  N   UNK N   1      31.730  16.016   9.619  0.00  0.00    -0.275 N 
ATOM      8  HN  UNK N   1      31.315  16.925   9.825  1.00  0.00     0.193 HD
ENDROOT
BRANCH   6   9
HETATM    9  C   UNK N   1      34.800  18.095   8.514  0.00  0.00     0.176 C 
HETATM   10  O   UNK N   1      34.977  19.292   8.347  0.00  0.00    -0.648 OA
BRANCH   9  11
HETATM   11  O   UNK N   1      35.156  17.530   9.686  0.00  0.00    -0.774 OA
HETATM   12  H   UNK N   1      34.747  17.795  10.485  0.00  0.00     0.167 HD
ENDBRANCH   9  11
ENDBRANCH   6   9
BRANCH   6  13
HETATM   13  O   UNK N   1      34.350  17.919   6.194  0.00  0.00    -0.378 OA
HETATM   14  H   UNK N   1      33.752  18.487   5.683  0.00  0.00     0.211 HD
ENDBRANCH   6  13
BRANCH   4  15
HETATM   15  O   UNK N   1      34.788  13.569   6.796  0.00  0.00    -0.393 OA
HETATM   16  H   UNK N   1      34.549  12.666   6.537  0.00  0.00     0.210 HD
ENDBRANCH   4  15
BRANCH   5  17
HETATM   17  O   UNK N   1      32.125  13.590   7.914  0.00  0.00    -0.387 OA
HETATM   18  H   UNK N   1      32.266  12.632   7.927  0.00  0.00     0.210 HD
ENDBRANCH   5  17
BRANCH   7  19
HETATM   19  O   UNK N   1      31.525  15.013  10.445  0.00  0.00    -0.290 OA
HETATM   20  H   UNK N   1      30.716  14.625  10.716  0.00  0.00     0.244 HD
ENDBRANCH   7  19
TORSDOF 6
ENDMDL
MODEL 6
REMARK VINA RESULT:      -5.3      9.350     10.926
REMARK  6 active torsions:
REMARK  status: ('A' for Active; 'I' for Inactive)
REMARK    1  A    between atoms: C_4  and  O_10 
REMARK    2  A    between atoms: C_5  and  O_11 
REMARK    3  A    between atoms: C_7  and  C_6 
REMARK    4  A    between atoms: O_13  and  C_6 
REMARK    5  A    between atoms: C_7  and  O_14 
REMARK    6  A    between atoms: O_15  and  N_8 
ROOT
HETATM    1  C   UNK N   1      21.997  11.590  10.293  0.00  0.00     0.106 C 
HETATM    2  C   UNK N   1      22.968  13.599   9.006  0.00  0.00     0.084 C 
HETATM    3  C   UNK N   1      23.003  11.999  11.330  0.00  0.00     0.044 C 
HETATM    4  C   UNK N   1      24.268  12.860   9.346  0.00  0.00     0.156 C 
HETATM    5  C   UNK N   1      24.300  12.636  10.869  0.00  0.00     0.194 C 
HETATM    6  C   UNK N   1      21.712  12.739   9.304  0.00  0.00     0.150 C 
HETATM    7  N   UNK N   1      22.727  11.849  12.579  0.00  0.00    -0.275 N 
ATOM      8  HN  UNK N   1      21.840  11.422  12.847  1.00  0.00     0.193 HD
ENDROOT
BRANCH   6   9
HETATM    9  C   UNK N   1      20.615  13.612   9.859  0.00  0.00     0.176 C 
HETATM   10  O   UNK N   1      19.750  13.133  10.577  0.00  0.00    -0.648 OA
BRANCH   9  11
HETATM   11  O   UNK N   1      20.568  14.924   9.551  0.00  0.00    -0.774 OA
HETATM   12  H   UNK N   1      21.098  15.270   8.861  0.00  0.00     0.167 HD
ENDBRANCH   9  11
ENDBRANCH   6   9
BRANCH   6  13
HETATM   13  O   UNK N   1      21.288  12.170   8.102  0.00  0.00    -0.378 OA
HETATM   14  H   UNK N   1      21.614  12.238   7.191  0.00  0.00     0.211 HD
ENDBRANCH   6  13
BRANCH   4  15
HETATM   15  O   UNK N   1      25.370  13.619   8.948  0.00  0.00    -0.393 OA
HETATM   16  H   UNK N   1      26.069  13.478   8.291  0.00  0.00     0.210 HD
ENDBRANCH   4  15
BRANCH   5  17
HETATM   17  O   UNK N   1      25.389  11.833  11.218  0.00  0.00    -0.387 OA
HETATM   18  H   UNK N   1      25.578  10.957  10.849  0.00  0.00     0.210 HD
ENDBRANCH   5  17
BRANCH   7  19
HETATM   19  O   UNK N   1      23.562  12.239  13.517  0.00  0.00    -0.290 OA
HETATM   20  H   UNK N   1      23.970  11.735  14.193  0.00  0.00     0.244 HD
ENDBRANCH   7  19
TORSDOF 6
ENDMDL
MODEL 7
REMARK VINA RESULT:      -5.0     13.549     15.081
REMARK  6 active torsions:
REMARK  status: ('A' for Active; 'I' for Inactive)
REMARK    1  A    between atoms: C_4  and  O_10 
REMARK    2  A    between atoms: C_5  and  O_11 
REMARK    3  A    between atoms: C_7  and  C_6 
REMARK    4  A    between atoms: O_13  and  C_6 
REMARK    5  A    between atoms: C_7  and  O_14 
REMARK    6  A    between atoms: O_15  and  N_8 
ROOT
HETATM    1  C   UNK N   1      34.754  14.967   7.916  0.00  0.00     0.106 C 
HETATM    2  C   UNK N   1      34.069  17.279   7.012  0.00  0.00     0.084 C 
HETATM    3  C   UNK N   1      34.152  15.487   9.190  0.00  0.00     0.044 C 
HETATM    4  C   UNK N   1      34.839  17.712   8.267  0.00  0.00     0.156 C 
HETATM    5  C   UNK N   1      34.230  16.974   9.473  0.00  0.00     0.194 C 
HETATM    6  C   UNK N   1      34.268  15.774   6.695  0.00  0.00     0.150 C 
HETATM    7  N   UNK N   1      33.542  14.675   9.983  0.00  0.00    -0.275 N 
ATOM      8  HN  UNK N   1      33.507  13.682   9.753  1.00  0.00     0.193 HD
ENDROOT
BRANCH   6   9
HETATM    9  C   UNK N   1      32.976  15.184   6.190  0.00  0.00     0.176 C 
HETATM   10  O   UNK N   1      32.739  15.152   4.992  0.00  0.00    -0.648 OA
BRANCH   9  11
HETATM   11  O   UNK N   1      32.062  14.705   7.059  0.00  0.00    -0.774 OA
HETATM   12  H   UNK N   1      32.118  13.823   7.370  0.00  0.00     0.167 HD
ENDBRANCH   9  11
ENDBRANCH   6   9
BRANCH   6  13
HETATM   13  O   UNK N   1      35.244  15.671   5.702  0.00  0.00    -0.378 OA
HETATM   14  H   UNK N   1      35.776  16.332   5.232  0.00  0.00     0.211 HD
ENDBRANCH   6  13
BRANCH   4  15
HETATM   15  O   UNK N   1      34.733  19.092   8.442  0.00  0.00    -0.393 OA
HETATM   16  H   UNK N   1      34.231  19.782   7.981  0.00  0.00     0.210 HD
ENDBRANCH   4  15
BRANCH   5  17
HETATM   17  O   UNK N   1      34.989  17.213  10.621  0.00  0.00    -0.387 OA
HETATM   18  H   UNK N   1      35.818  17.716  10.648  0.00  0.00     0.210 HD
ENDBRANCH   5  17
BRANCH   7  19
HETATM   19  O   UNK N   1      32.961  15.101  11.084  0.00  0.00    -0.290 OA
HETATM   20  H   UNK N   1      32.116  14.890  11.427  0.00  0.00     0.244 HD
ENDBRANCH   7  19
TORSDOF 6
ENDMDL
MODEL 8
REMARK VINA RESULT:      -5.0     20.967     22.413
REMARK  6 active torsions:
REMARK  status: ('A' for Active; 'I' for Inactive)
REMARK    1  A    between atoms: C_4  and  O_10 
REMARK    2  A    between atoms: C_5  and  O_11 
REMARK    3  A    between atoms: C_7  and  C_6 
REMARK    4  A    between atoms: O_13  and  C_6 
REMARK    5  A    between atoms: C_7  and  O_14 
REMARK    6  A    between atoms: O_15  and  N_8 
ROOT
HETATM    1  C   UNK N   1      43.540  20.681   1.679  0.00  0.00     0.106 C 
HETATM    2  C   UNK N   1      41.307  21.843   2.221  0.00  0.00     0.084 C 
HETATM    3  C   UNK N   1      44.100  21.723   2.604  0.00  0.00     0.044 C 
HETATM    4  C   UNK N   1      42.139  23.065   1.810  0.00  0.00     0.156 C 
HETATM    5  C   UNK N   1      43.417  23.076   2.668  0.00  0.00     0.194 C 
HETATM    6  C   UNK N   1      42.020  20.509   1.880  0.00  0.00     0.150 C 
HETATM    7  N   UNK N   1      45.106  21.433   3.355  0.00  0.00    -0.275 N 
ATOM      8  HN  UNK N   1      45.533  20.510   3.285  1.00  0.00     0.193 HD
ENDROOT
BRANCH   6   9
HETATM    9  C   UNK N   1      41.775  19.504   2.976  0.00  0.00     0.176 C 
HETATM   10  O   UNK N   1      42.400  18.454   3.001  0.00  0.00    -0.648 OA
BRANCH   9  11
HETATM   11  O   UNK N   1      40.849  19.746   3.926  0.00  0.00    -0.774 OA
HETATM   12  H   UNK N   1      40.420  19.037   4.364  0.00  0.00     0.167 HD
ENDBRANCH   9  11
ENDBRANCH   6   9
BRANCH   6  13
HETATM   13  O   UNK N   1      41.485  20.030   0.684  0.00  0.00    -0.378 OA
HETATM   14  H   UNK N   1      40.597  20.078   0.295  0.00  0.00     0.211 HD
ENDBRANCH   6  13
BRANCH   4  15
HETATM   15  O   UNK N   1      41.408  24.235   2.021  0.00  0.00    -0.393 OA
HETATM   16  H   UNK N   1      41.503  25.143   1.694  0.00  0.00     0.210 HD
ENDBRANCH   4  15
BRANCH   5  17
HETATM   17  O   UNK N   1      44.285  24.081   2.232  0.00  0.00    -0.387 OA
HETATM   18  H   UNK N   1      45.028  24.437   2.743  0.00  0.00     0.210 HD
ENDBRANCH   5  17
BRANCH   7  19
HETATM   19  O   UNK N   1      45.594  22.304   4.212  0.00  0.00    -0.290 OA
HETATM   20  H   UNK N   1      45.156  22.770   4.896  0.00  0.00     0.244 HD
ENDBRANCH   7  19
TORSDOF 6
ENDMDL
MODEL 9
REMARK VINA RESULT:      -4.9     11.638     13.876
REMARK  6 active torsions:
REMARK  status: ('A' for Active; 'I' for Inactive)
REMARK    1  A    between atoms: C_4  and  O_10 
REMARK    2  A    between atoms: C_5  and  O_11 
REMARK    3  A    between atoms: C_7  and  C_6 
REMARK    4  A    between atoms: O_13  and  C_6 
REMARK    5  A    between atoms: C_7  and  O_14 
REMARK    6  A    between atoms: O_15  and  N_8 
ROOT
HETATM    1  C   UNK N   1      32.612  18.336   8.112  0.00  0.00     0.106 C 
HETATM    2  C   UNK N   1      33.253  15.942   7.411  0.00  0.00     0.084 C 
HETATM    3  C   UNK N   1      31.327  17.677   8.526  0.00  0.00     0.044 C 
HETATM    4  C   UNK N   1      31.901  16.066   6.696  0.00  0.00     0.156 C 
HETATM    5  C   UNK N   1      30.848  16.470   7.743  0.00  0.00     0.194 C 
HETATM    6  C   UNK N   1      33.749  17.304   7.962  0.00  0.00     0.150 C 
HETATM    7  N   UNK N   1      30.692  18.114   9.558  0.00  0.00    -0.275 N 
ATOM      8  HN  UNK N   1      31.051  18.925  10.061  1.00  0.00     0.193 HD
ENDROOT
BRANCH   6   9
HETATM    9  C   UNK N   1      34.416  17.102   9.298  0.00  0.00     0.176 C 
HETATM   10  O   UNK N   1      35.347  17.818   9.637  0.00  0.00    -0.648 OA
BRANCH   9  11
HETATM   11  O   UNK N   1      34.005  16.117  10.122  0.00  0.00    -0.774 OA
HETATM   12  H   UNK N   1      33.600  16.320  10.941  0.00  0.00     0.167 HD
ENDBRANCH   9  11
ENDBRANCH   6   9
BRANCH   6  13
HETATM   13  O   UNK N   1      34.674  17.822   7.055  0.00  0.00    -0.378 OA
HETATM   14  H   UNK N   1      34.748  17.769   6.089  0.00  0.00     0.211 HD
ENDBRANCH   6  13
BRANCH   4  15
HETATM   15  O   UNK N   1      31.555  14.846   6.111  0.00  0.00    -0.393 OA
HETATM   16  H   UNK N   1      31.249  14.001   6.474  0.00  0.00     0.210 HD
ENDBRANCH   4  15
BRANCH   5  17
HETATM   17  O   UNK N   1      29.627  16.745   7.122  0.00  0.00    -0.387 OA
HETATM   18  H   UNK N   1      29.512  17.310   6.343  0.00  0.00     0.210 HD
ENDBRANCH   5  17
BRANCH   7  19
HETATM   19  O   UNK N   1      29.589  17.533   9.979  0.00  0.00    -0.290 OA
HETATM   20  H   UNK N   1      29.486  16.732  10.453  0.00  0.00     0.244 HD
ENDBRANCH   7  19
TORSDOF 6
ENDMDL
