REMARK  2 active torsions:
REMARK  status: ('A' for Active; 'I' for Inactive)
REMARK    1  A    between atoms: S_1  and  C_2 
REMARK    2  A    between atoms: C_2  and  C_3 
ROOT
HETATM    1  C   UNK N   1       1.610   0.606  -0.000  0.00  0.00    -0.033 A 
HETATM    2  C   UNK N   1       1.551  -0.795  -0.000  0.00  0.00     0.009 A 
HETATM    3  C   UNK N   1       0.336  -1.476   0.000  0.00  0.00     0.001 A 
HETATM    4  C   UNK N   1      -0.857  -0.764   0.000  0.00  0.00     0.001 A 
HETATM    5  C   UNK N   1      -0.833   0.629   0.000  0.00  0.00     0.019 A 
HETATM    6  C   UNK N   1       0.377   1.335   0.000  0.00  0.00     0.013 A 
HETATM    7  I   UNK N   1       0.125   3.441  -0.000  0.00  0.00    -0.044 I 
ENDROOT
BRANCH   1   8
HETATM    8  C   UNK N   1       3.020   1.158  -0.000  0.00  0.00     0.110 C 
BRANCH   8   9
HETATM    9  S   UNK N   1       3.370   2.941   0.000  0.00  0.00    -0.178 SA
HETATM   10  H   UNK N   1       4.656   3.382   0.000  0.00  0.00     0.101 HD
ENDBRANCH   8   9
ENDBRANCH   1   8
TORSDOF 2
