MODEL 1
REMARK VINA RESULT:      -4.7      0.000      0.000
REMARK  11 active torsions:
REMARK  status: ('A' for Active; 'I' for Inactive)
REMARK    1  A    between atoms: N_1  and  C_2 
REMARK    2  A    between atoms: C_2  and  C_3 
REMARK    3  A    between atoms: C_3  and  O_4 
REMARK    4  A    between atoms: P_5  and  O_4 
REMARK    5  A    between atoms: P_5  and  O_6 
REMARK    6  A    between atoms: P_5  and  O_8 
REMARK    7  A    between atoms: O_8  and  C_9 
REMARK    8  A    between atoms: C_9  and  C_10 
REMARK    9  A    between atoms: C_10  and  O_11 
REMARK   10  A    between atoms: C_10  and  C_12 
REMARK   11  A    between atoms: C_12  and  O_13 
ROOT
HETATM    1  P   UNK N   1      33.528  17.794   7.807  0.00  0.00     0.393 P 
HETATM    2  O   UNK N   1      33.886  16.289   7.952  0.00  0.00    -0.631 OA
ENDROOT
BRANCH   1   3
HETATM    3  O   UNK N   1      34.563  17.534   6.434  0.00  0.00    -0.295 OA
BRANCH   3   4
HETATM    4  C   UNK N   1      33.862  16.680   5.579  0.00  0.00     0.199 C 
BRANCH   4   5
HETATM    5  C   UNK N   1      32.810  17.483   4.844  0.00  0.00     0.138 C 
BRANCH   5   6
HETATM    6  N   UNK N   1      32.866  17.182   3.427  0.00  0.00    -0.428 N 
HETATM    7  H   UNK N   1      32.144  17.300   2.715  0.00  0.00     0.149 HD
HETATM    8  H   UNK N   1      33.751  16.799   3.094  0.00  0.00     0.149 HD
ENDBRANCH   5   6
ENDBRANCH   4   5
ENDBRANCH   3   4
ENDBRANCH   1   3
BRANCH   1   9
HETATM    9  O   UNK N   1      34.967  18.767   7.888  0.00  0.00    -0.307 OA
HETATM   10  H   UNK N   1      35.211  19.584   7.425  0.00  0.00     0.222 HD
ENDBRANCH   1   9
BRANCH   1  11
HETATM   11  O   UNK N   1      34.185  17.704   9.415  0.00  0.00    -0.294 OA
BRANCH  11  12
HETATM   12  C   UNK N   1      35.021  16.583   9.430  0.00  0.00     0.214 C 
BRANCH  12  13
HETATM   13  C   UNK N   1      35.486  16.336  10.850  0.00  0.00     0.166 C 
BRANCH  13  14
HETATM   14  O   UNK N   1      36.864  16.114  10.860  0.00  0.00    -0.391 OA
HETATM   15  H   UNK N   1      37.418  16.513  11.549  0.00  0.00     0.210 HD
ENDBRANCH  13  14
BRANCH  13  16
HETATM   16  C   UNK N   1      34.765  15.139  11.436  0.00  0.00     0.198 C 
BRANCH  16  17
HETATM   17  O   UNK N   1      33.435  15.140  11.015  0.00  0.00    -0.398 OA
HETATM   18  H   UNK N   1      32.822  14.397  10.903  0.00  0.00     0.209 HD
ENDBRANCH  16  17
ENDBRANCH  13  16
ENDBRANCH  12  13
ENDBRANCH  11  12
ENDBRANCH   1  11
TORSDOF 11
ENDMDL
MODEL 2
REMARK VINA RESULT:      -4.6      3.602      5.509
REMARK  11 active torsions:
REMARK  status: ('A' for Active; 'I' for Inactive)
REMARK    1  A    between atoms: N_1  and  C_2 
REMARK    2  A    between atoms: C_2  and  C_3 
REMARK    3  A    between atoms: C_3  and  O_4 
REMARK    4  A    between atoms: P_5  and  O_4 
REMARK    5  A    between atoms: P_5  and  O_6 
REMARK    6  A    between atoms: P_5  and  O_8 
REMARK    7  A    between atoms: O_8  and  C_9 
REMARK    8  A    between atoms: C_9  and  C_10 
REMARK    9  A    between atoms: C_10  and  O_11 
REMARK   10  A    between atoms: C_10  and  C_12 
REMARK   11  A    between atoms: C_12  and  O_13 
ROOT
HETATM    1  P   UNK N   1      35.501  16.022  11.433  0.00  0.00     0.393 P 
HETATM    2  O   UNK N   1      36.578  16.034  10.314  0.00  0.00    -0.631 OA
ENDROOT
BRANCH   1   3
HETATM    3  O   UNK N   1      35.422  14.389  10.837  0.00  0.00    -0.295 OA
BRANCH   3   4
HETATM    4  C   UNK N   1      35.285  13.574  11.964  0.00  0.00     0.199 C 
BRANCH   4   5
HETATM    5  C   UNK N   1      36.626  13.478  12.660  0.00  0.00     0.138 C 
BRANCH   5   6
HETATM    6  N   UNK N   1      37.677  13.302  11.676  0.00  0.00    -0.428 N 
HETATM    7  H   UNK N   1      38.128  14.000  11.085  0.00  0.00     0.149 HD
HETATM    8  H   UNK N   1      38.012  12.346  11.559  0.00  0.00     0.149 HD
ENDBRANCH   5   6
ENDBRANCH   4   5
ENDBRANCH   3   4
ENDBRANCH   1   3
BRANCH   1   9
HETATM    9  O   UNK N   1      33.939  15.651  10.762  0.00  0.00    -0.307 OA
HETATM   10  H   UNK N   1      33.188  16.224  10.542  0.00  0.00     0.222 HD
ENDBRANCH   1   9
BRANCH   1  11
HETATM   11  O   UNK N   1      34.992  17.339  10.417  0.00  0.00    -0.294 OA
BRANCH  11  12
HETATM   12  C   UNK N   1      34.881  16.812   9.127  0.00  0.00     0.214 C 
BRANCH  12  13
HETATM   13  C   UNK N   1      34.552  17.935   8.165  0.00  0.00     0.166 C 
BRANCH  13  14
HETATM   14  O   UNK N   1      35.267  19.080   8.519  0.00  0.00    -0.391 OA
HETATM   15  H   UNK N   1      34.880  19.730   9.127  0.00  0.00     0.210 HD
ENDBRANCH  13  14
BRANCH  13  16
HETATM   16  C   UNK N   1      33.065  18.225   8.188  0.00  0.00     0.198 C 
BRANCH  16  17
HETATM   17  O   UNK N   1      32.426  17.331   9.045  0.00  0.00    -0.398 OA
HETATM   18  H   UNK N   1      31.710  16.703   8.862  0.00  0.00     0.209 HD
ENDBRANCH  16  17
ENDBRANCH  13  16
ENDBRANCH  12  13
ENDBRANCH  11  12
ENDBRANCH   1  11
TORSDOF 11
ENDMDL
MODEL 3
REMARK VINA RESULT:      -4.4      3.925      6.167
REMARK  11 active torsions:
REMARK  status: ('A' for Active; 'I' for Inactive)
REMARK    1  A    between atoms: N_1  and  C_2 
REMARK    2  A    between atoms: C_2  and  C_3 
REMARK    3  A    between atoms: C_3  and  O_4 
REMARK    4  A    between atoms: P_5  and  O_4 
REMARK    5  A    between atoms: P_5  and  O_6 
REMARK    6  A    between atoms: P_5  and  O_8 
REMARK    7  A    between atoms: O_8  and  C_9 
REMARK    8  A    between atoms: C_9  and  C_10 
REMARK    9  A    between atoms: C_10  and  O_11 
REMARK   10  A    between atoms: C_10  and  C_12 
REMARK   11  A    between atoms: C_12  and  O_13 
ROOT
HETATM    1  P   UNK N   1      35.045  15.236  10.920  0.00  0.00     0.393 P 
HETATM    2  O   UNK N   1      35.728  13.949  10.380  0.00  0.00    -0.631 OA
ENDROOT
BRANCH   1   3
HETATM    3  O   UNK N   1      34.860  14.139  12.258  0.00  0.00    -0.295 OA
BRANCH   3   4
HETATM    4  C   UNK N   1      35.902  14.431  13.142  0.00  0.00     0.199 C 
BRANCH   4   5
HETATM    5  C   UNK N   1      36.529  13.131  13.600  0.00  0.00     0.138 C 
BRANCH   5   6
HETATM    6  N   UNK N   1      37.467  12.661  12.600  0.00  0.00    -0.428 N 
HETATM    7  H   UNK N   1      38.482  12.580  12.657  0.00  0.00     0.149 HD
HETATM    8  H   UNK N   1      37.054  12.369  11.713  0.00  0.00     0.149 HD
ENDBRANCH   5   6
ENDBRANCH   4   5
ENDBRANCH   3   4
ENDBRANCH   1   3
BRANCH   1   9
HETATM    9  O   UNK N   1      33.371  14.925  11.278  0.00  0.00    -0.307 OA
HETATM   10  H   UNK N   1      32.928  14.132  11.616  0.00  0.00     0.222 HD
ENDBRANCH   1   9
BRANCH   1  11
HETATM   11  O   UNK N   1      34.193  14.939   9.434  0.00  0.00    -0.294 OA
BRANCH  11  12
HETATM   12  C   UNK N   1      34.632  15.914   8.533  0.00  0.00     0.214 C 
BRANCH  12  13
HETATM   13  C   UNK N   1      34.136  17.268   8.996  0.00  0.00     0.166 C 
BRANCH  13  14
HETATM   14  O   UNK N   1      32.751  17.226   9.168  0.00  0.00    -0.391 OA
HETATM   15  H   UNK N   1      32.347  16.531   9.709  0.00  0.00     0.210 HD
ENDBRANCH  13  14
BRANCH  13  16
HETATM   16  C   UNK N   1      34.500  18.334   7.982  0.00  0.00     0.198 C 
BRANCH  16  17
HETATM   17  O   UNK N   1      35.341  19.277   8.574  0.00  0.00    -0.398 OA
HETATM   18  H   UNK N   1      35.150  19.924   9.270  0.00  0.00     0.209 HD
ENDBRANCH  16  17
ENDBRANCH  13  16
ENDBRANCH  12  13
ENDBRANCH  11  12
ENDBRANCH   1  11
TORSDOF 11
ENDMDL
MODEL 4
REMARK VINA RESULT:      -4.4      2.894      3.477
REMARK  11 active torsions:
REMARK  status: ('A' for Active; 'I' for Inactive)
REMARK    1  A    between atoms: N_1  and  C_2 
REMARK    2  A    between atoms: C_2  and  C_3 
REMARK    3  A    between atoms: C_3  and  O_4 
REMARK    4  A    between atoms: P_5  and  O_4 
REMARK    5  A    between atoms: P_5  and  O_6 
REMARK    6  A    between atoms: P_5  and  O_8 
REMARK    7  A    between atoms: O_8  and  C_9 
REMARK    8  A    between atoms: C_9  and  C_10 
REMARK    9  A    between atoms: C_10  and  O_11 
REMARK   10  A    between atoms: C_10  and  C_12 
REMARK   11  A    between atoms: C_12  and  O_13 
ROOT
HETATM    1  P   UNK N   1      33.386  17.360   8.001  0.00  0.00     0.393 P 
HETATM    2  O   UNK N   1      34.078  18.703   8.362  0.00  0.00    -0.631 OA
ENDROOT
BRANCH   1   3
HETATM    3  O   UNK N   1      32.027  18.380   8.373  0.00  0.00    -0.295 OA
BRANCH   3   4
HETATM    4  C   UNK N   1      30.888  17.627   8.073  0.00  0.00     0.199 C 
BRANCH   4   5
HETATM    5  C   UNK N   1      29.677  18.329   8.650  0.00  0.00     0.138 C 
BRANCH   5   6
HETATM    6  N   UNK N   1      29.869  18.549  10.070  0.00  0.00    -0.428 N 
HETATM    7  H   UNK N   1      29.823  17.879  10.837  0.00  0.00     0.149 HD
HETATM    8  H   UNK N   1      30.080  19.511  10.340  0.00  0.00     0.149 HD
ENDBRANCH   5   6
ENDBRANCH   4   5
ENDBRANCH   3   4
ENDBRANCH   1   3
BRANCH   1   9
HETATM    9  O   UNK N   1      32.482  16.763   9.362  0.00  0.00    -0.307 OA
HETATM   10  H   UNK N   1      32.073  15.899   9.525  0.00  0.00     0.222 HD
ENDBRANCH   1   9
BRANCH   1  11
HETATM   11  O   UNK N   1      34.494  16.901   9.261  0.00  0.00    -0.294 OA
BRANCH  11  12
HETATM   12  C   UNK N   1      34.497  15.503   9.283  0.00  0.00     0.214 C 
BRANCH  12  13
HETATM   13  C   UNK N   1      34.796  15.035  10.692  0.00  0.00     0.166 C 
BRANCH  13  14
HETATM   14  O   UNK N   1      33.599  14.817  11.377  0.00  0.00    -0.391 OA
HETATM   15  H   UNK N   1      32.760  15.136  11.009  0.00  0.00     0.210 HD
ENDBRANCH  13  14
BRANCH  13  16
HETATM   16  C   UNK N   1      35.628  16.069  11.422  0.00  0.00     0.198 C 
BRANCH  16  17
HETATM   17  O   UNK N   1      36.906  16.121  10.865  0.00  0.00    -0.398 OA
HETATM   18  H   UNK N   1      37.712  15.646  11.122  0.00  0.00     0.209 HD
ENDBRANCH  16  17
ENDBRANCH  13  16
ENDBRANCH  12  13
ENDBRANCH  11  12
ENDBRANCH   1  11
TORSDOF 11
ENDMDL
MODEL 5
REMARK VINA RESULT:      -4.3     13.041     13.900
REMARK  11 active torsions:
REMARK  status: ('A' for Active; 'I' for Inactive)
REMARK    1  A    between atoms: N_1  and  C_2 
REMARK    2  A    between atoms: C_2  and  C_3 
REMARK    3  A    between atoms: C_3  and  O_4 
REMARK    4  A    between atoms: P_5  and  O_4 
REMARK    5  A    between atoms: P_5  and  O_6 
REMARK    6  A    between atoms: P_5  and  O_8 
REMARK    7  A    between atoms: O_8  and  C_9 
REMARK    8  A    between atoms: C_9  and  C_10 
REMARK    9  A    between atoms: C_10  and  O_11 
REMARK   10  A    between atoms: C_10  and  C_12 
REMARK   11  A    between atoms: C_12  and  O_13 
ROOT
HETATM    1  P   UNK N   1      20.729  14.380   9.227  0.00  0.00     0.393 P 
HETATM    2  O   UNK N   1      19.391  14.128   9.974  0.00  0.00    -0.631 OA
ENDROOT
BRANCH   1   3
HETATM    3  O   UNK N   1      19.567  15.070   8.131  0.00  0.00    -0.295 OA
BRANCH   3   4
HETATM    4  C   UNK N   1      20.074  16.321   7.769  0.00  0.00     0.199 C 
BRANCH   4   5
HETATM    5  C   UNK N   1      19.530  17.360   8.726  0.00  0.00     0.138 C 
BRANCH   5   6
HETATM    6  N   UNK N   1      18.166  17.028   9.086  0.00  0.00    -0.428 N 
HETATM    7  H   UNK N   1      17.747  16.944  10.013  0.00  0.00     0.149 HD
HETATM    8  H   UNK N   1      17.535  16.854   8.303  0.00  0.00     0.149 HD
ENDBRANCH   5   6
ENDBRANCH   4   5
ENDBRANCH   3   4
ENDBRANCH   1   3
BRANCH   1   9
HETATM    9  O   UNK N   1      20.724  13.565   7.690  0.00  0.00    -0.307 OA
HETATM   10  H   UNK N   1      20.049  13.519   6.995  0.00  0.00     0.222 HD
ENDBRANCH   1   9
BRANCH   1  11
HETATM   11  O   UNK N   1      20.751  12.662   9.495  0.00  0.00    -0.294 OA
BRANCH  11  12
HETATM   12  C   UNK N   1      21.393  12.469  10.722  0.00  0.00     0.214 C 
BRANCH  12  13
HETATM   13  C   UNK N   1      22.878  12.297  10.478  0.00  0.00     0.166 C 
BRANCH  13  14
HETATM   14  O   UNK N   1      23.083  11.295   9.527  0.00  0.00    -0.391 OA
HETATM   15  H   UNK N   1      23.792  11.382   8.871  0.00  0.00     0.210 HD
ENDBRANCH  13  14
BRANCH  13  16
HETATM   16  C   UNK N   1      23.582  11.936  11.770  0.00  0.00     0.198 C 
BRANCH  16  17
HETATM   17  O   UNK N   1      24.906  12.374  11.721  0.00  0.00    -0.398 OA
HETATM   18  H   UNK N   1      25.262  13.235  11.454  0.00  0.00     0.209 HD
ENDBRANCH  16  17
ENDBRANCH  13  16
ENDBRANCH  12  13
ENDBRANCH  11  12
ENDBRANCH   1  11
TORSDOF 11
ENDMDL
MODEL 6
REMARK VINA RESULT:      -4.3      5.663      7.826
REMARK  11 active torsions:
REMARK  status: ('A' for Active; 'I' for Inactive)
REMARK    1  A    between atoms: N_1  and  C_2 
REMARK    2  A    between atoms: C_2  and  C_3 
REMARK    3  A    between atoms: C_3  and  O_4 
REMARK    4  A    between atoms: P_5  and  O_4 
REMARK    5  A    between atoms: P_5  and  O_6 
REMARK    6  A    between atoms: P_5  and  O_8 
REMARK    7  A    between atoms: O_8  and  C_9 
REMARK    8  A    between atoms: C_9  and  C_10 
REMARK    9  A    between atoms: C_10  and  O_11 
REMARK   10  A    between atoms: C_10  and  C_12 
REMARK   11  A    between atoms: C_12  and  O_13 
ROOT
HETATM    1  P   UNK N   1      36.071  13.392  13.266  0.00  0.00     0.393 P 
HETATM    2  O   UNK N   1      34.586  13.102  13.616  0.00  0.00    -0.631 OA
ENDROOT
BRANCH   1   3
HETATM    3  O   UNK N   1      35.992  13.876  14.935  0.00  0.00    -0.295 OA
BRANCH   3   4
HETATM    4  C   UNK N   1      35.081  13.009  15.544  0.00  0.00     0.199 C 
BRANCH   4   5
HETATM    5  C   UNK N   1      35.069  13.285  17.033  0.00  0.00     0.138 C 
BRANCH   5   6
HETATM    6  N   UNK N   1      35.260  12.047  17.762  0.00  0.00    -0.428 N 
HETATM    7  H   UNK N   1      36.008  11.359  17.677  0.00  0.00     0.149 HD
HETATM    8  H   UNK N   1      34.546  11.833  18.459  0.00  0.00     0.149 HD
ENDBRANCH   5   6
ENDBRANCH   4   5
ENDBRANCH   3   4
ENDBRANCH   1   3
BRANCH   1   9
HETATM    9  O   UNK N   1      36.418  15.085  13.468  0.00  0.00    -0.307 OA
HETATM   10  H   UNK N   1      35.990  15.763  14.014  0.00  0.00     0.222 HD
ENDBRANCH   1   9
BRANCH   1  11
HETATM   11  O   UNK N   1      35.203  14.298  12.061  0.00  0.00    -0.294 OA
BRANCH  11  12
HETATM   12  C   UNK N   1      35.815  14.004  10.839  0.00  0.00     0.214 C 
BRANCH  12  13
HETATM   13  C   UNK N   1      36.135  15.301  10.126  0.00  0.00     0.166 C 
BRANCH  13  14
HETATM   14  O   UNK N   1      37.242  15.905  10.725  0.00  0.00    -0.391 OA
HETATM   15  H   UNK N   1      37.400  16.855  10.613  0.00  0.00     0.210 HD
ENDBRANCH  13  14
BRANCH  13  16
HETATM   16  C   UNK N   1      34.944  16.236  10.179  0.00  0.00     0.198 C 
BRANCH  16  17
HETATM   17  O   UNK N   1      35.019  17.027  11.325  0.00  0.00    -0.398 OA
HETATM   18  H   UNK N   1      35.797  17.385  11.779  0.00  0.00     0.209 HD
ENDBRANCH  16  17
ENDBRANCH  13  16
ENDBRANCH  12  13
ENDBRANCH  11  12
ENDBRANCH   1  11
TORSDOF 11
ENDMDL
MODEL 7
REMARK VINA RESULT:      -4.3      3.669      5.253
REMARK  11 active torsions:
REMARK  status: ('A' for Active; 'I' for Inactive)
REMARK    1  A    between atoms: N_1  and  C_2 
REMARK    2  A    between atoms: C_2  and  C_3 
REMARK    3  A    between atoms: C_3  and  O_4 
REMARK    4  A    between atoms: P_5  and  O_4 
REMARK    5  A    between atoms: P_5  and  O_6 
REMARK    6  A    between atoms: P_5  and  O_8 
REMARK    7  A    between atoms: O_8  and  C_9 
REMARK    8  A    between atoms: C_9  and  C_10 
REMARK    9  A    between atoms: C_10  and  O_11 
REMARK   10  A    between atoms: C_10  and  C_12 
REMARK   11  A    between atoms: C_12  and  O_13 
ROOT
HETATM    1  P   UNK N   1      35.301  14.426  11.455  0.00  0.00     0.393 P 
HETATM    2  O   UNK N   1      36.004  15.277  12.548  0.00  0.00    -0.631 OA
ENDROOT
BRANCH   1   3
HETATM    3  O   UNK N   1      34.924  16.048  10.950  0.00  0.00    -0.295 OA
BRANCH   3   4
HETATM    4  C   UNK N   1      35.283  16.125   9.602  0.00  0.00     0.199 C 
BRANCH   4   5
HETATM    5  C   UNK N   1      34.392  17.141   8.920  0.00  0.00     0.138 C 
BRANCH   5   6
HETATM    6  N   UNK N   1      33.017  16.945   9.336  0.00  0.00    -0.428 N 
HETATM    7  H   UNK N   1      32.476  16.081   9.384  0.00  0.00     0.149 HD
HETATM    8  H   UNK N   1      32.520  17.789   9.621  0.00  0.00     0.149 HD
ENDBRANCH   5   6
ENDBRANCH   4   5
ENDBRANCH   3   4
ENDBRANCH   1   3
BRANCH   1   9
HETATM    9  O   UNK N   1      33.588  14.727  11.466  0.00  0.00    -0.307 OA
HETATM   10  H   UNK N   1      32.997  15.071  10.778  0.00  0.00     0.222 HD
ENDBRANCH   1   9
BRANCH   1  11
HETATM   11  O   UNK N   1      34.625  13.800  12.929  0.00  0.00    -0.294 OA
BRANCH  11  12
HETATM   12  C   UNK N   1      35.203  12.541  13.117  0.00  0.00     0.214 C 
BRANCH  12  13
HETATM   13  C   UNK N   1      35.228  12.228  14.599  0.00  0.00     0.166 C 
BRANCH  13  14
HETATM   14  O   UNK N   1      34.310  13.042  15.265  0.00  0.00    -0.391 OA
HETATM   15  H   UNK N   1      34.540  13.957  15.488  0.00  0.00     0.210 HD
ENDBRANCH  13  14
BRANCH  13  16
HETATM   16  C   UNK N   1      36.618  12.451  15.158  0.00  0.00     0.198 C 
BRANCH  16  17
HETATM   17  O   UNK N   1      37.227  13.514  14.492  0.00  0.00    -0.398 OA
HETATM   18  H   UNK N   1      37.513  13.582  13.568  0.00  0.00     0.209 HD
ENDBRANCH  16  17
ENDBRANCH  13  16
ENDBRANCH  12  13
ENDBRANCH  11  12
ENDBRANCH   1  11
TORSDOF 11
ENDMDL
MODEL 8
REMARK VINA RESULT:      -4.2      2.963      5.788
REMARK  11 active torsions:
REMARK  status: ('A' for Active; 'I' for Inactive)
REMARK    1  A    between atoms: N_1  and  C_2 
REMARK    2  A    between atoms: C_2  and  C_3 
REMARK    3  A    between atoms: C_3  and  O_4 
REMARK    4  A    between atoms: P_5  and  O_4 
REMARK    5  A    between atoms: P_5  and  O_6 
REMARK    6  A    between atoms: P_5  and  O_8 
REMARK    7  A    between atoms: O_8  and  C_9 
REMARK    8  A    between atoms: C_9  and  C_10 
REMARK    9  A    between atoms: C_10  and  O_11 
REMARK   10  A    between atoms: C_10  and  C_12 
REMARK   11  A    between atoms: C_12  and  O_13 
ROOT
HETATM    1  P   UNK N   1      33.983  18.043   8.259  0.00  0.00     0.393 P 
HETATM    2  O   UNK N   1      34.983  19.229   8.184  0.00  0.00    -0.631 OA
ENDROOT
BRANCH   1   3
HETATM    3  O   UNK N   1      35.134  17.625   9.495  0.00  0.00    -0.295 OA
BRANCH   3   4
HETATM    4  C   UNK N   1      34.828  16.317   9.880  0.00  0.00     0.199 C 
BRANCH   4   5
HETATM    5  C   UNK N   1      35.357  16.087  11.279  0.00  0.00     0.138 C 
BRANCH   5   6
HETATM    6  N   UNK N   1      36.716  15.587  11.213  0.00  0.00    -0.428 N 
HETATM    7  H   UNK N   1      37.540  15.892  11.731  0.00  0.00     0.149 HD
HETATM    8  H   UNK N   1      36.871  14.822  10.555  0.00  0.00     0.149 HD
ENDBRANCH   5   6
ENDBRANCH   4   5
ENDBRANCH   3   4
ENDBRANCH   1   3
BRANCH   1   9
HETATM    9  O   UNK N   1      34.797  16.546   7.908  0.00  0.00    -0.307 OA
HETATM   10  H   UNK N   1      35.696  16.245   8.116  0.00  0.00     0.222 HD
ENDBRANCH   1   9
BRANCH   1  11
HETATM   11  O   UNK N   1      34.469  18.038   6.588  0.00  0.00    -0.294 OA
BRANCH  11  12
HETATM   12  C   UNK N   1      33.792  16.970   5.991  0.00  0.00     0.214 C 
BRANCH  12  13
HETATM   13  C   UNK N   1      32.675  17.517   5.128  0.00  0.00     0.166 C 
BRANCH  13  14
HETATM   14  O   UNK N   1      31.454  16.990   5.552  0.00  0.00    -0.391 OA
HETATM   15  H   UNK N   1      31.426  16.150   6.035  0.00  0.00     0.210 HD
ENDBRANCH  13  14
BRANCH  13  16
HETATM   16  C   UNK N   1      32.914  17.163   3.674  0.00  0.00     0.198 C 
BRANCH  16  17
HETATM   17  O   UNK N   1      31.767  17.435   2.930  0.00  0.00    -0.398 OA
HETATM   18  H   UNK N   1      31.247  18.252   2.871  0.00  0.00     0.209 HD
ENDBRANCH  16  17
ENDBRANCH  13  16
ENDBRANCH  12  13
ENDBRANCH  11  12
ENDBRANCH   1  11
TORSDOF 11
ENDMDL
MODEL 9
REMARK VINA RESULT:      -4.2      6.539      9.007
REMARK  11 active torsions:
REMARK  status: ('A' for Active; 'I' for Inactive)
REMARK    1  A    between atoms: N_1  and  C_2 
REMARK    2  A    between atoms: C_2  and  C_3 
REMARK    3  A    between atoms: C_3  and  O_4 
REMARK    4  A    between atoms: P_5  and  O_4 
REMARK    5  A    between atoms: P_5  and  O_6 
REMARK    6  A    between atoms: P_5  and  O_8 
REMARK    7  A    between atoms: O_8  and  C_9 
REMARK    8  A    between atoms: C_9  and  C_10 
REMARK    9  A    between atoms: C_10  and  O_11 
REMARK   10  A    between atoms: C_10  and  C_12 
REMARK   11  A    between atoms: C_12  and  O_13 
ROOT
HETATM    1  P   UNK N   1      35.978  12.425  14.909  0.00  0.00     0.393 P 
HETATM    2  O   UNK N   1      34.610  13.142  14.744  0.00  0.00    -0.631 OA
ENDROOT
BRANCH   1   3
HETATM    3  O   UNK N   1      36.027  13.599  16.192  0.00  0.00    -0.295 OA
BRANCH   3   4
HETATM    4  C   UNK N   1      35.047  13.208  17.108  0.00  0.00     0.199 C 
BRANCH   4   5
HETATM    5  C   UNK N   1      35.200  14.036  18.366  0.00  0.00     0.138 C 
BRANCH   5   6
HETATM    6  N   UNK N   1      35.235  13.165  19.525  0.00  0.00    -0.428 N 
HETATM    7  H   UNK N   1      34.506  12.552  19.891  0.00  0.00     0.149 HD
HETATM    8  H   UNK N   1      36.111  13.165  20.048  0.00  0.00     0.149 HD
ENDBRANCH   5   6
ENDBRANCH   4   5
ENDBRANCH   3   4
ENDBRANCH   1   3
BRANCH   1   9
HETATM    9  O   UNK N   1      37.281  13.560  14.702  0.00  0.00    -0.307 OA
HETATM   10  H   UNK N   1      37.772  13.829  13.909  0.00  0.00     0.222 HD
ENDBRANCH   1   9
BRANCH   1  11
HETATM   11  O   UNK N   1      36.013  12.954  13.252  0.00  0.00    -0.294 OA
BRANCH  11  12
HETATM   12  C   UNK N   1      36.103  14.349  13.292  0.00  0.00     0.214 C 
BRANCH  12  13
HETATM   13  C   UNK N   1      35.401  14.921  12.078  0.00  0.00     0.166 C 
BRANCH  13  14
HETATM   14  O   UNK N   1      34.240  14.190  11.819  0.00  0.00    -0.391 OA
HETATM   15  H   UNK N   1      33.369  14.593  11.953  0.00  0.00     0.210 HD
ENDBRANCH  13  14
BRANCH  13  16
HETATM   16  C   UNK N   1      36.319  14.878  10.874  0.00  0.00     0.198 C 
BRANCH  16  17
HETATM   17  O   UNK N   1      37.039  16.070  10.790  0.00  0.00    -0.398 OA
HETATM   18  H   UNK N   1      37.920  16.235  10.419  0.00  0.00     0.209 HD
ENDBRANCH  16  17
ENDBRANCH  13  16
ENDBRANCH  12  13
ENDBRANCH  11  12
ENDBRANCH   1  11
TORSDOF 11
ENDMDL
