MODEL 1
REMARK VINA RESULT:      -7.4      0.000      0.000
REMARK  27 active torsions:
REMARK  status: ('A' for Active; 'I' for Inactive)
REMARK    1  A    between atoms: C_7  and  C_3 
REMARK    2  A    between atoms: O_47  and  C_3 
REMARK    3  A    between atoms: C_8  and  C_4 
REMARK    4  A    between atoms: O_48  and  C_4 
REMARK    5  A    between atoms: O_31  and  C_9 
REMARK    6  A    between atoms: C_11  and  O_32 
REMARK    7  A    between atoms: C_12  and  O_33 
REMARK    8  A    between atoms: C_13  and  O_34 
REMARK    9  A    between atoms: C_14  and  O_35 
REMARK   10  A    between atoms: N_20  and  C_15 
REMARK   11  A    between atoms: C_17  and  N_29 
REMARK   12  A    between atoms: C_18  and  N_30 
REMARK   13  A    between atoms: P_55  and  O_37 
REMARK   14  A    between atoms: P_56  and  O_39 
REMARK   15  A    between atoms: P_57  and  O_41 
REMARK   16  A    between atoms: P_58  and  O_43 
REMARK   17  A    between atoms: P_59  and  O_45 
REMARK   18  A    between atoms: P_55  and  O_47 
REMARK   19  A    between atoms: P_56  and  O_48 
REMARK   20  A    between atoms: P_55  and  O_51 
REMARK   21  A    between atoms: P_57  and  O_51 
REMARK   22  A    between atoms: P_56  and  O_52 
REMARK   23  A    between atoms: P_58  and  O_52 
REMARK   24  A    between atoms: P_57  and  O_53 
REMARK   25  A    between atoms: P_59  and  O_53 
REMARK   26  A    between atoms: P_58  and  O_54 
REMARK   27  A    between atoms: P_59  and  O_54 
ROOT
HETATM    1  O   UNK N   1      32.903  17.517   4.894  0.00  0.00    -0.195 OA
ENDROOT
BRANCH   1   2
HETATM    2  P   UNK N   1      33.047  16.227   3.769  0.00  0.00     0.410 P 
HETATM    3  O   UNK N   1      32.513  16.395   2.323  0.00  0.00    -0.631 OA
BRANCH   2   4
HETATM    4  O   UNK N   1      32.778  14.636   4.395  0.00  0.00    -0.307 OA
HETATM    5  H   UNK N   1      31.902  14.224   4.322  0.00  0.00     0.222 HD
ENDBRANCH   2   4
BRANCH   2   6
HETATM    6  O   UNK N   1      31.410  16.745   4.192  0.00  0.00    -0.195 OA
BRANCH   6   7
HETATM    7  P   UNK N   1      30.090  15.617   4.025  0.00  0.00     0.401 P 
HETATM    8  O   UNK N   1      30.118  14.844   5.371  0.00  0.00    -0.631 OA
BRANCH   7   9
HETATM    9  O   UNK N   1      30.302  14.385   2.818  0.00  0.00    -0.307 OA
HETATM   10  H   UNK N   1      30.026  13.473   2.995  0.00  0.00     0.222 HD
ENDBRANCH   7   9
BRANCH   7  11
HETATM   11  O   UNK N   1      28.564  16.441   4.005  0.00  0.00    -0.294 OA
BRANCH  11  12
HETATM   12  C   UNK N   1      27.835  15.833   5.037  0.00  0.00     0.215 C 
BRANCH  12  13
HETATM   13  C   UNK N   1      26.491  15.352   4.538  0.00  0.00     0.180 C 
HETATM   14  C   UNK N   1      26.487  13.948   3.896  0.00  0.00     0.182 C 
HETATM   15  C   UNK N   1      25.370  13.224   4.656  0.00  0.00     0.198 C 
HETATM   16  C   UNK N   1      24.613  14.418   5.226  0.00  0.00     0.262 C 
HETATM   17  O   UNK N   1      25.601  15.334   5.611  0.00  0.00    -0.353 OA
BRANCH  14  18
HETATM   18  O   UNK N   1      27.710  13.274   4.010  0.00  0.00    -0.390 OA
HETATM   19  H   UNK N   1      28.405  13.028   4.639  0.00  0.00     0.210 HD
ENDBRANCH  14  18
BRANCH  15  20
HETATM   20  O   UNK N   1      25.911  12.468   5.698  0.00  0.00    -0.388 OA
HETATM   21  H   UNK N   1      26.201  11.799   6.339  0.00  0.00     0.210 HD
ENDBRANCH  15  20
BRANCH  16  22
HETATM   22  N   UNK N   1      23.722  14.191   6.370  0.00  0.00    -0.297 N 
HETATM   23  C   UNK N   1      22.370  14.081   6.253  0.00  0.00     0.188 A 
HETATM   24  N   UNK N   1      21.793  13.692   7.419  0.00  0.00    -0.346 N 
HETATM   25  C   UNK N   1      22.825  13.565   8.267  0.00  0.00     0.122 A 
ATOM     26  HN  UNK N   1      20.804  13.533   7.607  1.00  0.00     0.167 HD
HETATM   27  C   UNK N   1      22.828  13.144   9.581  0.00  0.00     0.131 A 
HETATM   28  C   UNK N   1      23.983  13.876   7.645  0.00  0.00     0.142 A 
HETATM   29  N   UNK N   1      24.027  13.094  10.233  0.00  0.00    -0.337 N 
HETATM   30  C   UNK N   1      25.195  13.442   9.592  0.00  0.00     0.183 A 
ATOM     31  HN  UNK N   1      24.058  12.795  11.207  1.00  0.00     0.168 HD
HETATM   32  N   UNK N   1      25.181  13.820   8.273  0.00  0.00    -0.336 N 
ATOM     33  HN  UNK N   1      26.045  14.053   7.782  1.00  0.00     0.168 HD
BRANCH  27  34
HETATM   34  N   UNK N   1      21.637  12.745  10.223  0.00  0.00    -0.383 N 
HETATM   35  H   UNK N   1      21.453  11.792  10.389  0.00  0.00     0.157 HD
HETATM   36  H   UNK N   1      20.984  13.425  10.508  0.00  0.00     0.157 HD
ENDBRANCH  27  34
ENDBRANCH  16  22
ENDBRANCH  12  13
ENDBRANCH  11  12
ENDBRANCH   7  11
ENDBRANCH   6   7
ENDBRANCH   2   6
ENDBRANCH   1   2
BRANCH   1  37
HETATM   37  P   UNK N   1      33.673  17.092   6.369  0.00  0.00     0.410 P 
HETATM   38  O   UNK N   1      34.088  18.355   7.171  0.00  0.00    -0.631 OA
BRANCH  37  39
HETATM   39  O   UNK N   1      35.072  16.163   5.923  0.00  0.00    -0.307 OA
HETATM   40  H   UNK N   1      35.661  16.402   5.190  0.00  0.00     0.222 HD
ENDBRANCH  37  39
BRANCH  37  41
HETATM   41  O   UNK N   1      32.391  16.225   7.260  0.00  0.00    -0.195 OA
BRANCH  41  42
HETATM   42  P   UNK N   1      31.465  17.207   8.401  0.00  0.00     0.410 P 
HETATM   43  O   UNK N   1      31.514  15.807   9.063  0.00  0.00    -0.631 OA
BRANCH  42  44
HETATM   44  O   UNK N   1      30.956  17.553   6.771  0.00  0.00    -0.307 OA
HETATM   45  H   UNK N   1      31.089  18.435   6.389  0.00  0.00     0.222 HD
ENDBRANCH  42  44
BRANCH  42  46
HETATM   46  O   UNK N   1      29.788  16.716   8.409  0.00  0.00    -0.195 OA
BRANCH  46  47
HETATM   47  P   UNK N   1      28.837  18.183   8.389  0.00  0.00     0.401 P 
HETATM   48  O   UNK N   1      29.720  19.348   8.916  0.00  0.00    -0.631 OA
BRANCH  47  49
HETATM   49  O   UNK N   1      27.482  18.049   9.467  0.00  0.00    -0.307 OA
HETATM   50  H   UNK N   1      26.937  18.478  10.145  0.00  0.00     0.222 HD
ENDBRANCH  47  49
BRANCH  47  51
HETATM   51  O   UNK N   1      28.314  18.575   6.779  0.00  0.00    -0.294 OA
BRANCH  51  52
HETATM   52  C   UNK N   1      27.493  19.690   6.970  0.00  0.00     0.215 C 
BRANCH  52  53
HETATM   53  C   UNK N   1      26.787  20.124   5.724  0.00  0.00     0.180 C 
HETATM   54  C   UNK N   1      27.537  20.320   4.386  0.00  0.00     0.182 C 
HETATM   55  C   UNK N   1      26.405  20.043   3.357  0.00  0.00     0.198 C 
HETATM   56  C   UNK N   1      25.203  19.899   4.301  0.00  0.00     0.263 C 
HETATM   57  O   UNK N   1      25.731  19.274   5.433  0.00  0.00    -0.353 OA
BRANCH  54  58
HETATM   58  O   UNK N   1      28.553  19.376   4.212  0.00  0.00    -0.390 OA
HETATM   59  H   UNK N   1      28.686  18.414   4.221  0.00  0.00     0.210 HD
ENDBRANCH  54  58
BRANCH  55  60
HETATM   60  O   UNK N   1      26.252  21.099   2.455  0.00  0.00    -0.388 OA
HETATM   61  H   UNK N   1      25.486  21.694   2.479  0.00  0.00     0.210 HD
ENDBRANCH  55  60
BRANCH  56  62
HETATM   62  N   UNK N   1      23.954  19.249   3.901  0.00  0.00    -0.280 N 
HETATM   63  C   UNK N   1      23.677  18.011   4.415  0.00  0.00     0.103 A 
HETATM   64  C   UNK N   1      22.401  17.478   4.346  0.00  0.00     0.073 A 
HETATM   65  C   UNK N   1      21.400  18.233   3.754  0.00  0.00     0.144 A 
HETATM   66  N   UNK N   1      21.692  19.437   3.195  0.00  0.00    -0.289 N 
HETATM   67  C   UNK N   1      22.959  19.950   3.258  0.00  0.00     0.330 A 
ATOM     68  HN  UNK N   1      20.959  19.965   2.723  1.00  0.00     0.172 HD
HETATM   69  O   UNK N   1      23.176  21.069   2.816  0.00  0.00    -0.246 OA
BRANCH  65  70
HETATM   70  O   UNK N   1      20.136  17.784   3.757  0.00  0.00    -0.346 OA
HETATM   71  H   UNK N   1      19.608  17.855   2.987  0.00  0.00     0.219 HD
ENDBRANCH  65  70
ENDBRANCH  56  62
ENDBRANCH  52  53
ENDBRANCH  51  52
ENDBRANCH  47  51
ENDBRANCH  46  47
ENDBRANCH  42  46
ENDBRANCH  41  42
ENDBRANCH  37  41
ENDBRANCH   1  37
TORSDOF 27
ENDMDL
MODEL 2
REMARK VINA RESULT:      -7.1      2.059      2.886
REMARK  27 active torsions:
REMARK  status: ('A' for Active; 'I' for Inactive)
REMARK    1  A    between atoms: C_7  and  C_3 
REMARK    2  A    between atoms: O_47  and  C_3 
REMARK    3  A    between atoms: C_8  and  C_4 
REMARK    4  A    between atoms: O_48  and  C_4 
REMARK    5  A    between atoms: O_31  and  C_9 
REMARK    6  A    between atoms: C_11  and  O_32 
REMARK    7  A    between atoms: C_12  and  O_33 
REMARK    8  A    between atoms: C_13  and  O_34 
REMARK    9  A    between atoms: C_14  and  O_35 
REMARK   10  A    between atoms: N_20  and  C_15 
REMARK   11  A    between atoms: C_17  and  N_29 
REMARK   12  A    between atoms: C_18  and  N_30 
REMARK   13  A    between atoms: P_55  and  O_37 
REMARK   14  A    between atoms: P_56  and  O_39 
REMARK   15  A    between atoms: P_57  and  O_41 
REMARK   16  A    between atoms: P_58  and  O_43 
REMARK   17  A    between atoms: P_59  and  O_45 
REMARK   18  A    between atoms: P_55  and  O_47 
REMARK   19  A    between atoms: P_56  and  O_48 
REMARK   20  A    between atoms: P_55  and  O_51 
REMARK   21  A    between atoms: P_57  and  O_51 
REMARK   22  A    between atoms: P_56  and  O_52 
REMARK   23  A    between atoms: P_58  and  O_52 
REMARK   24  A    between atoms: P_57  and  O_53 
REMARK   25  A    between atoms: P_59  and  O_53 
REMARK   26  A    between atoms: P_58  and  O_54 
REMARK   27  A    between atoms: P_59  and  O_54 
ROOT
HETATM    1  O   UNK N   1      33.056  17.403   4.864  0.00  0.00    -0.195 OA
ENDROOT
BRANCH   1   2
HETATM    2  P   UNK N   1      33.116  16.021   3.845  0.00  0.00     0.410 P 
HETATM    3  O   UNK N   1      32.660  16.126   2.366  0.00  0.00    -0.631 OA
BRANCH   2   4
HETATM    4  O   UNK N   1      32.666  14.516   4.572  0.00  0.00    -0.307 OA
HETATM    5  H   UNK N   1      32.145  14.506   5.391  0.00  0.00     0.222 HD
ENDBRANCH   2   4
BRANCH   2   6
HETATM    6  O   UNK N   1      31.522  16.724   4.149  0.00  0.00    -0.195 OA
BRANCH   6   7
HETATM    7  P   UNK N   1      30.101  15.737   3.936  0.00  0.00     0.401 P 
HETATM    8  O   UNK N   1      29.874  15.140   5.351  0.00  0.00    -0.631 OA
BRANCH   7   9
HETATM    9  O   UNK N   1      30.296  14.348   2.910  0.00  0.00    -0.307 OA
HETATM   10  H   UNK N   1      30.048  14.391   1.974  0.00  0.00     0.222 HD
ENDBRANCH   7   9
BRANCH   7  11
HETATM   11  O   UNK N   1      28.702  16.716   3.625  0.00  0.00    -0.294 OA
BRANCH  11  12
HETATM   12  C   UNK N   1      27.625  15.892   3.982  0.00  0.00     0.215 C 
BRANCH  12  13
HETATM   13  C   UNK N   1      26.486  16.037   2.997  0.00  0.00     0.180 C 
HETATM   14  C   UNK N   1      26.608  15.185   1.715  0.00  0.00     0.182 C 
HETATM   15  C   UNK N   1      25.268  14.444   1.664  0.00  0.00     0.198 C 
HETATM   16  C   UNK N   1      24.437  15.324   2.591  0.00  0.00     0.262 C 
HETATM   17  O   UNK N   1      25.300  15.679   3.636  0.00  0.00    -0.353 OA
BRANCH  14  18
HETATM   18  O   UNK N   1      27.690  14.294   1.732  0.00  0.00    -0.390 OA
HETATM   19  H   UNK N   1      28.384  13.903   1.179  0.00  0.00     0.210 HD
ENDBRANCH  14  18
BRANCH  15  20
HETATM   20  O   UNK N   1      25.402  13.169   2.220  0.00  0.00    -0.388 OA
HETATM   21  H   UNK N   1      25.310  12.286   2.611  0.00  0.00     0.210 HD
ENDBRANCH  15  20
BRANCH  16  22
HETATM   22  N   UNK N   1      23.216  14.756   3.174  0.00  0.00    -0.297 N 
HETATM   23  C   UNK N   1      23.163  14.222   4.426  0.00  0.00     0.188 A 
HETATM   24  N   UNK N   1      21.890  13.934   4.798  0.00  0.00    -0.346 N 
HETATM   25  C   UNK N   1      21.149  14.302   3.741  0.00  0.00     0.122 A 
ATOM     26  HN  UNK N   1      21.569  13.532   5.678  1.00  0.00     0.167 HD
HETATM   27  C   UNK N   1      19.778  14.280   3.586  0.00  0.00     0.131 A 
HETATM   28  C   UNK N   1      21.943  14.783   2.759  0.00  0.00     0.142 A 
HETATM   29  N   UNK N   1      19.263  14.721   2.400  0.00  0.00    -0.337 N 
HETATM   30  C   UNK N   1      20.089  15.181   1.399  0.00  0.00     0.183 A 
ATOM     31  HN  UNK N   1      18.255  14.708   2.254  1.00  0.00     0.168 HD
HETATM   32  N   UNK N   1      21.448  15.234   1.583  0.00  0.00    -0.336 N 
ATOM     33  HN  UNK N   1      22.064  15.600   0.857  1.00  0.00     0.168 HD
BRANCH  27  34
HETATM   34  N   UNK N   1      18.931  13.850   4.629  0.00  0.00    -0.383 N 
HETATM   35  H   UNK N   1      18.541  14.501   5.256  0.00  0.00     0.157 HD
HETATM   36  H   UNK N   1      18.730  12.892   4.730  0.00  0.00     0.157 HD
ENDBRANCH  27  34
ENDBRANCH  16  22
ENDBRANCH  12  13
ENDBRANCH  11  12
ENDBRANCH   7  11
ENDBRANCH   6   7
ENDBRANCH   2   6
ENDBRANCH   1   2
BRANCH   1  37
HETATM   37  P   UNK N   1      33.761  17.035   6.385  0.00  0.00     0.410 P 
HETATM   38  O   UNK N   1      34.135  18.327   7.158  0.00  0.00    -0.631 OA
BRANCH  37  39
HETATM   39  O   UNK N   1      35.181  16.098   6.035  0.00  0.00    -0.307 OA
HETATM   40  H   UNK N   1      35.158  15.237   5.586  0.00  0.00     0.222 HD
ENDBRANCH  37  39
BRANCH  37  41
HETATM   41  O   UNK N   1      32.444  16.193   7.250  0.00  0.00    -0.195 OA
BRANCH  41  42
HETATM   42  P   UNK N   1      31.542  17.182   8.404  0.00  0.00     0.410 P 
HETATM   43  O   UNK N   1      31.588  15.781   9.064  0.00  0.00    -0.631 OA
BRANCH  42  44
HETATM   44  O   UNK N   1      31.015  17.535   6.781  0.00  0.00    -0.307 OA
HETATM   45  H   UNK N   1      30.174  17.992   6.623  0.00  0.00     0.222 HD
ENDBRANCH  42  44
BRANCH  42  46
HETATM   46  O   UNK N   1      29.862  16.706   8.434  0.00  0.00    -0.195 OA
BRANCH  46  47
HETATM   47  P   UNK N   1      28.923  18.182   8.415  0.00  0.00     0.401 P 
HETATM   48  O   UNK N   1      29.818  19.340   8.936  0.00  0.00    -0.631 OA
BRANCH  47  49
HETATM   49  O   UNK N   1      27.571  18.062   9.498  0.00  0.00    -0.307 OA
HETATM   50  H   UNK N   1      26.758  18.473   9.832  0.00  0.00     0.222 HD
ENDBRANCH  47  49
BRANCH  47  51
HETATM   51  O   UNK N   1      28.398  18.576   6.806  0.00  0.00    -0.294 OA
BRANCH  51  52
HETATM   52  C   UNK N   1      27.633  19.731   6.991  0.00  0.00     0.215 C 
BRANCH  52  53
HETATM   53  C   UNK N   1      26.928  20.178   5.749  0.00  0.00     0.180 C 
HETATM   54  C   UNK N   1      27.669  20.333   4.400  0.00  0.00     0.182 C 
HETATM   55  C   UNK N   1      26.516  20.088   3.388  0.00  0.00     0.198 C 
HETATM   56  C   UNK N   1      25.321  19.997   4.346  0.00  0.00     0.263 C 
HETATM   57  O   UNK N   1      25.839  19.364   5.479  0.00  0.00    -0.353 OA
BRANCH  54  58
HETATM   58  O   UNK N   1      28.648  19.351   4.224  0.00  0.00    -0.390 OA
HETATM   59  H   UNK N   1      28.799  18.409   4.404  0.00  0.00     0.210 HD
ENDBRANCH  54  58
BRANCH  55  60
HETATM   60  O   UNK N   1      26.390  21.139   2.476  0.00  0.00    -0.388 OA
HETATM   61  H   UNK N   1      26.679  21.062   1.553  0.00  0.00     0.210 HD
ENDBRANCH  55  60
BRANCH  56  62
HETATM   62  N   UNK N   1      24.044  19.388   3.968  0.00  0.00    -0.280 N 
HETATM   63  C   UNK N   1      23.631  18.277   4.652  0.00  0.00     0.103 A 
HETATM   64  C   UNK N   1      22.319  17.841   4.578  0.00  0.00     0.073 A 
HETATM   65  C   UNK N   1      21.423  18.563   3.804  0.00  0.00     0.144 A 
HETATM   66  N   UNK N   1      21.852  19.632   3.083  0.00  0.00    -0.289 N 
HETATM   67  C   UNK N   1      23.154  20.049   3.153  0.00  0.00     0.330 A 
ATOM     68  HN  UNK N   1      21.197  20.130   2.481  1.00  0.00     0.172 HD
HETATM   69  O   UNK N   1      23.493  21.059   2.555  0.00  0.00    -0.246 OA
BRANCH  65  70
HETATM   70  O   UNK N   1      20.127  18.220   3.789  0.00  0.00    -0.346 OA
HETATM   71  H   UNK N   1      19.518  18.653   4.355  0.00  0.00     0.219 HD
ENDBRANCH  65  70
ENDBRANCH  56  62
ENDBRANCH  52  53
ENDBRANCH  51  52
ENDBRANCH  47  51
ENDBRANCH  46  47
ENDBRANCH  42  46
ENDBRANCH  41  42
ENDBRANCH  37  41
ENDBRANCH   1  37
TORSDOF 27
ENDMDL
MODEL 3
REMARK VINA RESULT:      -7.1      4.523      6.811
REMARK  27 active torsions:
REMARK  status: ('A' for Active; 'I' for Inactive)
REMARK    1  A    between atoms: C_7  and  C_3 
REMARK    2  A    between atoms: O_47  and  C_3 
REMARK    3  A    between atoms: C_8  and  C_4 
REMARK    4  A    between atoms: O_48  and  C_4 
REMARK    5  A    between atoms: O_31  and  C_9 
REMARK    6  A    between atoms: C_11  and  O_32 
REMARK    7  A    between atoms: C_12  and  O_33 
REMARK    8  A    between atoms: C_13  and  O_34 
REMARK    9  A    between atoms: C_14  and  O_35 
REMARK   10  A    between atoms: N_20  and  C_15 
REMARK   11  A    between atoms: C_17  and  N_29 
REMARK   12  A    between atoms: C_18  and  N_30 
REMARK   13  A    between atoms: P_55  and  O_37 
REMARK   14  A    between atoms: P_56  and  O_39 
REMARK   15  A    between atoms: P_57  and  O_41 
REMARK   16  A    between atoms: P_58  and  O_43 
REMARK   17  A    between atoms: P_59  and  O_45 
REMARK   18  A    between atoms: P_55  and  O_47 
REMARK   19  A    between atoms: P_56  and  O_48 
REMARK   20  A    between atoms: P_55  and  O_51 
REMARK   21  A    between atoms: P_57  and  O_51 
REMARK   22  A    between atoms: P_56  and  O_52 
REMARK   23  A    between atoms: P_58  and  O_52 
REMARK   24  A    between atoms: P_57  and  O_53 
REMARK   25  A    between atoms: P_59  and  O_53 
REMARK   26  A    between atoms: P_58  and  O_54 
REMARK   27  A    between atoms: P_59  and  O_54 
ROOT
HETATM    1  O   UNK N   1      34.287  16.222   8.779  0.00  0.00    -0.195 OA
ENDROOT
BRANCH   1   2
HETATM    2  P   UNK N   1      34.923  16.271  10.374  0.00  0.00     0.410 P 
HETATM    3  O   UNK N   1      36.429  16.566  10.599  0.00  0.00    -0.631 OA
BRANCH   2   4
HETATM    4  O   UNK N   1      34.305  15.091  11.479  0.00  0.00    -0.307 OA
HETATM    5  H   UNK N   1      33.736  14.374  11.158  0.00  0.00     0.222 HD
ENDBRANCH   2   4
BRANCH   2   6
HETATM    6  O   UNK N   1      35.562  15.026   9.293  0.00  0.00    -0.195 OA
BRANCH   6   7
HETATM    7  P   UNK N   1      36.944  14.089   9.796  0.00  0.00     0.401 P 
HETATM    8  O   UNK N   1      36.511  13.543  11.182  0.00  0.00    -0.631 OA
BRANCH   7   9
HETATM    9  O   UNK N   1      38.389  14.997  10.124  0.00  0.00    -0.307 OA
HETATM   10  H   UNK N   1      38.997  14.714  10.824  0.00  0.00     0.222 HD
ENDBRANCH   7   9
BRANCH   7  11
HETATM   11  O   UNK N   1      37.143  12.685   8.795  0.00  0.00    -0.294 OA
BRANCH  11  12
HETATM   12  C   UNK N   1      36.396  11.694   9.448  0.00  0.00     0.215 C 
BRANCH  12  13
HETATM   13  C   UNK N   1      35.122  11.394   8.690  0.00  0.00     0.180 C 
HETATM   14  C   UNK N   1      33.825  11.454   9.526  0.00  0.00     0.182 C 
HETATM   15  C   UNK N   1      32.933  12.398   8.712  0.00  0.00     0.198 C 
HETATM   16  C   UNK N   1      33.629  12.328   7.358  0.00  0.00     0.262 C 
HETATM   17  O   UNK N   1      35.000  12.311   7.647  0.00  0.00    -0.353 OA
BRANCH  14  18
HETATM   18  O   UNK N   1      34.019  11.925  10.831  0.00  0.00    -0.390 OA
HETATM   19  H   UNK N   1      33.649  12.513  11.508  0.00  0.00     0.210 HD
ENDBRANCH  14  18
BRANCH  15  20
HETATM   20  O   UNK N   1      33.019  13.697   9.220  0.00  0.00    -0.388 OA
HETATM   21  H   UNK N   1      32.896  14.605   9.537  0.00  0.00     0.210 HD
ENDBRANCH  15  20
BRANCH  16  22
HETATM   22  N   UNK N   1      33.373  13.402   6.392  0.00  0.00    -0.297 N 
HETATM   23  C   UNK N   1      34.286  14.367   6.089  0.00  0.00     0.188 A 
HETATM   24  N   UNK N   1      33.882  15.130   5.041  0.00  0.00    -0.346 N 
HETATM   25  C   UNK N   1      32.692  14.614   4.700  0.00  0.00     0.122 A 
ATOM     26  HN  UNK N   1      34.372  15.914   4.611  1.00  0.00     0.167 HD
HETATM   27  C   UNK N   1      31.851  14.969   3.665  0.00  0.00     0.131 A 
HETATM   28  C   UNK N   1      32.376  13.586   5.517  0.00  0.00     0.142 A 
HETATM   29  N   UNK N   1      30.683  14.275   3.525  0.00  0.00    -0.337 N 
HETATM   30  C   UNK N   1      30.364  13.247   4.385  0.00  0.00     0.183 A 
ATOM     31  HN  UNK N   1      30.039  14.521   2.774  1.00  0.00     0.168 HD
HETATM   32  N   UNK N   1      31.229  12.880   5.385  0.00  0.00    -0.336 N 
ATOM     33  HN  UNK N   1      31.014  12.102   6.008  1.00  0.00     0.168 HD
BRANCH  27  34
HETATM   34  N   UNK N   1      32.199  15.992   2.758  0.00  0.00    -0.383 N 
HETATM   35  H   UNK N   1      33.042  16.490   2.867  0.00  0.00     0.157 HD
HETATM   36  H   UNK N   1      31.595  16.210   2.012  0.00  0.00     0.157 HD
ENDBRANCH  27  34
ENDBRANCH  16  22
ENDBRANCH  12  13
ENDBRANCH  11  12
ENDBRANCH   7  11
ENDBRANCH   6   7
ENDBRANCH   2   6
ENDBRANCH   1   2
BRANCH   1  37
HETATM   37  P   UNK N   1      34.226  17.810   8.128  0.00  0.00     0.410 P 
HETATM   38  O   UNK N   1      34.569  17.810   6.614  0.00  0.00    -0.631 OA
BRANCH  37  39
HETATM   39  O   UNK N   1      35.396  18.733   9.020  0.00  0.00    -0.307 OA
HETATM   40  H   UNK N   1      35.841  18.406   9.818  0.00  0.00     0.222 HD
ENDBRANCH  37  39
BRANCH  37  41
HETATM   41  O   UNK N   1      32.513  18.271   8.343  0.00  0.00    -0.195 OA
BRANCH  41  42
HETATM   42  P   UNK N   1      31.333  17.079   7.786  0.00  0.00     0.410 P 
HETATM   43  O   UNK N   1      31.705  17.867   6.505  0.00  0.00    -0.631 OA
BRANCH  42  44
HETATM   44  O   UNK N   1      30.813  17.769   9.299  0.00  0.00    -0.307 OA
HETATM   45  H   UNK N   1      31.009  17.324  10.139  0.00  0.00     0.222 HD
ENDBRANCH  42  44
BRANCH  42  46
HETATM   46  O   UNK N   1      29.832  17.862   7.356  0.00  0.00    -0.195 OA
BRANCH  46  47
HETATM   47  P   UNK N   1      29.154  16.949   6.027  0.00  0.00     0.401 P 
HETATM   48  O   UNK N   1      29.429  15.440   6.277  0.00  0.00    -0.631 OA
BRANCH  47  49
HETATM   49  O   UNK N   1      29.937  17.365   4.535  0.00  0.00    -0.307 OA
HETATM   50  H   UNK N   1      30.775  17.456   4.054  0.00  0.00     0.222 HD
ENDBRANCH  47  49
BRANCH  47  51
HETATM   51  O   UNK N   1      27.435  17.181   5.913  0.00  0.00    -0.294 OA
BRANCH  51  52
HETATM   52  C   UNK N   1      27.269  18.530   6.240  0.00  0.00     0.215 C 
BRANCH  52  53
HETATM   53  C   UNK N   1      26.430  19.278   5.253  0.00  0.00     0.180 C 
HETATM   54  C   UNK N   1      27.021  19.842   3.939  0.00  0.00     0.182 C 
HETATM   55  C   UNK N   1      25.771  19.842   3.017  0.00  0.00     0.198 C 
HETATM   56  C   UNK N   1      24.686  19.431   4.021  0.00  0.00     0.263 C 
HETATM   57  O   UNK N   1      25.331  18.527   4.869  0.00  0.00    -0.353 OA
BRANCH  54  58
HETATM   58  O   UNK N   1      27.990  18.994   3.395  0.00  0.00    -0.390 OA
HETATM   59  H   UNK N   1      28.446  18.827   2.555  0.00  0.00     0.210 HD
ENDBRANCH  54  58
BRANCH  55  60
HETATM   60  O   UNK N   1      25.533  21.102   2.461  0.00  0.00    -0.388 OA
HETATM   61  H   UNK N   1      25.121  21.821   2.965  0.00  0.00     0.210 HD
ENDBRANCH  55  60
BRANCH  56  62
HETATM   62  N   UNK N   1      23.385  18.898   3.612  0.00  0.00    -0.280 N 
HETATM   63  C   UNK N   1      23.094  17.597   3.920  0.00  0.00     0.103 A 
HETATM   64  C   UNK N   1      21.794  17.122   3.857  0.00  0.00     0.073 A 
HETATM   65  C   UNK N   1      20.786  18.000   3.486  0.00  0.00     0.144 A 
HETATM   66  N   UNK N   1      21.089  19.275   3.127  0.00  0.00    -0.289 N 
HETATM   67  C   UNK N   1      22.378  19.732   3.181  0.00  0.00     0.330 A 
ATOM     68  HN  UNK N   1      20.347  19.899   2.813  1.00  0.00     0.172 HD
HETATM   69  O   UNK N   1      22.609  20.904   2.927  0.00  0.00    -0.246 OA
BRANCH  65  70
HETATM   70  O   UNK N   1      19.508  17.594   3.508  0.00  0.00    -0.346 OA
HETATM   71  H   UNK N   1      19.028  17.504   2.709  0.00  0.00     0.219 HD
ENDBRANCH  65  70
ENDBRANCH  56  62
ENDBRANCH  52  53
ENDBRANCH  51  52
ENDBRANCH  47  51
ENDBRANCH  46  47
ENDBRANCH  42  46
ENDBRANCH  41  42
ENDBRANCH  37  41
ENDBRANCH   1  37
TORSDOF 27
ENDMDL
MODEL 4
REMARK VINA RESULT:      -6.9      7.430      9.563
REMARK  27 active torsions:
REMARK  status: ('A' for Active; 'I' for Inactive)
REMARK    1  A    between atoms: C_7  and  C_3 
REMARK    2  A    between atoms: O_47  and  C_3 
REMARK    3  A    between atoms: C_8  and  C_4 
REMARK    4  A    between atoms: O_48  and  C_4 
REMARK    5  A    between atoms: O_31  and  C_9 
REMARK    6  A    between atoms: C_11  and  O_32 
REMARK    7  A    between atoms: C_12  and  O_33 
REMARK    8  A    between atoms: C_13  and  O_34 
REMARK    9  A    between atoms: C_14  and  O_35 
REMARK   10  A    between atoms: N_20  and  C_15 
REMARK   11  A    between atoms: C_17  and  N_29 
REMARK   12  A    between atoms: C_18  and  N_30 
REMARK   13  A    between atoms: P_55  and  O_37 
REMARK   14  A    between atoms: P_56  and  O_39 
REMARK   15  A    between atoms: P_57  and  O_41 
REMARK   16  A    between atoms: P_58  and  O_43 
REMARK   17  A    between atoms: P_59  and  O_45 
REMARK   18  A    between atoms: P_55  and  O_47 
REMARK   19  A    between atoms: P_56  and  O_48 
REMARK   20  A    between atoms: P_55  and  O_51 
REMARK   21  A    between atoms: P_57  and  O_51 
REMARK   22  A    between atoms: P_56  and  O_52 
REMARK   23  A    between atoms: P_58  and  O_52 
REMARK   24  A    between atoms: P_57  and  O_53 
REMARK   25  A    between atoms: P_59  and  O_53 
REMARK   26  A    between atoms: P_58  and  O_54 
REMARK   27  A    between atoms: P_59  and  O_54 
ROOT
HETATM    1  O   UNK N   1      35.033  16.389   8.658  0.00  0.00    -0.195 OA
ENDROOT
BRANCH   1   2
HETATM    2  P   UNK N   1      35.279  16.415  10.358  0.00  0.00     0.410 P 
HETATM    3  O   UNK N   1      36.709  16.257  10.937  0.00  0.00    -0.631 OA
BRANCH   2   4
HETATM    4  O   UNK N   1      34.082  15.611  11.315  0.00  0.00    -0.307 OA
HETATM    5  H   UNK N   1      33.325  16.106  11.666  0.00  0.00     0.222 HD
ENDBRANCH   2   4
BRANCH   2   6
HETATM    6  O   UNK N   1      35.703  14.923   9.508  0.00  0.00    -0.195 OA
BRANCH   6   7
HETATM    7  P   UNK N   1      34.835  13.456   9.880  0.00  0.00     0.401 P 
HETATM    8  O   UNK N   1      35.489  12.414   8.933  0.00  0.00    -0.631 OA
BRANCH   7   9
HETATM    9  O   UNK N   1      33.155  13.444   9.437  0.00  0.00    -0.307 OA
HETATM   10  H   UNK N   1      32.496  13.874  10.003  0.00  0.00     0.222 HD
ENDBRANCH   7   9
BRANCH   7  11
HETATM   11  O   UNK N   1      35.199  12.906  11.484  0.00  0.00    -0.294 OA
BRANCH  11  12
HETATM   12  C   UNK N   1      34.672  11.607  11.525  0.00  0.00     0.215 C 
BRANCH  12  13
HETATM   13  C   UNK N   1      35.231  10.835  12.700  0.00  0.00     0.180 C 
HETATM   14  C   UNK N   1      36.766  10.666  12.710  0.00  0.00     0.182 C 
HETATM   15  C   UNK N   1      37.159  11.168  14.104  0.00  0.00     0.198 C 
HETATM   16  C   UNK N   1      35.815  11.071  14.816  0.00  0.00     0.262 C 
HETATM   17  O   UNK N   1      34.866  11.492  13.875  0.00  0.00    -0.353 OA
BRANCH  14  18
HETATM   18  O   UNK N   1      37.418  11.384  11.700  0.00  0.00    -0.390 OA
HETATM   19  H   UNK N   1      38.254  11.820  11.471  0.00  0.00     0.210 HD
ENDBRANCH  14  18
BRANCH  15  20
HETATM   20  O   UNK N   1      37.563  12.504  14.037  0.00  0.00    -0.388 OA
HETATM   21  H   UNK N   1      38.012  13.360  13.959  0.00  0.00     0.210 HD
ENDBRANCH  15  20
BRANCH  16  22
HETATM   22  N   UNK N   1      35.625  11.851  16.044  0.00  0.00    -0.297 N 
HETATM   23  C   UNK N   1      35.004  13.062  16.071  0.00  0.00     0.188 A 
HETATM   24  N   UNK N   1      34.791  13.491  17.342  0.00  0.00    -0.346 N 
HETATM   25  C   UNK N   1      35.300  12.513  18.107  0.00  0.00     0.122 A 
ATOM     26  HN  UNK N   1      34.347  14.358  17.645  1.00  0.00     0.167 HD
HETATM   27  C   UNK N   1      35.312  12.397  19.481  0.00  0.00     0.131 A 
HETATM   28  C   UNK N   1      35.814  11.533  17.332  0.00  0.00     0.142 A 
HETATM   29  N   UNK N   1      35.893  11.286  20.023  0.00  0.00    -0.337 N 
HETATM   30  C   UNK N   1      36.437  10.310  19.218  0.00  0.00     0.183 A 
ATOM     31  HN  UNK N   1      35.924  11.178  21.036  1.00  0.00     0.168 HD
HETATM   32  N   UNK N   1      36.381  10.420  17.852  0.00  0.00    -0.336 N 
ATOM     33  HN  UNK N   1      36.757   9.688  17.248  1.00  0.00     0.168 HD
BRANCH  27  34
HETATM   34  N   UNK N   1      34.716  13.376  20.303  0.00  0.00    -0.383 N 
HETATM   35  H   UNK N   1      34.074  14.022  19.926  0.00  0.00     0.157 HD
HETATM   36  H   UNK N   1      34.942  13.416  21.260  0.00  0.00     0.157 HD
ENDBRANCH  27  34
ENDBRANCH  16  22
ENDBRANCH  12  13
ENDBRANCH  11  12
ENDBRANCH   7  11
ENDBRANCH   6   7
ENDBRANCH   2   6
ENDBRANCH   1   2
BRANCH   1  37
HETATM   37  P   UNK N   1      34.346  17.877   8.146  0.00  0.00     0.410 P 
HETATM   38  O   UNK N   1      35.313  19.063   8.412  0.00  0.00    -0.631 OA
BRANCH  37  39
HETATM   39  O   UNK N   1      32.882  18.063   9.062  0.00  0.00    -0.307 OA
HETATM   40  H   UNK N   1      32.515  17.368   9.632  0.00  0.00     0.222 HD
ENDBRANCH  37  39
BRANCH  37  41
HETATM   41  O   UNK N   1      34.161  17.653   6.384  0.00  0.00    -0.195 OA
BRANCH  41  42
HETATM   42  P   UNK N   1      33.797  16.005   5.863  0.00  0.00     0.410 P 
HETATM   43  O   UNK N   1      33.913  16.801   4.538  0.00  0.00    -0.631 OA
BRANCH  42  44
HETATM   44  O   UNK N   1      32.804  16.429   7.230  0.00  0.00    -0.307 OA
HETATM   45  H   UNK N   1      32.202  15.778   7.625  0.00  0.00     0.222 HD
ENDBRANCH  42  44
BRANCH  42  46
HETATM   46  O   UNK N   1      32.180  15.915   5.206  0.00  0.00    -0.195 OA
BRANCH  46  47
HETATM   47  P   UNK N   1      31.644  14.265   5.420  0.00  0.00     0.401 P 
HETATM   48  O   UNK N   1      32.360  13.673   6.666  0.00  0.00    -0.631 OA
BRANCH  47  49
HETATM   49  O   UNK N   1      32.105  13.289   4.060  0.00  0.00    -0.307 OA
HETATM   50  H   UNK N   1      32.793  13.073   3.411  0.00  0.00     0.222 HD
ENDBRANCH  47  49
BRANCH  47  51
HETATM   51  O   UNK N   1      29.928  14.187   5.687  0.00  0.00    -0.294 OA
BRANCH  51  52
HETATM   52  C   UNK N   1      29.429  15.210   4.875  0.00  0.00     0.215 C 
BRANCH  52  53
HETATM   53  C   UNK N   1      28.538  16.164   5.606  0.00  0.00     0.180 C 
HETATM   54  C   UNK N   1      29.036  16.977   6.824  0.00  0.00     0.182 C 
HETATM   55  C   UNK N   1      28.117  18.228   6.753  0.00  0.00     0.198 C 
HETATM   56  C   UNK N   1      27.176  17.816   5.613  0.00  0.00     0.263 C 
HETATM   57  O   UNK N   1      27.995  17.097   4.738  0.00  0.00    -0.353 OA
BRANCH  54  58
HETATM   58  O   UNK N   1      30.368  17.379   6.676  0.00  0.00    -0.390 OA
HETATM   59  H   UNK N   1      31.100  17.736   7.203  0.00  0.00     0.210 HD
ENDBRANCH  54  58
BRANCH  55  60
HETATM   60  O   UNK N   1      27.437  18.444   7.955  0.00  0.00    -0.388 OA
HETATM   61  H   UNK N   1      27.886  18.421   8.814  0.00  0.00     0.210 HD
ENDBRANCH  55  60
BRANCH  56  62
HETATM   62  N   UNK N   1      26.362  18.778   4.867  0.00  0.00    -0.280 N 
HETATM   63  C   UNK N   1      27.000  19.815   4.242  0.00  0.00     0.103 A 
HETATM   64  C   UNK N   1      26.356  20.567   3.273  0.00  0.00     0.073 A 
HETATM   65  C   UNK N   1      25.051  20.238   2.938  0.00  0.00     0.144 A 
HETATM   66  N   UNK N   1      24.405  19.244   3.602  0.00  0.00    -0.289 N 
HETATM   67  C   UNK N   1      25.045  18.514   4.567  0.00  0.00     0.330 A 
ATOM     68  HN  UNK N   1      23.432  19.040   3.380  1.00  0.00     0.172 HD
HETATM   69  O   UNK N   1      24.465  17.576   5.093  0.00  0.00    -0.246 OA
BRANCH  65  70
HETATM   70  O   UNK N   1      24.437  20.887   1.938  0.00  0.00    -0.346 OA
HETATM   71  H   UNK N   1      24.369  20.492   1.091  0.00  0.00     0.219 HD
ENDBRANCH  65  70
ENDBRANCH  56  62
ENDBRANCH  52  53
ENDBRANCH  51  52
ENDBRANCH  47  51
ENDBRANCH  46  47
ENDBRANCH  42  46
ENDBRANCH  41  42
ENDBRANCH  37  41
ENDBRANCH   1  37
TORSDOF 27
ENDMDL
MODEL 5
REMARK VINA RESULT:      -6.9      5.995      8.391
REMARK  27 active torsions:
REMARK  status: ('A' for Active; 'I' for Inactive)
REMARK    1  A    between atoms: C_7  and  C_3 
REMARK    2  A    between atoms: O_47  and  C_3 
REMARK    3  A    between atoms: C_8  and  C_4 
REMARK    4  A    between atoms: O_48  and  C_4 
REMARK    5  A    between atoms: O_31  and  C_9 
REMARK    6  A    between atoms: C_11  and  O_32 
REMARK    7  A    between atoms: C_12  and  O_33 
REMARK    8  A    between atoms: C_13  and  O_34 
REMARK    9  A    between atoms: C_14  and  O_35 
REMARK   10  A    between atoms: N_20  and  C_15 
REMARK   11  A    between atoms: C_17  and  N_29 
REMARK   12  A    between atoms: C_18  and  N_30 
REMARK   13  A    between atoms: P_55  and  O_37 
REMARK   14  A    between atoms: P_56  and  O_39 
REMARK   15  A    between atoms: P_57  and  O_41 
REMARK   16  A    between atoms: P_58  and  O_43 
REMARK   17  A    between atoms: P_59  and  O_45 
REMARK   18  A    between atoms: P_55  and  O_47 
REMARK   19  A    between atoms: P_56  and  O_48 
REMARK   20  A    between atoms: P_55  and  O_51 
REMARK   21  A    between atoms: P_57  and  O_51 
REMARK   22  A    between atoms: P_56  and  O_52 
REMARK   23  A    between atoms: P_58  and  O_52 
REMARK   24  A    between atoms: P_57  and  O_53 
REMARK   25  A    between atoms: P_59  and  O_53 
REMARK   26  A    between atoms: P_58  and  O_54 
REMARK   27  A    between atoms: P_59  and  O_54 
ROOT
HETATM    1  O   UNK N   1      34.624  11.960   7.791  0.00  0.00    -0.195 OA
ENDROOT
BRANCH   1   2
HETATM    2  P   UNK N   1      35.251  10.375   8.008  0.00  0.00     0.410 P 
HETATM    3  O   UNK N   1      34.295   9.204   8.353  0.00  0.00    -0.631 OA
BRANCH   2   4
HETATM    4  O   UNK N   1      36.767  10.260   8.835  0.00  0.00    -0.307 OA
HETATM    5  H   UNK N   1      37.474  10.899   8.649  0.00  0.00     0.222 HD
ENDBRANCH   2   4
BRANCH   2   6
HETATM    6  O   UNK N   1      34.467  11.126   9.405  0.00  0.00    -0.195 OA
BRANCH   6   7
HETATM    7  P   UNK N   1      34.138  10.160  10.818  0.00  0.00     0.401 P 
HETATM    8  O   UNK N   1      35.444   9.340  10.993  0.00  0.00    -0.631 OA
BRANCH   7   9
HETATM    9  O   UNK N   1      32.897   8.957  10.635  0.00  0.00    -0.307 OA
HETATM   10  H   UNK N   1      32.645   8.643   9.753  0.00  0.00     0.222 HD
ENDBRANCH   7   9
BRANCH   7  11
HETATM   11  O   UNK N   1      34.028  11.150  12.239  0.00  0.00    -0.294 OA
BRANCH  11  12
HETATM   12  C   UNK N   1      35.302  11.055  12.818  0.00  0.00     0.215 C 
BRANCH  12  13
HETATM   13  C   UNK N   1      36.001  12.396  12.804  0.00  0.00     0.180 C 
HETATM   14  C   UNK N   1      37.327  12.442  12.014  0.00  0.00     0.182 C 
HETATM   15  C   UNK N   1      37.126  13.633  11.072  0.00  0.00     0.198 C 
HETATM   16  C   UNK N   1      35.988  14.354  11.785  0.00  0.00     0.262 C 
HETATM   17  O   UNK N   1      35.139  13.340  12.247  0.00  0.00    -0.353 OA
BRANCH  14  18
HETATM   18  O   UNK N   1      37.602  11.264  11.307  0.00  0.00    -0.390 OA
HETATM   19  H   UNK N   1      37.871  10.339  11.413  0.00  0.00     0.210 HD
ENDBRANCH  14  18
BRANCH  15  20
HETATM   20  O   UNK N   1      36.691  13.188   9.821  0.00  0.00    -0.388 OA
HETATM   21  H   UNK N   1      36.219  12.896   9.025  0.00  0.00     0.210 HD
ENDBRANCH  15  20
BRANCH  16  22
HETATM   22  N   UNK N   1      35.186  15.313  11.017  0.00  0.00    -0.297 N 
HETATM   23  C   UNK N   1      35.508  16.631  10.901  0.00  0.00     0.188 A 
HETATM   24  N   UNK N   1      34.719  17.264   9.995  0.00  0.00    -0.346 N 
HETATM   25  C   UNK N   1      33.895  16.303   9.551  0.00  0.00     0.122 A 
ATOM     26  HN  UNK N   1      34.747  18.245   9.716  1.00  0.00     0.167 HD
HETATM   27  C   UNK N   1      32.917  16.372   8.580  0.00  0.00     0.131 A 
HETATM   28  C   UNK N   1      34.163  15.134  10.172  0.00  0.00     0.142 A 
HETATM   29  N   UNK N   1      32.211  15.236   8.303  0.00  0.00    -0.337 N 
HETATM   30  C   UNK N   1      32.479  14.059   8.966  0.00  0.00     0.183 A 
ATOM     31  HN  UNK N   1      31.477  15.259   7.597  1.00  0.00     0.168 HD
HETATM   32  N   UNK N   1      33.482  13.997   9.900  0.00  0.00    -0.336 N 
ATOM     33  HN  UNK N   1      33.705  13.122  10.375  1.00  0.00     0.168 HD
BRANCH  27  34
HETATM   34  N   UNK N   1      32.674  17.567   7.871  0.00  0.00    -0.383 N 
HETATM   35  H   UNK N   1      31.754  17.831   7.637  0.00  0.00     0.157 HD
HETATM   36  H   UNK N   1      33.428  18.141   7.607  0.00  0.00     0.157 HD
ENDBRANCH  27  34
ENDBRANCH  16  22
ENDBRANCH  12  13
ENDBRANCH  11  12
ENDBRANCH   7  11
ENDBRANCH   6   7
ENDBRANCH   2   6
ENDBRANCH   1   2
BRANCH   1  37
HETATM   37  P   UNK N   1      35.511  12.774   6.567  0.00  0.00     0.410 P 
HETATM   38  O   UNK N   1      35.212  12.175   5.166  0.00  0.00    -0.631 OA
BRANCH  37  39
HETATM   39  O   UNK N   1      37.186  12.566   6.977  0.00  0.00    -0.307 OA
HETATM   40  H   UNK N   1      37.910  12.674   6.339  0.00  0.00     0.222 HD
ENDBRANCH  37  39
BRANCH  37  41
HETATM   41  O   UNK N   1      34.871  14.440   6.642  0.00  0.00    -0.195 OA
BRANCH  41  42
HETATM   42  P   UNK N   1      34.473  15.170   5.083  0.00  0.00     0.410 P 
HETATM   43  O   UNK N   1      34.990  16.358   5.934  0.00  0.00    -0.631 OA
BRANCH  42  44
HETATM   44  O   UNK N   1      33.228  14.042   5.546  0.00  0.00    -0.307 OA
HETATM   45  H   UNK N   1      32.324  14.138   5.209  0.00  0.00     0.222 HD
ENDBRANCH  42  44
BRANCH  42  46
HETATM   46  O   UNK N   1      33.063  16.192   5.230  0.00  0.00    -0.195 OA
BRANCH  46  47
HETATM   47  P   UNK N   1      32.267  16.174   3.673  0.00  0.00     0.401 P 
HETATM   48  O   UNK N   1      33.240  15.555   2.631  0.00  0.00    -0.631 OA
BRANCH  47  49
HETATM   49  O   UNK N   1      31.920  17.790   3.144  0.00  0.00    -0.307 OA
HETATM   50  H   UNK N   1      31.559  18.661   3.373  0.00  0.00     0.222 HD
ENDBRANCH  47  49
BRANCH  47  51
HETATM   51  O   UNK N   1      30.822  15.209   3.714  0.00  0.00    -0.294 OA
BRANCH  51  52
HETATM   52  C   UNK N   1      29.854  16.055   3.166  0.00  0.00     0.215 C 
BRANCH  52  53
HETATM   53  C   UNK N   1      28.741  16.371   4.115  0.00  0.00     0.180 C 
HETATM   54  C   UNK N   1      28.990  16.573   5.628  0.00  0.00     0.182 C 
HETATM   55  C   UNK N   1      27.821  17.524   6.007  0.00  0.00     0.198 C 
HETATM   56  C   UNK N   1      27.049  17.554   4.681  0.00  0.00     0.263 C 
HETATM   57  O   UNK N   1      28.045  17.497   3.704  0.00  0.00    -0.353 OA
BRANCH  54  58
HETATM   58  O   UNK N   1      30.204  17.219   5.878  0.00  0.00    -0.390 OA
HETATM   59  H   UNK N   1      30.576  17.909   6.451  0.00  0.00     0.210 HD
ENDBRANCH  54  58
BRANCH  55  60
HETATM   60  O   UNK N   1      27.055  17.016   7.059  0.00  0.00    -0.388 OA
HETATM   61  H   UNK N   1      26.565  17.591   7.668  0.00  0.00     0.210 HD
ENDBRANCH  55  60
BRANCH  56  62
HETATM   62  N   UNK N   1      26.077  18.598   4.351  0.00  0.00    -0.280 N 
HETATM   63  C   UNK N   1      26.496  19.650   3.581  0.00  0.00     0.103 A 
HETATM   64  C   UNK N   1      25.585  20.494   2.969  0.00  0.00     0.073 A 
HETATM   65  C   UNK N   1      24.231  20.244   3.141  0.00  0.00     0.144 A 
HETATM   66  N   UNK N   1      23.822  19.233   3.952  0.00  0.00    -0.289 N 
HETATM   67  C   UNK N   1      24.730  18.411   4.562  0.00  0.00     0.330 A 
ATOM     68  HN  UNK N   1      22.825  19.084   4.108  1.00  0.00     0.172 HD
HETATM   69  O   UNK N   1      24.332  17.463   5.222  0.00  0.00    -0.246 OA
BRANCH  65  70
HETATM   70  O   UNK N   1      23.328  20.986   2.484  0.00  0.00    -0.346 OA
HETATM   71  H   UNK N   1      23.531  21.866   2.236  0.00  0.00     0.219 HD
ENDBRANCH  65  70
ENDBRANCH  56  62
ENDBRANCH  52  53
ENDBRANCH  51  52
ENDBRANCH  47  51
ENDBRANCH  46  47
ENDBRANCH  42  46
ENDBRANCH  41  42
ENDBRANCH  37  41
ENDBRANCH   1  37
TORSDOF 27
ENDMDL
MODEL 6
REMARK VINA RESULT:      -6.9      4.714      9.802
REMARK  27 active torsions:
REMARK  status: ('A' for Active; 'I' for Inactive)
REMARK    1  A    between atoms: C_7  and  C_3 
REMARK    2  A    between atoms: O_47  and  C_3 
REMARK    3  A    between atoms: C_8  and  C_4 
REMARK    4  A    between atoms: O_48  and  C_4 
REMARK    5  A    between atoms: O_31  and  C_9 
REMARK    6  A    between atoms: C_11  and  O_32 
REMARK    7  A    between atoms: C_12  and  O_33 
REMARK    8  A    between atoms: C_13  and  O_34 
REMARK    9  A    between atoms: C_14  and  O_35 
REMARK   10  A    between atoms: N_20  and  C_15 
REMARK   11  A    between atoms: C_17  and  N_29 
REMARK   12  A    between atoms: C_18  and  N_30 
REMARK   13  A    between atoms: P_55  and  O_37 
REMARK   14  A    between atoms: P_56  and  O_39 
REMARK   15  A    between atoms: P_57  and  O_41 
REMARK   16  A    between atoms: P_58  and  O_43 
REMARK   17  A    between atoms: P_59  and  O_45 
REMARK   18  A    between atoms: P_55  and  O_47 
REMARK   19  A    between atoms: P_56  and  O_48 
REMARK   20  A    between atoms: P_55  and  O_51 
REMARK   21  A    between atoms: P_57  and  O_51 
REMARK   22  A    between atoms: P_56  and  O_52 
REMARK   23  A    between atoms: P_58  and  O_52 
REMARK   24  A    between atoms: P_57  and  O_53 
REMARK   25  A    between atoms: P_59  and  O_53 
REMARK   26  A    between atoms: P_58  and  O_54 
REMARK   27  A    between atoms: P_59  and  O_54 
ROOT
HETATM    1  O   UNK N   1      20.834  17.617   1.864  0.00  0.00    -0.195 OA
ENDROOT
BRANCH   1   2
HETATM    2  P   UNK N   1      19.935  18.382   3.113  0.00  0.00     0.410 P 
HETATM    3  O   UNK N   1      20.479  19.670   3.783  0.00  0.00    -0.631 OA
BRANCH   2   4
HETATM    4  O   UNK N   1      19.147  17.330   4.239  0.00  0.00    -0.307 OA
HETATM    5  H   UNK N   1      18.416  17.660   4.785  0.00  0.00     0.222 HD
ENDBRANCH   2   4
BRANCH   2   6
HETATM    6  O   UNK N   1      21.533  17.756   3.541  0.00  0.00    -0.195 OA
BRANCH   6   7
HETATM    7  P   UNK N   1      21.922  17.493   5.221  0.00  0.00     0.401 P 
HETATM    8  O   UNK N   1      21.258  16.123   5.523  0.00  0.00    -0.631 OA
BRANCH   7   9
HETATM    9  O   UNK N   1      21.179  18.589   6.346  0.00  0.00    -0.307 OA
HETATM   10  H   UNK N   1      20.236  18.508   6.559  0.00  0.00     0.222 HD
ENDBRANCH   7   9
BRANCH   7  11
HETATM   11  O   UNK N   1      23.624  17.231   5.433  0.00  0.00    -0.294 OA
BRANCH  11  12
HETATM   12  C   UNK N   1      24.209  18.431   5.002  0.00  0.00     0.215 C 
BRANCH  12  13
HETATM   13  C   UNK N   1      25.515  18.168   4.287  0.00  0.00     0.180 C 
HETATM   14  C   UNK N   1      26.204  19.413   3.688  0.00  0.00     0.182 C 
HETATM   15  C   UNK N   1      27.624  19.330   4.258  0.00  0.00     0.198 C 
HETATM   16  C   UNK N   1      27.669  17.860   4.658  0.00  0.00     0.262 C 
HETATM   17  O   UNK N   1      26.403  17.580   5.188  0.00  0.00    -0.353 OA
BRANCH  14  18
HETATM   18  O   UNK N   1      25.580  20.620   4.031  0.00  0.00    -0.390 OA
HETATM   19  H   UNK N   1      25.180  21.106   4.769  0.00  0.00     0.210 HD
ENDBRANCH  14  18
BRANCH  15  20
HETATM   20  O   UNK N   1      27.732  20.132   5.397  0.00  0.00    -0.388 OA
HETATM   21  H   UNK N   1      27.774  20.829   6.070  0.00  0.00     0.210 HD
ENDBRANCH  15  20
BRANCH  16  22
HETATM   22  N   UNK N   1      28.682  17.438   5.633  0.00  0.00    -0.297 N 
HETATM   23  C   UNK N   1      29.919  16.993   5.279  0.00  0.00     0.188 A 
HETATM   24  N   UNK N   1      30.727  16.841   6.360  0.00  0.00    -0.346 N 
HETATM   25  C   UNK N   1      29.958  17.202   7.397  0.00  0.00     0.122 A 
ATOM     26  HN  UNK N   1      31.697  16.525   6.378  1.00  0.00     0.167 HD
HETATM   27  C   UNK N   1      30.282  17.290   8.736  0.00  0.00     0.131 A 
HETATM   28  C   UNK N   1      28.725  17.549   6.967  0.00  0.00     0.142 A 
HETATM   29  N   UNK N   1      29.308  17.696   9.603  0.00  0.00    -0.337 N 
HETATM   30  C   UNK N   1      28.048  18.018   9.150  0.00  0.00     0.183 A 
ATOM     31  HN  UNK N   1      29.516  17.762  10.599  1.00  0.00     0.168 HD
HETATM   32  N   UNK N   1      27.753  17.965   7.811  0.00  0.00    -0.336 N 
ATOM     33  HN  UNK N   1      26.830  18.229   7.464  1.00  0.00     0.168 HD
BRANCH  27  34
HETATM   34  N   UNK N   1      31.585  17.002   9.192  0.00  0.00    -0.383 N 
HETATM   35  H   UNK N   1      32.368  17.418   8.763  0.00  0.00     0.157 HD
HETATM   36  H   UNK N   1      31.713  16.381   9.945  0.00  0.00     0.157 HD
ENDBRANCH  27  34
ENDBRANCH  16  22
ENDBRANCH  12  13
ENDBRANCH  11  12
ENDBRANCH   7  11
ENDBRANCH   6   7
ENDBRANCH   2   6
ENDBRANCH   1   2
BRANCH   1  37
HETATM   37  P   UNK N   1      19.898  16.363   1.158  0.00  0.00     0.410 P 
HETATM   38  O   UNK N   1      20.713  15.585   0.091  0.00  0.00    -0.631 OA
BRANCH  37  39
HETATM   39  O   UNK N   1      18.527  17.145   0.432  0.00  0.00    -0.307 OA
HETATM   40  H   UNK N   1      18.481  17.380  -0.509  0.00  0.00     0.222 HD
ENDBRANCH  37  39
BRANCH  37  41
HETATM   41  O   UNK N   1      19.560  15.283   2.541  0.00  0.00    -0.195 OA
BRANCH  41  42
HETATM   42  P   UNK N   1      20.237  13.655   2.414  0.00  0.00     0.410 P 
HETATM   43  O   UNK N   1      18.932  13.458   3.225  0.00  0.00    -0.631 OA
BRANCH  42  44
HETATM   44  O   UNK N   1      21.503  14.799   2.769  0.00  0.00    -0.307 OA
HETATM   45  H   UNK N   1      22.296  14.846   2.213  0.00  0.00     0.222 HD
ENDBRANCH  42  44
BRANCH  42  46
HETATM   46  O   UNK N   1      20.819  13.113   3.969  0.00  0.00    -0.195 OA
BRANCH  46  47
HETATM   47  P   UNK N   1      21.060  11.386   3.839  0.00  0.00     0.401 P 
HETATM   48  O   UNK N   1      21.664  11.078   2.440  0.00  0.00    -0.631 OA
BRANCH  47  49
HETATM   49  O   UNK N   1      19.543  10.547   3.930  0.00  0.00    -0.307 OA
HETATM   50  H   UNK N   1      19.078   9.698   3.862  0.00  0.00     0.222 HD
ENDBRANCH  47  49
BRANCH  47  51
HETATM   51  O   UNK N   1      22.164  10.808   5.051  0.00  0.00    -0.294 OA
BRANCH  51  52
HETATM   52  C   UNK N   1      23.390  11.349   4.654  0.00  0.00     0.215 C 
BRANCH  52  53
HETATM   53  C   UNK N   1      24.046  12.170   5.718  0.00  0.00     0.180 C 
HETATM   54  C   UNK N   1      24.358  13.672   5.516  0.00  0.00     0.182 C 
HETATM   55  C   UNK N   1      24.319  14.192   6.980  0.00  0.00     0.198 C 
HETATM   56  C   UNK N   1      24.150  12.869   7.739  0.00  0.00     0.263 C 
HETATM   57  O   UNK N   1      23.335  12.099   6.906  0.00  0.00    -0.353 OA
BRANCH  54  58
HETATM   58  O   UNK N   1      23.364  14.318   4.774  0.00  0.00    -0.390 OA
HETATM   59  H   UNK N   1      22.714  14.130   4.079  0.00  0.00     0.210 HD
ENDBRANCH  54  58
BRANCH  55  60
HETATM   60  O   UNK N   1      25.497  14.860   7.327  0.00  0.00    -0.388 OA
HETATM   61  H   UNK N   1      26.096  15.232   6.661  0.00  0.00     0.210 HD
ENDBRANCH  55  60
BRANCH  56  62
HETATM   62  N   UNK N   1      23.666  12.802   9.120  0.00  0.00    -0.280 N 
HETATM   63  C   UNK N   1      22.405  12.317   9.339  0.00  0.00     0.103 A 
HETATM   64  C   UNK N   1      22.001  11.928  10.605  0.00  0.00     0.073 A 
HETATM   65  C   UNK N   1      22.909  12.027  11.650  0.00  0.00     0.144 A 
HETATM   66  N   UNK N   1      24.140  12.562  11.436  0.00  0.00    -0.289 N 
HETATM   67  C   UNK N   1      24.526  12.955  10.184  0.00  0.00     0.330 A 
ATOM     68  HN  UNK N   1      24.784  12.672  12.218  1.00  0.00     0.172 HD
HETATM   69  O   UNK N   1      25.665  13.360  10.007  0.00  0.00    -0.246 OA
BRANCH  65  70
HETATM   70  O   UNK N   1      22.578  11.569  12.866  0.00  0.00    -0.346 OA
HETATM   71  H   UNK N   1      23.215  11.549  13.552  0.00  0.00     0.219 HD
ENDBRANCH  65  70
ENDBRANCH  56  62
ENDBRANCH  52  53
ENDBRANCH  51  52
ENDBRANCH  47  51
ENDBRANCH  46  47
ENDBRANCH  42  46
ENDBRANCH  41  42
ENDBRANCH  37  41
ENDBRANCH   1  37
TORSDOF 27
ENDMDL
MODEL 7
REMARK VINA RESULT:      -6.9      5.189      7.312
REMARK  27 active torsions:
REMARK  status: ('A' for Active; 'I' for Inactive)
REMARK    1  A    between atoms: C_7  and  C_3 
REMARK    2  A    between atoms: O_47  and  C_3 
REMARK    3  A    between atoms: C_8  and  C_4 
REMARK    4  A    between atoms: O_48  and  C_4 
REMARK    5  A    between atoms: O_31  and  C_9 
REMARK    6  A    between atoms: C_11  and  O_32 
REMARK    7  A    between atoms: C_12  and  O_33 
REMARK    8  A    between atoms: C_13  and  O_34 
REMARK    9  A    between atoms: C_14  and  O_35 
REMARK   10  A    between atoms: N_20  and  C_15 
REMARK   11  A    between atoms: C_17  and  N_29 
REMARK   12  A    between atoms: C_18  and  N_30 
REMARK   13  A    between atoms: P_55  and  O_37 
REMARK   14  A    between atoms: P_56  and  O_39 
REMARK   15  A    between atoms: P_57  and  O_41 
REMARK   16  A    between atoms: P_58  and  O_43 
REMARK   17  A    between atoms: P_59  and  O_45 
REMARK   18  A    between atoms: P_55  and  O_47 
REMARK   19  A    between atoms: P_56  and  O_48 
REMARK   20  A    between atoms: P_55  and  O_51 
REMARK   21  A    between atoms: P_57  and  O_51 
REMARK   22  A    between atoms: P_56  and  O_52 
REMARK   23  A    between atoms: P_58  and  O_52 
REMARK   24  A    between atoms: P_57  and  O_53 
REMARK   25  A    between atoms: P_59  and  O_53 
REMARK   26  A    between atoms: P_58  and  O_54 
REMARK   27  A    between atoms: P_59  and  O_54 
ROOT
HETATM    1  O   UNK N   1      30.596  13.947   5.619  0.00  0.00    -0.195 OA
ENDROOT
BRANCH   1   2
HETATM    2  P   UNK N   1      31.921  12.986   5.098  0.00  0.00     0.410 P 
HETATM    3  O   UNK N   1      33.179  12.849   5.994  0.00  0.00    -0.631 OA
BRANCH   2   4
HETATM    4  O   UNK N   1      32.311  13.072   3.414  0.00  0.00    -0.307 OA
HETATM    5  H   UNK N   1      31.996  13.817   2.878  0.00  0.00     0.222 HD
ENDBRANCH   2   4
BRANCH   2   6
HETATM    6  O   UNK N   1      32.224  14.713   5.328  0.00  0.00    -0.195 OA
BRANCH   6   7
HETATM    7  P   UNK N   1      33.530  15.472   4.457  0.00  0.00     0.401 P 
HETATM    8  O   UNK N   1      32.838  15.986   3.166  0.00  0.00    -0.631 OA
BRANCH   7   9
HETATM    9  O   UNK N   1      34.772  14.401   3.881  0.00  0.00    -0.307 OA
HETATM   10  H   UNK N   1      35.652  14.745   3.661  0.00  0.00     0.222 HD
ENDBRANCH   7   9
BRANCH   7  11
HETATM   11  O   UNK N   1      34.081  16.898   5.277  0.00  0.00    -0.294 OA
BRANCH  11  12
HETATM   12  C   UNK N   1      32.901  17.520   5.707  0.00  0.00     0.215 C 
BRANCH  12  13
HETATM   13  C   UNK N   1      32.909  17.715   7.207  0.00  0.00     0.180 C 
HETATM   14  C   UNK N   1      31.768  17.009   7.971  0.00  0.00     0.182 C 
HETATM   15  C   UNK N   1      32.514  16.217   9.050  0.00  0.00     0.198 C 
HETATM   16  C   UNK N   1      33.848  16.955   9.053  0.00  0.00     0.262 C 
HETATM   17  O   UNK N   1      34.119  17.237   7.709  0.00  0.00    -0.353 OA
BRANCH  14  18
HETATM   18  O   UNK N   1      30.984  16.173   7.166  0.00  0.00    -0.390 OA
HETATM   19  H   UNK N   1      31.012  15.592   6.390  0.00  0.00     0.210 HD
ENDBRANCH  14  18
BRANCH  15  20
HETATM   20  O   UNK N   1      32.706  14.898   8.631  0.00  0.00    -0.388 OA
HETATM   21  H   UNK N   1      32.654  13.968   8.358  0.00  0.00     0.210 HD
ENDBRANCH  15  20
BRANCH  16  22
HETATM   22  N   UNK N   1      35.015  16.273   9.626  0.00  0.00    -0.297 N 
HETATM   23  C   UNK N   1      35.471  16.507  10.888  0.00  0.00     0.188 A 
HETATM   24  N   UNK N   1      36.441  15.626  11.244  0.00  0.00    -0.346 N 
HETATM   25  C   UNK N   1      36.578  14.837  10.167  0.00  0.00     0.122 A 
ATOM     26  HN  UNK N   1      36.949  15.575  12.127  1.00  0.00     0.167 HD
HETATM   27  C   UNK N   1      37.391  13.737   9.989  0.00  0.00     0.131 A 
HETATM   28  C   UNK N   1      35.733  15.231   9.189  0.00  0.00     0.142 A 
HETATM   29  N   UNK N   1      37.338  13.093   8.785  0.00  0.00    -0.337 N 
HETATM   30  C   UNK N   1      36.491  13.525   7.789  0.00  0.00     0.183 A 
ATOM     31  HN  UNK N   1      37.934  12.282   8.622  1.00  0.00     0.168 HD
HETATM   32  N   UNK N   1      35.660  14.597   7.996  0.00  0.00    -0.336 N 
ATOM     33  HN  UNK N   1      35.009  14.906   7.273  1.00  0.00     0.168 HD
BRANCH  27  34
HETATM   34  N   UNK N   1      38.225  13.268  11.025  0.00  0.00    -0.383 N 
HETATM   35  H   UNK N   1      39.204  13.354  10.956  0.00  0.00     0.157 HD
HETATM   36  H   UNK N   1      37.826  12.853  11.824  0.00  0.00     0.157 HD
ENDBRANCH  27  34
ENDBRANCH  16  22
ENDBRANCH  12  13
ENDBRANCH  11  12
ENDBRANCH   7  11
ENDBRANCH   6   7
ENDBRANCH   2   6
ENDBRANCH   1   2
BRANCH   1  37
HETATM   37  P   UNK N   1      29.477  14.140   4.332  0.00  0.00     0.410 P 
HETATM   38  O   UNK N   1      29.676  13.050   3.245  0.00  0.00    -0.631 OA
BRANCH  37  39
HETATM   39  O   UNK N   1      29.777  15.720   3.675  0.00  0.00    -0.307 OA
HETATM   40  H   UNK N   1      30.641  16.162   3.716  0.00  0.00     0.222 HD
ENDBRANCH  37  39
BRANCH  37  41
HETATM   41  O   UNK N   1      27.897  13.895   5.128  0.00  0.00    -0.195 OA
BRANCH  41  42
HETATM   42  P   UNK N   1      26.919  15.351   5.337  0.00  0.00     0.410 P 
HETATM   43  O   UNK N   1      26.633  14.913   3.879  0.00  0.00    -0.631 OA
BRANCH  42  44
HETATM   44  O   UNK N   1      28.492  15.585   6.050  0.00  0.00    -0.307 OA
HETATM   45  H   UNK N   1      28.892  16.467   6.085  0.00  0.00     0.222 HD
ENDBRANCH  42  44
BRANCH  42  46
HETATM   46  O   UNK N   1      27.575  16.668   4.396  0.00  0.00    -0.195 OA
BRANCH  46  47
HETATM   47  P   UNK N   1      27.778  18.015   5.492  0.00  0.00     0.401 P 
HETATM   48  O   UNK N   1      29.299  18.231   5.730  0.00  0.00    -0.631 OA
BRANCH  47  49
HETATM   49  O   UNK N   1      27.070  17.660   7.037  0.00  0.00    -0.307 OA
HETATM   50  H   UNK N   1      26.899  17.964   7.942  0.00  0.00     0.222 HD
ENDBRANCH  47  49
BRANCH  47  51
HETATM   51  O   UNK N   1      27.115  19.478   4.826  0.00  0.00    -0.294 OA
BRANCH  51  52
HETATM   52  C   UNK N   1      26.306  19.019   3.783  0.00  0.00     0.215 C 
BRANCH  52  53
HETATM   53  C   UNK N   1      24.937  19.621   3.788  0.00  0.00     0.180 C 
HETATM   54  C   UNK N   1      24.510  20.689   2.753  0.00  0.00     0.182 C 
HETATM   55  C   UNK N   1      22.975  20.455   2.688  0.00  0.00     0.198 C 
HETATM   56  C   UNK N   1      22.806  19.416   3.805  0.00  0.00     0.263 C 
HETATM   57  O   UNK N   1      23.963  18.637   3.724  0.00  0.00    -0.353 OA
BRANCH  54  58
HETATM   58  O   UNK N   1      25.063  20.446   1.492  0.00  0.00    -0.390 OA
HETATM   59  H   UNK N   1      25.930  20.358   1.064  0.00  0.00     0.210 HD
ENDBRANCH  54  58
BRANCH  55  60
HETATM   60  O   UNK N   1      22.258  21.629   2.938  0.00  0.00    -0.388 OA
HETATM   61  H   UNK N   1      22.695  22.485   3.063  0.00  0.00     0.210 HD
ENDBRANCH  55  60
BRANCH  56  62
HETATM   62  N   UNK N   1      21.626  18.556   3.917  0.00  0.00    -0.280 N 
HETATM   63  C   UNK N   1      20.965  18.212   2.769  0.00  0.00     0.103 A 
HETATM   64  C   UNK N   1      20.056  17.168   2.755  0.00  0.00     0.073 A 
HETATM   65  C   UNK N   1      19.836  16.465   3.930  0.00  0.00     0.144 A 
HETATM   66  N   UNK N   1      20.452  16.848   5.080  0.00  0.00    -0.289 N 
HETATM   67  C   UNK N   1      21.341  17.889   5.087  0.00  0.00     0.330 A 
ATOM     68  HN  UNK N   1      20.250  16.353   5.948  1.00  0.00     0.172 HD
HETATM   69  O   UNK N   1      21.938  18.160   6.117  0.00  0.00    -0.246 OA
BRANCH  65  70
HETATM   70  O   UNK N   1      19.034  15.391   3.924  0.00  0.00    -0.346 OA
HETATM   71  H   UNK N   1      18.208  15.421   3.484  0.00  0.00     0.219 HD
ENDBRANCH  65  70
ENDBRANCH  56  62
ENDBRANCH  52  53
ENDBRANCH  51  52
ENDBRANCH  47  51
ENDBRANCH  46  47
ENDBRANCH  42  46
ENDBRANCH  41  42
ENDBRANCH  37  41
ENDBRANCH   1  37
TORSDOF 27
ENDMDL
MODEL 8
REMARK VINA RESULT:      -6.8      7.081      9.399
REMARK  27 active torsions:
REMARK  status: ('A' for Active; 'I' for Inactive)
REMARK    1  A    between atoms: C_7  and  C_3 
REMARK    2  A    between atoms: O_47  and  C_3 
REMARK    3  A    between atoms: C_8  and  C_4 
REMARK    4  A    between atoms: O_48  and  C_4 
REMARK    5  A    between atoms: O_31  and  C_9 
REMARK    6  A    between atoms: C_11  and  O_32 
REMARK    7  A    between atoms: C_12  and  O_33 
REMARK    8  A    between atoms: C_13  and  O_34 
REMARK    9  A    between atoms: C_14  and  O_35 
REMARK   10  A    between atoms: N_20  and  C_15 
REMARK   11  A    between atoms: C_17  and  N_29 
REMARK   12  A    between atoms: C_18  and  N_30 
REMARK   13  A    between atoms: P_55  and  O_37 
REMARK   14  A    between atoms: P_56  and  O_39 
REMARK   15  A    between atoms: P_57  and  O_41 
REMARK   16  A    between atoms: P_58  and  O_43 
REMARK   17  A    between atoms: P_59  and  O_45 
REMARK   18  A    between atoms: P_55  and  O_47 
REMARK   19  A    between atoms: P_56  and  O_48 
REMARK   20  A    between atoms: P_55  and  O_51 
REMARK   21  A    between atoms: P_57  and  O_51 
REMARK   22  A    between atoms: P_56  and  O_52 
REMARK   23  A    between atoms: P_58  and  O_52 
REMARK   24  A    between atoms: P_57  and  O_53 
REMARK   25  A    between atoms: P_59  and  O_53 
REMARK   26  A    between atoms: P_58  and  O_54 
REMARK   27  A    between atoms: P_59  and  O_54 
ROOT
HETATM    1  O   UNK N   1      34.035  14.640   7.385  0.00  0.00    -0.195 OA
ENDROOT
BRANCH   1   2
HETATM    2  P   UNK N   1      33.717  16.278   7.792  0.00  0.00     0.410 P 
HETATM    3  O   UNK N   1      34.691  17.394   7.335  0.00  0.00    -0.631 OA
BRANCH   2   4
HETATM    4  O   UNK N   1      33.080  16.561   9.377  0.00  0.00    -0.307 OA
HETATM    5  H   UNK N   1      32.175  16.892   9.486  0.00  0.00     0.222 HD
ENDBRANCH   2   4
BRANCH   2   6
HETATM    6  O   UNK N   1      35.199  15.563   8.440  0.00  0.00    -0.195 OA
BRANCH   6   7
HETATM    7  P   UNK N   1      35.614  15.833  10.113  0.00  0.00     0.401 P 
HETATM    8  O   UNK N   1      35.360  17.353  10.295  0.00  0.00    -0.631 OA
BRANCH   7   9
HETATM    9  O   UNK N   1      37.292  15.625  10.515  0.00  0.00    -0.307 OA
HETATM   10  H   UNK N   1      37.982  15.971   9.929  0.00  0.00     0.222 HD
ENDBRANCH   7   9
BRANCH   7  11
HETATM   11  O   UNK N   1      34.481  15.052  11.170  0.00  0.00    -0.294 OA
BRANCH  11  12
HETATM   12  C   UNK N   1      35.239  14.736  12.306  0.00  0.00     0.215 C 
BRANCH  12  13
HETATM   13  C   UNK N   1      35.209  13.248  12.577  0.00  0.00     0.180 C 
HETATM   14  C   UNK N   1      36.547  12.509  12.357  0.00  0.00     0.182 C 
HETATM   15  C   UNK N   1      36.747  11.757  13.678  0.00  0.00     0.198 C 
HETATM   16  C   UNK N   1      35.322  11.777  14.219  0.00  0.00     0.262 C 
HETATM   17  O   UNK N   1      34.822  13.046  13.901  0.00  0.00    -0.353 OA
BRANCH  14  18
HETATM   18  O   UNK N   1      37.622  13.363  12.081  0.00  0.00    -0.390 OA
HETATM   19  H   UNK N   1      38.552  13.377  11.804  0.00  0.00     0.210 HD
ENDBRANCH  14  18
BRANCH  15  20
HETATM   20  O   UNK N   1      37.583  12.489  14.525  0.00  0.00    -0.388 OA
HETATM   21  H   UNK N   1      38.139  12.855  15.230  0.00  0.00     0.210 HD
ENDBRANCH  15  20
BRANCH  16  22
HETATM   22  N   UNK N   1      35.123  11.548  15.655  0.00  0.00    -0.297 N 
HETATM   23  C   UNK N   1      34.990  10.308  16.202  0.00  0.00     0.188 A 
HETATM   24  N   UNK N   1      35.002  10.352  17.559  0.00  0.00    -0.346 N 
HETATM   25  C   UNK N   1      35.146  11.655  17.842  0.00  0.00     0.122 A 
ATOM     26  HN  UNK N   1      34.922   9.573  18.212  1.00  0.00     0.167 HD
HETATM   27  C   UNK N   1      35.271  12.272  19.070  0.00  0.00     0.131 A 
HETATM   28  C   UNK N   1      35.205  12.378  16.702  0.00  0.00     0.142 A 
HETATM   29  N   UNK N   1      35.414  13.630  19.090  0.00  0.00    -0.337 N 
HETATM   30  C   UNK N   1      35.444  14.355  17.919  0.00  0.00     0.183 A 
ATOM     31  HN  UNK N   1      35.500  14.115  19.982  1.00  0.00     0.168 HD
HETATM   32  N   UNK N   1      35.359  13.722  16.704  0.00  0.00    -0.336 N 
ATOM     33  HN  UNK N   1      35.409  14.248  15.831  1.00  0.00     0.168 HD
BRANCH  27  34
HETATM   34  N   UNK N   1      35.284  11.525  20.266  0.00  0.00    -0.383 N 
HETATM   35  H   UNK N   1      36.084  11.517  20.841  0.00  0.00     0.157 HD
HETATM   36  H   UNK N   1      34.489  11.007  20.528  0.00  0.00     0.157 HD
ENDBRANCH  27  34
ENDBRANCH  16  22
ENDBRANCH  12  13
ENDBRANCH  11  12
ENDBRANCH   7  11
ENDBRANCH   6   7
ENDBRANCH   2   6
ENDBRANCH   1   2
BRANCH   1  37
HETATM   37  P   UNK N   1      34.746  14.556   5.824  0.00  0.00     0.410 P 
HETATM   38  O   UNK N   1      34.830  13.089   5.323  0.00  0.00    -0.631 OA
BRANCH  37  39
HETATM   39  O   UNK N   1      36.334  15.239   5.989  0.00  0.00    -0.307 OA
HETATM   40  H   UNK N   1      36.848  15.587   5.242  0.00  0.00     0.222 HD
ENDBRANCH  37  39
BRANCH  37  41
HETATM   41  O   UNK N   1      33.591  15.460   4.804  0.00  0.00    -0.195 OA
BRANCH  41  42
HETATM   42  P   UNK N   1      32.801  14.517   3.535  0.00  0.00     0.410 P 
HETATM   43  O   UNK N   1      33.101  15.880   2.861  0.00  0.00    -0.631 OA
BRANCH  42  44
HETATM   44  O   UNK N   1      31.975  14.282   5.051  0.00  0.00    -0.307 OA
HETATM   45  H   UNK N   1      31.006  14.238   5.084  0.00  0.00     0.222 HD
ENDBRANCH  42  44
BRANCH  42  46
HETATM   46  O   UNK N   1      31.207  15.151   3.205  0.00  0.00    -0.195 OA
BRANCH  46  47
HETATM   47  P   UNK N   1      30.119  13.783   3.186  0.00  0.00     0.401 P 
HETATM   48  O   UNK N   1      30.964  12.484   3.069  0.00  0.00    -0.631 OA
BRANCH  47  49
HETATM   49  O   UNK N   1      29.086  13.842   1.792  0.00  0.00    -0.307 OA
HETATM   50  H   UNK N   1      28.829  13.429   0.952  0.00  0.00     0.222 HD
ENDBRANCH  47  49
BRANCH  47  51
HETATM   51  O   UNK N   1      29.184  13.698   4.649  0.00  0.00    -0.294 OA
BRANCH  51  52
HETATM   52  C   UNK N   1      27.953  14.247   4.277  0.00  0.00     0.215 C 
BRANCH  52  53
HETATM   53  C   UNK N   1      27.536  15.397   5.139  0.00  0.00     0.180 C 
HETATM   54  C   UNK N   1      28.509  16.067   6.137  0.00  0.00     0.182 C 
HETATM   55  C   UNK N   1      27.931  17.507   6.210  0.00  0.00     0.198 C 
HETATM   56  C   UNK N   1      26.658  17.336   5.369  0.00  0.00     0.263 C 
HETATM   57  O   UNK N   1      27.028  16.432   4.370  0.00  0.00    -0.353 OA
BRANCH  54  58
HETATM   58  O   UNK N   1      29.814  16.123   5.637  0.00  0.00    -0.390 OA
HETATM   59  H   UNK N   1      30.311  15.918   4.829  0.00  0.00     0.210 HD
ENDBRANCH  54  58
BRANCH  55  60
HETATM   60  O   UNK N   1      27.654  17.891   7.525  0.00  0.00    -0.388 OA
HETATM   61  H   UNK N   1      28.263  17.708   8.256  0.00  0.00     0.210 HD
ENDBRANCH  55  60
BRANCH  56  62
HETATM   62  N   UNK N   1      25.935  18.467   4.783  0.00  0.00    -0.280 N 
HETATM   63  C   UNK N   1      26.661  19.436   4.143  0.00  0.00     0.103 A 
HETATM   64  C   UNK N   1      26.046  20.350   3.304  0.00  0.00     0.073 A 
HETATM   65  C   UNK N   1      24.675  20.256   3.113  0.00  0.00     0.144 A 
HETATM   66  N   UNK N   1      23.953  19.328   3.795  0.00  0.00    -0.289 N 
HETATM   67  C   UNK N   1      24.568  18.437   4.632  0.00  0.00     0.330 A 
ATOM     68  HN  UNK N   1      22.941  19.296   3.682  1.00  0.00     0.172 HD
HETATM   69  O   UNK N   1      23.903  17.565   5.171  0.00  0.00    -0.246 OA
BRANCH  65  70
HETATM   70  O   UNK N   1      24.069  21.065   2.233  0.00  0.00    -0.346 OA
HETATM   71  H   UNK N   1      23.191  20.888   1.957  0.00  0.00     0.219 HD
ENDBRANCH  65  70
ENDBRANCH  56  62
ENDBRANCH  52  53
ENDBRANCH  51  52
ENDBRANCH  47  51
ENDBRANCH  46  47
ENDBRANCH  42  46
ENDBRANCH  41  42
ENDBRANCH  37  41
ENDBRANCH   1  37
TORSDOF 27
ENDMDL
MODEL 9
REMARK VINA RESULT:      -6.8      7.521     10.015
REMARK  27 active torsions:
REMARK  status: ('A' for Active; 'I' for Inactive)
REMARK    1  A    between atoms: C_7  and  C_3 
REMARK    2  A    between atoms: O_47  and  C_3 
REMARK    3  A    between atoms: C_8  and  C_4 
REMARK    4  A    between atoms: O_48  and  C_4 
REMARK    5  A    between atoms: O_31  and  C_9 
REMARK    6  A    between atoms: C_11  and  O_32 
REMARK    7  A    between atoms: C_12  and  O_33 
REMARK    8  A    between atoms: C_13  and  O_34 
REMARK    9  A    between atoms: C_14  and  O_35 
REMARK   10  A    between atoms: N_20  and  C_15 
REMARK   11  A    between atoms: C_17  and  N_29 
REMARK   12  A    between atoms: C_18  and  N_30 
REMARK   13  A    between atoms: P_55  and  O_37 
REMARK   14  A    between atoms: P_56  and  O_39 
REMARK   15  A    between atoms: P_57  and  O_41 
REMARK   16  A    between atoms: P_58  and  O_43 
REMARK   17  A    between atoms: P_59  and  O_45 
REMARK   18  A    between atoms: P_55  and  O_47 
REMARK   19  A    between atoms: P_56  and  O_48 
REMARK   20  A    between atoms: P_55  and  O_51 
REMARK   21  A    between atoms: P_57  and  O_51 
REMARK   22  A    between atoms: P_56  and  O_52 
REMARK   23  A    between atoms: P_58  and  O_52 
REMARK   24  A    between atoms: P_57  and  O_53 
REMARK   25  A    between atoms: P_59  and  O_53 
REMARK   26  A    between atoms: P_58  and  O_54 
REMARK   27  A    between atoms: P_59  and  O_54 
ROOT
HETATM    1  O   UNK N   1      34.607  13.199  12.177  0.00  0.00    -0.195 OA
ENDROOT
BRANCH   1   2
HETATM    2  P   UNK N   1      35.458  13.405  13.655  0.00  0.00     0.410 P 
HETATM    3  O   UNK N   1      36.938  12.955  13.768  0.00  0.00    -0.631 OA
BRANCH   2   4
HETATM    4  O   UNK N   1      34.560  13.098  15.102  0.00  0.00    -0.307 OA
HETATM    5  H   UNK N   1      34.000  12.309  15.171  0.00  0.00     0.222 HD
ENDBRANCH   2   4
BRANCH   2   6
HETATM    6  O   UNK N   1      35.234  11.747  13.082  0.00  0.00    -0.195 OA
BRANCH   6   7
HETATM    7  P   UNK N   1      35.753  10.421  14.088  0.00  0.00     0.401 P 
HETATM    8  O   UNK N   1      34.414   9.776  14.535  0.00  0.00    -0.631 OA
BRANCH   7   9
HETATM    9  O   UNK N   1      36.534  10.865  15.576  0.00  0.00    -0.307 OA
HETATM   10  H   UNK N   1      36.379  10.352  16.383  0.00  0.00     0.222 HD
ENDBRANCH   7   9
BRANCH   7  11
HETATM   11  O   UNK N   1      36.555   9.202  13.149  0.00  0.00    -0.294 OA
BRANCH  11  12
HETATM   12  C   UNK N   1      35.521   8.339  12.759  0.00  0.00     0.215 C 
BRANCH  12  13
HETATM   13  C   UNK N   1      35.355   8.340  11.255  0.00  0.00     0.180 C 
HETATM   14  C   UNK N   1      34.035   8.949  10.735  0.00  0.00     0.182 C 
HETATM   15  C   UNK N   1      34.513   9.980   9.706  0.00  0.00     0.198 C 
HETATM   16  C   UNK N   1      35.925   9.466   9.444  0.00  0.00     0.262 C 
HETATM   17  O   UNK N   1      36.409   9.061  10.695  0.00  0.00    -0.353 OA
BRANCH  14  18
HETATM   18  O   UNK N   1      33.257   9.544  11.737  0.00  0.00    -0.390 OA
HETATM   19  H   UNK N   1      33.286  10.178  12.470  0.00  0.00     0.210 HD
ENDBRANCH  14  18
BRANCH  15  20
HETATM   20  O   UNK N   1      34.573  11.248  10.288  0.00  0.00    -0.388 OA
HETATM   21  H   UNK N   1      34.522  12.049  10.833  0.00  0.00     0.210 HD
ENDBRANCH  15  20
BRANCH  16  22
HETATM   22  N   UNK N   1      36.898  10.389   8.849  0.00  0.00    -0.297 N 
HETATM   23  C   UNK N   1      37.173  10.426   7.516  0.00  0.00     0.188 A 
HETATM   24  N   UNK N   1      37.964  11.481   7.194  0.00  0.00    -0.346 N 
HETATM   25  C   UNK N   1      38.176  12.101   8.365  0.00  0.00     0.122 A 
ATOM     26  HN  UNK N   1      38.317  11.743   6.273  1.00  0.00     0.167 HD
HETATM   27  C   UNK N   1      38.872  13.264   8.624  0.00  0.00     0.131 A 
HETATM   28  C   UNK N   1      37.549  11.441   9.363  0.00  0.00     0.142 A 
HETATM   29  N   UNK N   1      38.935  13.695   9.918  0.00  0.00    -0.337 N 
HETATM   30  C   UNK N   1      38.313  12.994  10.927  0.00  0.00     0.183 A 
ATOM     31  HN  UNK N   1      39.449  14.546  10.140  1.00  0.00     0.168 HD
HETATM   32  N   UNK N   1      37.591  11.861  10.648  0.00  0.00    -0.336 N 
ATOM     33  HN  UNK N   1      37.104  11.352  11.386  1.00  0.00     0.168 HD
BRANCH  27  34
HETATM   34  N   UNK N   1      39.471  14.004   7.583  0.00  0.00    -0.383 N 
HETATM   35  H   UNK N   1      39.286  14.967   7.485  0.00  0.00     0.157 HD
HETATM   36  H   UNK N   1      40.077  13.556   6.950  0.00  0.00     0.157 HD
ENDBRANCH  27  34
ENDBRANCH  16  22
ENDBRANCH  12  13
ENDBRANCH  11  12
ENDBRANCH   7  11
ENDBRANCH   6   7
ENDBRANCH   2   6
ENDBRANCH   1   2
BRANCH   1  37
HETATM   37  P   UNK N   1      34.720  14.632  11.237  0.00  0.00     0.410 P 
HETATM   38  O   UNK N   1      35.527  15.730  11.981  0.00  0.00    -0.631 OA
BRANCH  37  39
HETATM   39  O   UNK N   1      33.085  15.151  10.965  0.00  0.00    -0.307 OA
HETATM   40  H   UNK N   1      32.387  14.567  10.625  0.00  0.00     0.222 HD
ENDBRANCH  37  39
BRANCH  37  41
HETATM   41  O   UNK N   1      35.638  14.101   9.799  0.00  0.00    -0.195 OA
BRANCH  41  42
HETATM   42  P   UNK N   1      35.216  14.915   8.288  0.00  0.00     0.410 P 
HETATM   43  O   UNK N   1      35.705  16.061   9.209  0.00  0.00    -0.631 OA
BRANCH  42  44
HETATM   44  O   UNK N   1      34.003  13.729   8.683  0.00  0.00    -0.307 OA
HETATM   45  H   UNK N   1      33.088  13.837   8.378  0.00  0.00     0.222 HD
ENDBRANCH  42  44
BRANCH  42  46
HETATM   46  O   UNK N   1      33.781  15.889   8.499  0.00  0.00    -0.195 OA
BRANCH  46  47
HETATM   47  P   UNK N   1      33.837  17.134   7.273  0.00  0.00     0.401 P 
HETATM   48  O   UNK N   1      34.698  16.617   6.086  0.00  0.00    -0.631 OA
BRANCH  47  49
HETATM   49  O   UNK N   1      34.619  18.559   7.881  0.00  0.00    -0.307 OA
HETATM   50  H   UNK N   1      34.622  19.529   7.925  0.00  0.00     0.222 HD
ENDBRANCH  47  49
BRANCH  47  51
HETATM   51  O   UNK N   1      32.247  17.503   6.675  0.00  0.00    -0.294 OA
BRANCH  51  52
HETATM   52  C   UNK N   1      31.459  16.474   7.198  0.00  0.00     0.215 C 
BRANCH  52  53
HETATM   53  C   UNK N   1      30.075  16.914   7.556  0.00  0.00     0.180 C 
HETATM   54  C   UNK N   1      29.765  17.634   8.889  0.00  0.00     0.182 C 
HETATM   55  C   UNK N   1      28.515  18.472   8.502  0.00  0.00     0.198 C 
HETATM   56  C   UNK N   1      28.263  17.952   7.080  0.00  0.00     0.263 C 
HETATM   57  O   UNK N   1      29.543  17.727   6.567  0.00  0.00    -0.353 OA
BRANCH  54  58
HETATM   58  O   UNK N   1      30.796  18.499   9.269  0.00  0.00    -0.390 OA
HETATM   59  H   UNK N   1      31.402  19.150   8.881  0.00  0.00     0.210 HD
ENDBRANCH  54  58
BRANCH  55  60
HETATM   60  O   UNK N   1      27.438  18.228   9.358  0.00  0.00    -0.388 OA
HETATM   61  H   UNK N   1      26.574  18.650   9.235  0.00  0.00     0.210 HD
ENDBRANCH  55  60
BRANCH  56  62
HETATM   62  N   UNK N   1      27.447  18.675   6.102  0.00  0.00    -0.280 N 
HETATM   63  C   UNK N   1      27.532  20.041   6.075  0.00  0.00     0.103 A 
HETATM   64  C   UNK N   1      27.052  20.763   4.996  0.00  0.00     0.073 A 
HETATM   65  C   UNK N   1      26.493  20.072   3.931  0.00  0.00     0.144 A 
HETATM   66  N   UNK N   1      26.361  18.720   3.989  0.00  0.00    -0.289 N 
HETATM   67  C   UNK N   1      26.828  18.015   5.065  0.00  0.00     0.330 A 
ATOM     68  HN  UNK N   1      25.909  18.225   3.222  1.00  0.00     0.172 HD
HETATM   69  O   UNK N   1      26.766  16.795   5.056  0.00  0.00    -0.246 OA
BRANCH  65  70
HETATM   70  O   UNK N   1      26.108  20.737   2.833  0.00  0.00    -0.346 OA
HETATM   71  H   UNK N   1      25.197  20.846   2.642  0.00  0.00     0.219 HD
ENDBRANCH  65  70
ENDBRANCH  56  62
ENDBRANCH  52  53
ENDBRANCH  51  52
ENDBRANCH  47  51
ENDBRANCH  46  47
ENDBRANCH  42  46
ENDBRANCH  41  42
ENDBRANCH  37  41
ENDBRANCH   1  37
TORSDOF 27
ENDMDL
