REMARK  5 active torsions:
REMARK  status: ('A' for Active; 'I' for Inactive)
REMARK    1  A    between atoms: C_6  and  C_4 
REMARK    2  A    between atoms: O_13  and  C_4 
REMARK    3  A    between atoms: C_5  and  O_14 
REMARK    4  A    between atoms: O_15  and  C_7 
REMARK    5  A    between atoms: N_12  and  C_8 
ROOT
HETATM    1  C   UNK N   1       3.588   0.122  -0.822  0.00  0.00     0.088 C 
HETATM    2  C   UNK N   1       2.794   1.223  -0.201  0.00  0.00     0.153 C 
HETATM    3  C   UNK N   1       1.631   0.435   0.408  0.00  0.00     0.176 C 
HETATM    4  C   UNK N   1       3.474  -0.881   0.313  0.00  0.00     0.230 C 
HETATM    5  O   UNK N   1       2.130  -0.848   0.754  0.00  0.00    -0.356 OA
ENDROOT
BRANCH   4   6
HETATM    6  N   UNK N   1       3.965  -2.208  -0.063  0.00  0.00    -0.307 N 
HETATM    7  C   UNK N   1       5.369  -2.319  -0.421  0.00  0.00     0.138 C 
HETATM    8  C   UNK N   1       5.971  -3.608   0.109  0.00  0.00     0.104 C 
HETATM    9  C   UNK N   1       5.042  -4.748  -0.195  0.00  0.00     0.120 C 
HETATM   10  N   UNK N   1       3.762  -4.569  -0.232  0.00  0.00    -0.293 N 
HETATM   11  C   UNK N   1       3.187  -3.343  -0.073  0.00  0.00     0.326 C 
ATOM     12  HN  UNK N   1       3.159  -5.377  -0.385  1.00  0.00     0.172 HD
HETATM   13  O   UNK N   1       1.978  -3.277   0.082  0.00  0.00    -0.247 OA
BRANCH   9  14
HETATM   14  O   UNK N   1       5.548  -5.986  -0.346  0.00  0.00    -0.349 OA
HETATM   15  H   UNK N   1       4.978  -6.722  -0.452  0.00  0.00     0.219 HD
ENDBRANCH   9  14
ENDBRANCH   4   6
BRANCH   2  16
HETATM   16  O   UNK N   1       2.411   2.205  -1.116  0.00  0.00    -0.393 OA
HETATM   17  H   UNK N   1       2.868   2.777  -1.753  0.00  0.00     0.210 HD
ENDBRANCH   2  16
BRANCH   3  18
HETATM   18  C   UNK N   1       0.459   0.255  -0.558  0.00  0.00     0.198 C 
BRANCH  18  19
HETATM   19  O   UNK N   1      -0.219   1.468  -0.724  0.00  0.00    -0.398 OA
HETATM   20  H   UNK N   1       0.274   2.295  -0.839  0.00  0.00     0.209 HD
ENDBRANCH  18  19
ENDBRANCH   3  18
TORSDOF 5
