MODEL 1
REMARK VINA RESULT:      -8.1      0.000      0.000
REMARK  4 active torsions:
REMARK  status: ('A' for Active; 'I' for Inactive)
REMARK    1  A    between atoms: C_3  and  C_17 
REMARK    2  A    between atoms: C_13  and  C_14 
REMARK    3  A    between atoms: C_14  and  O_15 
REMARK    4  A    between atoms: C_20  and  C_23 
ROOT
HETATM    1  C   UNK N   1      28.250  18.097   7.747  0.00  0.00     0.052 C 
HETATM    2  C   UNK N   1      29.193  17.777   6.628  0.00  0.00    -0.017 A 
HETATM    3  C   UNK N   1      28.765  17.867   5.263  0.00  0.00     0.050 A 
HETATM    4  N   UNK N   1      29.650  17.569   4.275  0.00  0.00    -0.354 N 
ATOM      5  HN  UNK N   1      29.340  17.634   3.306  1.00  0.00     0.166 HD
HETATM    6  C   UNK N   1      30.928  17.188   4.522  0.00  0.00     0.044 A 
HETATM    7  C   UNK N   1      31.777  16.898   3.448  0.00  0.00     0.033 A 
HETATM    8  C   UNK N   1      33.099  16.503   3.678  0.00  0.00     0.044 A 
HETATM    9  C   UNK N   1      33.575  16.397   4.985  0.00  0.00     0.117 A 
HETATM   10  F   UNK N   1      34.854  16.015   5.216  0.00  0.00    -0.206 F 
HETATM   11  C   UNK N   1      32.733  16.684   6.057  0.00  0.00     0.057 A 
HETATM   12  C   UNK N   1      31.400  17.083   5.849  0.00  0.00     0.011 A 
HETATM   13  C   UNK N   1      30.529  17.380   6.932  0.00  0.00     0.058 A 
ENDROOT
BRANCH   3  14
HETATM   14  C   UNK N   1      27.374  18.278   4.858  0.00  0.00    -0.009 A 
HETATM   15  C   UNK N   1      26.320  17.358   4.850  0.00  0.00     0.014 A 
HETATM   16  C   UNK N   1      25.037  17.724   4.480  0.00  0.00     0.013 A 
HETATM   17  C   UNK N   1      24.752  19.034   4.100  0.00  0.00    -0.026 A 
HETATM   18  C   UNK N   1      25.791  19.983   4.098  0.00  0.00     0.013 A 
HETATM   19  C   UNK N   1      27.095  19.605   4.476  0.00  0.00     0.014 A 
BRANCH  17  20
HETATM   20  C   UNK N   1      23.362  19.378   3.712  0.00  0.00    -0.026 A 
HETATM   21  C   UNK N   1      22.292  18.602   4.196  0.00  0.00     0.012 A 
HETATM   22  C   UNK N   1      20.975  18.903   3.847  0.00  0.00     0.001 A 
HETATM   23  C   UNK N   1      20.711  19.985   3.008  0.00  0.00     0.000 A 
HETATM   24  C   UNK N   1      21.763  20.765   2.518  0.00  0.00     0.001 A 
HETATM   25  C   UNK N   1      23.085  20.464   2.868  0.00  0.00     0.012 A 
ENDBRANCH  17  20
ENDBRANCH   3  14
BRANCH  13  26
HETATM   26  C   UNK N   1      31.008  17.277   8.369  0.00  0.00     0.177 C 
HETATM   27  O   UNK N   1      30.969  16.212   8.964  0.00  0.00    -0.646 OA
BRANCH  26  28
HETATM   28  O   UNK N   1      31.488  18.349   9.028  0.00  0.00    -0.773 OA
HETATM   29  H   UNK N   1      32.412  18.495   9.075  0.00  0.00     0.167 HD
ENDBRANCH  26  28
ENDBRANCH  13  26
TORSDOF 4
ENDMDL
MODEL 2
REMARK VINA RESULT:      -7.9      4.341      9.165
REMARK  4 active torsions:
REMARK  status: ('A' for Active; 'I' for Inactive)
REMARK    1  A    between atoms: C_3  and  C_17 
REMARK    2  A    between atoms: C_13  and  C_14 
REMARK    3  A    between atoms: C_14  and  O_15 
REMARK    4  A    between atoms: C_20  and  C_23 
ROOT
HETATM    1  C   UNK N   1      26.971  20.199   3.704  0.00  0.00     0.052 C 
HETATM    2  C   UNK N   1      25.909  19.247   4.159  0.00  0.00    -0.017 A 
HETATM    3  C   UNK N   1      26.228  18.167   5.047  0.00  0.00     0.050 A 
HETATM    4  N   UNK N   1      25.236  17.324   5.438  0.00  0.00    -0.354 N 
ATOM      5  HN  UNK N   1      25.469  16.557   6.070  1.00  0.00     0.166 HD
HETATM    6  C   UNK N   1      23.951  17.456   5.026  0.00  0.00     0.044 A 
HETATM    7  C   UNK N   1      22.989  16.545   5.476  0.00  0.00     0.033 A 
HETATM    8  C   UNK N   1      21.658  16.662   5.064  0.00  0.00     0.044 A 
HETATM    9  C   UNK N   1      21.285  17.692   4.201  0.00  0.00     0.117 A 
HETATM   10  F   UNK N   1      19.996  17.812   3.798  0.00  0.00    -0.206 F 
HETATM   11  C   UNK N   1      22.239  18.602   3.751  0.00  0.00     0.057 A 
HETATM   12  C   UNK N   1      23.584  18.503   4.152  0.00  0.00     0.011 A 
HETATM   13  C   UNK N   1      24.569  19.423   3.702  0.00  0.00     0.058 A 
ENDROOT
BRANCH   3  14
HETATM   14  C   UNK N   1      27.615  17.913   5.575  0.00  0.00    -0.009 A 
HETATM   15  C   UNK N   1      28.627  17.421   4.745  0.00  0.00     0.014 A 
HETATM   16  C   UNK N   1      29.907  17.184   5.218  0.00  0.00     0.013 A 
HETATM   17  C   UNK N   1      30.229  17.430   6.552  0.00  0.00    -0.026 A 
HETATM   18  C   UNK N   1      29.231  17.925   7.412  0.00  0.00     0.013 A 
HETATM   19  C   UNK N   1      27.932  18.165   6.924  0.00  0.00     0.014 A 
BRANCH  17  20
HETATM   20  C   UNK N   1      31.613  17.160   7.012  0.00  0.00    -0.026 A 
HETATM   21  C   UNK N   1      32.691  17.361   6.131  0.00  0.00     0.012 A 
HETATM   22  C   UNK N   1      34.003  17.114   6.539  0.00  0.00     0.001 A 
HETATM   23  C   UNK N   1      34.253  16.663   7.834  0.00  0.00     0.000 A 
HETATM   24  C   UNK N   1      33.192  16.458   8.721  0.00  0.00     0.001 A 
HETATM   25  C   UNK N   1      31.875  16.705   8.314  0.00  0.00     0.012 A 
ENDBRANCH  17  20
ENDBRANCH   3  14
BRANCH  13  26
HETATM   26  C   UNK N   1      24.205  20.558   2.762  0.00  0.00     0.177 C 
HETATM   27  O   UNK N   1      24.678  20.613   1.638  0.00  0.00    -0.646 OA
BRANCH  26  28
HETATM   28  O   UNK N   1      23.355  21.534   3.135  0.00  0.00    -0.773 OA
HETATM   29  H   UNK N   1      23.170  22.243   2.552  0.00  0.00     0.167 HD
ENDBRANCH  26  28
ENDBRANCH  13  26
TORSDOF 4
ENDMDL
MODEL 3
REMARK VINA RESULT:      -7.9      8.381     13.586
REMARK  4 active torsions:
REMARK  status: ('A' for Active; 'I' for Inactive)
REMARK    1  A    between atoms: C_3  and  C_17 
REMARK    2  A    between atoms: C_13  and  C_14 
REMARK    3  A    between atoms: C_14  and  O_15 
REMARK    4  A    between atoms: C_20  and  C_23 
ROOT
HETATM    1  C   UNK N   1      37.867  12.472  11.197  0.00  0.00     0.052 C 
HETATM    2  C   UNK N   1      36.765  13.343  10.677  0.00  0.00    -0.017 A 
HETATM    3  C   UNK N   1      35.724  13.803  11.548  0.00  0.00     0.050 A 
HETATM    4  N   UNK N   1      34.741  14.592  11.039  0.00  0.00    -0.354 N 
ATOM      5  HN  UNK N   1      34.003  14.916  11.663  1.00  0.00     0.166 HD
HETATM    6  C   UNK N   1      34.699  14.967   9.736  0.00  0.00     0.044 A 
HETATM    7  C   UNK N   1      33.651  15.781   9.290  0.00  0.00     0.033 A 
HETATM    8  C   UNK N   1      33.587  16.180   7.951  0.00  0.00     0.044 A 
HETATM    9  C   UNK N   1      34.571  15.765   7.054  0.00  0.00     0.117 A 
HETATM   10  F   UNK N   1      34.515  16.147   5.755  0.00  0.00    -0.206 F 
HETATM   11  C   UNK N   1      35.615  14.954   7.494  0.00  0.00     0.057 A 
HETATM   12  C   UNK N   1      35.700  14.541   8.836  0.00  0.00     0.011 A 
HETATM   13  C   UNK N   1      36.758  13.714   9.299  0.00  0.00     0.058 A 
ENDROOT
BRANCH   3  14
HETATM   14  C   UNK N   1      35.659  13.457  13.012  0.00  0.00    -0.009 A 
HETATM   15  C   UNK N   1      34.876  12.393  13.471  0.00  0.00     0.014 A 
HETATM   16  C   UNK N   1      34.807  12.065  14.815  0.00  0.00     0.013 A 
HETATM   17  C   UNK N   1      35.525  12.794  15.763  0.00  0.00    -0.026 A 
HETATM   18  C   UNK N   1      36.322  13.871  15.331  0.00  0.00     0.013 A 
HETATM   19  C   UNK N   1      36.387  14.199  13.963  0.00  0.00     0.014 A 
BRANCH  17  20
HETATM   20  C   UNK N   1      35.419  12.405  17.190  0.00  0.00    -0.026 A 
HETATM   21  C   UNK N   1      35.521  11.048  17.551  0.00  0.00     0.012 A 
HETATM   22  C   UNK N   1      35.425  10.655  18.886  0.00  0.00     0.001 A 
HETATM   23  C   UNK N   1      35.227  11.614  19.879  0.00  0.00     0.000 A 
HETATM   24  C   UNK N   1      35.124  12.965  19.536  0.00  0.00     0.001 A 
HETATM   25  C   UNK N   1      35.219  13.362  18.196  0.00  0.00     0.012 A 
ENDBRANCH  17  20
ENDBRANCH   3  14
BRANCH  13  26
HETATM   26  C   UNK N   1      37.849  13.240   8.355  0.00  0.00     0.177 C 
HETATM   27  O   UNK N   1      37.718  12.206   7.720  0.00  0.00    -0.646 OA
BRANCH  26  28
HETATM   28  O   UNK N   1      38.988  13.941   8.189  0.00  0.00    -0.773 OA
HETATM   29  H   UNK N   1      39.384  14.370   8.922  0.00  0.00     0.167 HD
ENDBRANCH  26  28
ENDBRANCH  13  26
TORSDOF 4
ENDMDL
MODEL 4
REMARK VINA RESULT:      -7.8      3.560      4.403
REMARK  4 active torsions:
REMARK  status: ('A' for Active; 'I' for Inactive)
REMARK    1  A    between atoms: C_3  and  C_17 
REMARK    2  A    between atoms: C_13  and  C_14 
REMARK    3  A    between atoms: C_14  and  O_15 
REMARK    4  A    between atoms: C_20  and  C_23 
ROOT
HETATM    1  C   UNK N   1      27.544  16.596   7.407  0.00  0.00     0.052 C 
HETATM    2  C   UNK N   1      28.963  16.704   6.939  0.00  0.00    -0.017 A 
HETATM    3  C   UNK N   1      29.339  16.241   5.635  0.00  0.00     0.050 A 
HETATM    4  N   UNK N   1      30.636  16.356   5.245  0.00  0.00    -0.354 N 
ATOM      5  HN  UNK N   1      30.898  16.024   4.317  1.00  0.00     0.166 HD
HETATM    6  C   UNK N   1      31.598  16.892   6.037  0.00  0.00     0.044 A 
HETATM    7  C   UNK N   1      32.912  16.974   5.561  0.00  0.00     0.033 A 
HETATM    8  C   UNK N   1      33.920  17.523   6.360  0.00  0.00     0.044 A 
HETATM    9  C   UNK N   1      33.617  17.991   7.638  0.00  0.00     0.117 A 
HETATM   10  F   UNK N   1      34.589  18.524   8.418  0.00  0.00    -0.206 F 
HETATM   11  C   UNK N   1      32.310  17.911   8.116  0.00  0.00     0.057 A 
HETATM   12  C   UNK N   1      31.281  17.363   7.330  0.00  0.00     0.011 A 
HETATM   13  C   UNK N   1      29.944  17.275   7.803  0.00  0.00     0.058 A 
ENDROOT
BRANCH   3  14
HETATM   14  C   UNK N   1      28.366  15.627   4.663  0.00  0.00    -0.009 A 
HETATM   15  C   UNK N   1      28.053  14.265   4.713  0.00  0.00     0.014 A 
HETATM   16  C   UNK N   1      27.160  13.689   3.825  0.00  0.00     0.013 A 
HETATM   17  C   UNK N   1      26.538  14.458   2.843  0.00  0.00    -0.026 A 
HETATM   18  C   UNK N   1      26.832  15.833   2.767  0.00  0.00     0.013 A 
HETATM   19  C   UNK N   1      27.741  16.412   3.674  0.00  0.00     0.014 A 
BRANCH  17  20
HETATM   20  C   UNK N   1      25.589  13.796   1.915  0.00  0.00    -0.026 A 
HETATM   21  C   UNK N   1      25.714  12.418   1.657  0.00  0.00     0.012 A 
HETATM   22  C   UNK N   1      24.835  11.771   0.788  0.00  0.00     0.001 A 
HETATM   23  C   UNK N   1      23.818  12.494   0.165  0.00  0.00     0.000 A 
HETATM   24  C   UNK N   1      23.681  13.864   0.411  0.00  0.00     0.001 A 
HETATM   25  C   UNK N   1      24.563  14.515   1.283  0.00  0.00     0.012 A 
ENDBRANCH  17  20
ENDBRANCH   3  14
BRANCH  13  26
HETATM   26  C   UNK N   1      29.572  17.773   9.188  0.00  0.00     0.177 C 
HETATM   27  O   UNK N   1      29.159  18.910   9.352  0.00  0.00    -0.646 OA
BRANCH  26  28
HETATM   28  O   UNK N   1      29.684  16.982  10.273  0.00  0.00    -0.773 OA
HETATM   29  H   UNK N   1      28.964  16.445  10.538  0.00  0.00     0.167 HD
ENDBRANCH  26  28
ENDBRANCH  13  26
TORSDOF 4
ENDMDL
MODEL 5
REMARK VINA RESULT:      -7.6      3.983      8.961
REMARK  4 active torsions:
REMARK  status: ('A' for Active; 'I' for Inactive)
REMARK    1  A    between atoms: C_3  and  C_17 
REMARK    2  A    between atoms: C_13  and  C_14 
REMARK    3  A    between atoms: C_14  and  O_15 
REMARK    4  A    between atoms: C_20  and  C_23 
ROOT
HETATM    1  C   UNK N   1      26.214  15.473   6.626  0.00  0.00     0.052 C 
HETATM    2  C   UNK N   1      25.971  16.734   5.856  0.00  0.00    -0.017 A 
HETATM    3  C   UNK N   1      27.011  17.709   5.704  0.00  0.00     0.050 A 
HETATM    4  N   UNK N   1      26.753  18.842   4.998  0.00  0.00    -0.354 N 
ATOM      5  HN  UNK N   1      27.496  19.531   4.893  1.00  0.00     0.166 HD
HETATM    6  C   UNK N   1      25.549  19.095   4.427  0.00  0.00     0.044 A 
HETATM    7  C   UNK N   1      25.364  20.286   3.715  0.00  0.00     0.033 A 
HETATM    8  C   UNK N   1      24.131  20.568   3.118  0.00  0.00     0.044 A 
HETATM    9  C   UNK N   1      23.079  19.659   3.231  0.00  0.00     0.117 A 
HETATM   10  F   UNK N   1      21.882  19.926   2.655  0.00  0.00    -0.206 F 
HETATM   11  C   UNK N   1      23.260  18.472   3.938  0.00  0.00     0.057 A 
HETATM   12  C   UNK N   1      24.491  18.168   4.547  0.00  0.00     0.011 A 
HETATM   13  C   UNK N   1      24.690  16.962   5.271  0.00  0.00     0.058 A 
ENDROOT
BRANCH   3  14
HETATM   14  C   UNK N   1      28.389  17.545   6.289  0.00  0.00    -0.009 A 
HETATM   15  C   UNK N   1      28.675  17.957   7.594  0.00  0.00     0.014 A 
HETATM   16  C   UNK N   1      29.938  17.812   8.144  0.00  0.00     0.013 A 
HETATM   17  C   UNK N   1      30.975  17.245   7.404  0.00  0.00    -0.026 A 
HETATM   18  C   UNK N   1      30.718  16.821   6.087  0.00  0.00     0.013 A 
HETATM   19  C   UNK N   1      29.431  16.971   5.534  0.00  0.00     0.014 A 
BRANCH  17  20
HETATM   20  C   UNK N   1      32.310  17.111   8.036  0.00  0.00    -0.026 A 
HETATM   21  C   UNK N   1      33.263  18.134   7.873  0.00  0.00     0.012 A 
HETATM   22  C   UNK N   1      34.527  18.033   8.456  0.00  0.00     0.001 A 
HETATM   23  C   UNK N   1      34.854  16.907   9.211  0.00  0.00     0.000 A 
HETATM   24  C   UNK N   1      33.918  15.883   9.383  0.00  0.00     0.001 A 
HETATM   25  C   UNK N   1      32.649  15.983   8.798  0.00  0.00     0.012 A 
ENDBRANCH  17  20
ENDBRANCH   3  14
BRANCH  13  26
HETATM   26  C   UNK N   1      23.571  15.945   5.417  0.00  0.00     0.177 C 
HETATM   27  O   UNK N   1      23.427  15.054   4.596  0.00  0.00    -0.646 OA
BRANCH  26  28
HETATM   28  O   UNK N   1      22.708  15.995   6.450  0.00  0.00    -0.773 OA
HETATM   29  H   UNK N   1      22.881  15.503   7.229  0.00  0.00     0.167 HD
ENDBRANCH  26  28
ENDBRANCH  13  26
TORSDOF 4
ENDMDL
MODEL 6
REMARK VINA RESULT:      -7.6      2.138      3.495
REMARK  4 active torsions:
REMARK  status: ('A' for Active; 'I' for Inactive)
REMARK    1  A    between atoms: C_3  and  C_17 
REMARK    2  A    between atoms: C_13  and  C_14 
REMARK    3  A    between atoms: C_14  and  O_15 
REMARK    4  A    between atoms: C_20  and  C_23 
ROOT
HETATM    1  C   UNK N   1      28.067  16.482   3.334  0.00  0.00     0.052 C 
HETATM    2  C   UNK N   1      28.382  17.016   4.698  0.00  0.00    -0.017 A 
HETATM    3  C   UNK N   1      27.375  17.680   5.473  0.00  0.00     0.050 A 
HETATM    4  N   UNK N   1      27.698  18.150   6.707  0.00  0.00    -0.354 N 
ATOM      5  HN  UNK N   1      26.978  18.622   7.253  1.00  0.00     0.166 HD
HETATM    6  C   UNK N   1      28.938  18.020   7.243  0.00  0.00     0.044 A 
HETATM    7  C   UNK N   1      29.190  18.533   8.521  0.00  0.00     0.033 A 
HETATM    8  C   UNK N   1      30.459  18.410   9.093  0.00  0.00     0.044 A 
HETATM    9  C   UNK N   1      31.482  17.774   8.389  0.00  0.00     0.117 A 
HETATM   10  F   UNK N   1      32.714  17.651   8.938  0.00  0.00    -0.206 F 
HETATM   11  C   UNK N   1      31.235  17.262   7.117  0.00  0.00     0.057 A 
HETATM   12  C   UNK N   1      29.965  17.374   6.521  0.00  0.00     0.011 A 
HETATM   13  C   UNK N   1      29.698  16.858   5.225  0.00  0.00     0.058 A 
ENDROOT
BRANCH   3  14
HETATM   14  C   UNK N   1      25.964  17.887   4.991  0.00  0.00    -0.009 A 
HETATM   15  C   UNK N   1      25.589  19.060   4.328  0.00  0.00     0.014 A 
HETATM   16  C   UNK N   1      24.295  19.263   3.880  0.00  0.00     0.013 A 
HETATM   17  C   UNK N   1      23.314  18.293   4.077  0.00  0.00    -0.026 A 
HETATM   18  C   UNK N   1      23.660  17.101   4.741  0.00  0.00     0.013 A 
HETATM   19  C   UNK N   1      24.978  16.901   5.195  0.00  0.00     0.014 A 
BRANCH  17  20
HETATM   20  C   UNK N   1      21.941  18.556   3.579  0.00  0.00    -0.026 A 
HETATM   21  C   UNK N   1      21.596  19.847   3.139  0.00  0.00     0.012 A 
HETATM   22  C   UNK N   1      20.312  20.121   2.666  0.00  0.00     0.001 A 
HETATM   23  C   UNK N   1      19.356  19.107   2.626  0.00  0.00     0.000 A 
HETATM   24  C   UNK N   1      19.685  17.818   3.060  0.00  0.00     0.001 A 
HETATM   25  C   UNK N   1      20.972  17.542   3.535  0.00  0.00     0.012 A 
ENDBRANCH  17  20
ENDBRANCH   3  14
BRANCH  13  26
HETATM   26  C   UNK N   1      30.783  16.158   4.425  0.00  0.00     0.177 C 
HETATM   27  O   UNK N   1      31.502  16.787   3.666  0.00  0.00    -0.646 OA
BRANCH  26  28
HETATM   28  O   UNK N   1      30.985  14.830   4.527  0.00  0.00    -0.773 OA
HETATM   29  H   UNK N   1      30.536  14.337   5.185  0.00  0.00     0.167 HD
ENDBRANCH  26  28
ENDBRANCH  13  26
TORSDOF 4
ENDMDL
MODEL 7
REMARK VINA RESULT:      -7.4      8.958     12.859
REMARK  4 active torsions:
REMARK  status: ('A' for Active; 'I' for Inactive)
REMARK    1  A    between atoms: C_3  and  C_17 
REMARK    2  A    between atoms: C_13  and  C_14 
REMARK    3  A    between atoms: C_14  and  O_15 
REMARK    4  A    between atoms: C_20  and  C_23 
ROOT
HETATM    1  C   UNK N   1      37.158  11.249  12.124  0.00  0.00     0.052 C 
HETATM    2  C   UNK N   1      36.575  11.703  13.427  0.00  0.00    -0.017 A 
HETATM    3  C   UNK N   1      35.768  12.885  13.494  0.00  0.00     0.050 A 
HETATM    4  N   UNK N   1      35.256  13.266  14.695  0.00  0.00    -0.354 N 
ATOM      5  HN  UNK N   1      34.682  14.107  14.736  1.00  0.00     0.166 HD
HETATM    6  C   UNK N   1      35.475  12.574  15.841  0.00  0.00     0.044 A 
HETATM    7  C   UNK N   1      34.912  13.032  17.037  0.00  0.00     0.033 A 
HETATM    8  C   UNK N   1      35.125  12.336  18.231  0.00  0.00     0.044 A 
HETATM    9  C   UNK N   1      35.902  11.177  18.231  0.00  0.00     0.117 A 
HETATM   10  F   UNK N   1      36.112  10.497  19.384  0.00  0.00    -0.206 F 
HETATM   11  C   UNK N   1      36.464  10.718  17.042  0.00  0.00     0.057 A 
HETATM   12  C   UNK N   1      36.264  11.403  15.830  0.00  0.00     0.011 A 
HETATM   13  C   UNK N   1      36.831  10.946  14.609  0.00  0.00     0.058 A 
ENDROOT
BRANCH   3  14
HETATM   14  C   UNK N   1      35.451  13.739  12.294  0.00  0.00    -0.009 A 
HETATM   15  C   UNK N   1      34.668  13.250  11.244  0.00  0.00     0.014 A 
HETATM   16  C   UNK N   1      34.370  14.025  10.135  0.00  0.00     0.013 A 
HETATM   17  C   UNK N   1      34.846  15.331  10.031  0.00  0.00    -0.026 A 
HETATM   18  C   UNK N   1      35.637  15.851  11.073  0.00  0.00     0.013 A 
HETATM   19  C   UNK N   1      35.937  15.058  12.198  0.00  0.00     0.014 A 
BRANCH  17  20
HETATM   20  C   UNK N   1      34.500  16.122   8.825  0.00  0.00    -0.026 A 
HETATM   21  C   UNK N   1      34.644  15.545   7.550  0.00  0.00     0.012 A 
HETATM   22  C   UNK N   1      34.326  16.266   6.399  0.00  0.00     0.001 A 
HETATM   23  C   UNK N   1      33.859  17.576   6.508  0.00  0.00     0.000 A 
HETATM   24  C   UNK N   1      33.711  18.163   7.769  0.00  0.00     0.001 A 
HETATM   25  C   UNK N   1      34.030  17.440   8.925  0.00  0.00     0.012 A 
ENDBRANCH  17  20
ENDBRANCH   3  14
BRANCH  13  26
HETATM   26  C   UNK N   1      37.683   9.690  14.566  0.00  0.00     0.177 C 
HETATM   27  O   UNK N   1      37.173   8.597  14.377  0.00  0.00    -0.646 OA
BRANCH  26  28
HETATM   28  O   UNK N   1      39.018   9.742  14.734  0.00  0.00    -0.773 OA
HETATM   29  H   UNK N   1      39.553  10.183  14.104  0.00  0.00     0.167 HD
ENDBRANCH  26  28
ENDBRANCH  13  26
TORSDOF 4
ENDMDL
MODEL 8
REMARK VINA RESULT:      -7.3      2.130      3.143
REMARK  4 active torsions:
REMARK  status: ('A' for Active; 'I' for Inactive)
REMARK    1  A    between atoms: C_3  and  C_17 
REMARK    2  A    between atoms: C_13  and  C_14 
REMARK    3  A    between atoms: C_14  and  O_15 
REMARK    4  A    between atoms: C_20  and  C_23 
ROOT
HETATM    1  C   UNK N   1      29.663  16.422   2.654  0.00  0.00     0.052 C 
HETATM    2  C   UNK N   1      30.180  16.713   4.029  0.00  0.00    -0.017 A 
HETATM    3  C   UNK N   1      29.358  17.387   4.990  0.00  0.00     0.050 A 
HETATM    4  N   UNK N   1      29.861  17.634   6.229  0.00  0.00    -0.354 N 
ATOM      5  HN  UNK N   1      29.272  18.114   6.909  1.00  0.00     0.166 HD
HETATM    6  C   UNK N   1      31.114  17.270   6.600  0.00  0.00     0.044 A 
HETATM    7  C   UNK N   1      31.558  17.561   7.895  0.00  0.00     0.033 A 
HETATM    8  C   UNK N   1      32.846  17.195   8.299  0.00  0.00     0.044 A 
HETATM    9  C   UNK N   1      33.694  16.536   7.409  0.00  0.00     0.117 A 
HETATM   10  F   UNK N   1      34.943  16.179   7.794  0.00  0.00    -0.206 F 
HETATM   11  C   UNK N   1      33.256  16.245   6.119  0.00  0.00     0.057 A 
HETATM   12  C   UNK N   1      31.965  16.603   5.691  0.00  0.00     0.011 A 
HETATM   13  C   UNK N   1      31.504  16.313   4.378  0.00  0.00     0.058 A 
ENDROOT
BRANCH   3  14
HETATM   14  C   UNK N   1      27.952  17.842   4.702  0.00  0.00    -0.009 A 
HETATM   15  C   UNK N   1      26.858  16.998   4.918  0.00  0.00     0.014 A 
HETATM   16  C   UNK N   1      25.560  17.405   4.656  0.00  0.00     0.013 A 
HETATM   17  C   UNK N   1      25.301  18.683   4.164  0.00  0.00    -0.026 A 
HETATM   18  C   UNK N   1      26.381  19.556   3.936  0.00  0.00     0.013 A 
HETATM   19  C   UNK N   1      27.699  19.136   4.204  0.00  0.00     0.014 A 
BRANCH  17  20
HETATM   20  C   UNK N   1      23.894  19.072   3.899  0.00  0.00    -0.026 A 
HETATM   21  C   UNK N   1      23.621  20.153   3.039  0.00  0.00     0.012 A 
HETATM   22  C   UNK N   1      22.308  20.540   2.773  0.00  0.00     0.001 A 
HETATM   23  C   UNK N   1      21.248  19.852   3.364  0.00  0.00     0.000 A 
HETATM   24  C   UNK N   1      21.504  18.777   4.221  0.00  0.00     0.001 A 
HETATM   25  C   UNK N   1      22.822  18.387   4.489  0.00  0.00     0.012 A 
ENDBRANCH  17  20
ENDBRANCH   3  14
BRANCH  13  26
HETATM   26  C   UNK N   1      32.395  15.598   3.379  0.00  0.00     0.177 C 
HETATM   27  O   UNK N   1      33.094  16.229   2.603  0.00  0.00    -0.646 OA
BRANCH  26  28
HETATM   28  O   UNK N   1      32.442  14.253   3.316  0.00  0.00    -0.773 OA
HETATM   29  H   UNK N   1      32.994  13.775   3.903  0.00  0.00     0.167 HD
ENDBRANCH  26  28
ENDBRANCH  13  26
TORSDOF 4
ENDMDL
MODEL 9
REMARK VINA RESULT:      -7.0      4.405      9.054
REMARK  4 active torsions:
REMARK  status: ('A' for Active; 'I' for Inactive)
REMARK    1  A    between atoms: C_3  and  C_17 
REMARK    2  A    between atoms: C_13  and  C_14 
REMARK    3  A    between atoms: C_14  and  O_15 
REMARK    4  A    between atoms: C_20  and  C_23 
ROOT
HETATM    1  C   UNK N   1      25.711  14.341   7.261  0.00  0.00     0.052 C 
HETATM    2  C   UNK N   1      25.036  15.416   6.465  0.00  0.00    -0.017 A 
HETATM    3  C   UNK N   1      25.776  16.551   5.997  0.00  0.00     0.050 A 
HETATM    4  N   UNK N   1      25.129  17.506   5.277  0.00  0.00    -0.354 N 
ATOM      5  HN  UNK N   1      25.659  18.311   4.946  1.00  0.00     0.166 HD
HETATM    6  C   UNK N   1      23.807  17.434   4.979  0.00  0.00     0.044 A 
HETATM    7  C   UNK N   1      23.215  18.460   4.233  0.00  0.00     0.033 A 
HETATM    8  C   UNK N   1      21.855  18.408   3.914  0.00  0.00     0.044 A 
HETATM    9  C   UNK N   1      21.082  17.328   4.342  0.00  0.00     0.117 A 
HETATM   10  F   UNK N   1      19.763  17.271   4.036  0.00  0.00    -0.206 F 
HETATM   11  C   UNK N   1      21.667  16.305   5.085  0.00  0.00     0.057 A 
HETATM   12  C   UNK N   1      23.033  16.337   5.417  0.00  0.00     0.011 A 
HETATM   13  C   UNK N   1      23.644  15.302   6.174  0.00  0.00     0.058 A 
ENDROOT
BRANCH   3  14
HETATM   14  C   UNK N   1      27.245  16.747   6.260  0.00  0.00    -0.009 A 
HETATM   15  C   UNK N   1      28.211  16.273   5.367  0.00  0.00     0.014 A 
HETATM   16  C   UNK N   1      29.565  16.446   5.598  0.00  0.00     0.013 A 
HETATM   17  C   UNK N   1      30.013  17.106   6.742  0.00  0.00    -0.026 A 
HETATM   18  C   UNK N   1      29.065  17.595   7.660  0.00  0.00     0.013 A 
HETATM   19  C   UNK N   1      27.689  17.415   7.419  0.00  0.00     0.014 A 
BRANCH  17  20
HETATM   20  C   UNK N   1      31.474  17.268   6.946  0.00  0.00    -0.026 A 
HETATM   21  C   UNK N   1      32.346  17.157   5.847  0.00  0.00     0.012 A 
HETATM   22  C   UNK N   1      33.724  17.304   6.011  0.00  0.00     0.001 A 
HETATM   23  C   UNK N   1      34.248  17.565   7.277  0.00  0.00     0.000 A 
HETATM   24  C   UNK N   1      33.393  17.678   8.378  0.00  0.00     0.001 A 
HETATM   25  C   UNK N   1      32.010  17.530   8.215  0.00  0.00     0.012 A 
ENDBRANCH  17  20
ENDBRANCH   3  14
BRANCH  13  26
HETATM   26  C   UNK N   1      22.838  14.110   6.658  0.00  0.00     0.177 C 
HETATM   27  O   UNK N   1      22.730  13.108   5.969  0.00  0.00    -0.646 OA
BRANCH  26  28
HETATM   28  O   UNK N   1      22.221  14.119   7.856  0.00  0.00    -0.773 OA
HETATM   29  H   UNK N   1      22.143  13.326   8.349  0.00  0.00     0.167 HD
ENDBRANCH  26  28
ENDBRANCH  13  26
TORSDOF 4
ENDMDL
