MODEL 1
REMARK VINA RESULT:      -5.5      0.000      0.000
REMARK  13 active torsions:
REMARK  status: ('A' for Active; 'I' for Inactive)
REMARK    1  A    between atoms: C_9  and  C_4 
REMARK    2  A    between atoms: N_15  and  C_4 
REMARK    3  A    between atoms: C_8  and  C_5 
REMARK    4  A    between atoms: O_23  and  C_5 
REMARK    5  A    between atoms: C_10  and  C_7 
REMARK    6  A    between atoms: O_16  and  C_7 
REMARK    7  A    between atoms: C_12  and  C_10 
REMARK    8  A    between atoms: N_15  and  C_10 
REMARK    9  A    between atoms: O_17  and  C_11 
REMARK   10  A    between atoms: O_19  and  C_12 
REMARK   11  A    between atoms: P_24  and  O_20 
REMARK   12  A    between atoms: P_24  and  O_21 
REMARK   13  A    between atoms: P_24  and  O_23 
ROOT
HETATM    1  C   UNK N   1      23.125  14.889   6.902  0.00  0.00     0.071 C 
HETATM    2  C   UNK N   1      22.717  18.234   5.315  0.00  0.00     0.098 A 
HETATM    3  C   UNK N   1      22.546  16.001   6.094  0.00  0.00     0.039 A 
HETATM    4  C   UNK N   1      21.520  18.113   4.610  0.00  0.00    -0.008 A 
HETATM    5  C   UNK N   1      20.816  16.894   4.646  0.00  0.00     0.004 A 
HETATM    6  C   UNK N   1      21.340  15.824   5.397  0.00  0.00     0.096 A 
HETATM    7  N   UNK N   1      23.197  17.191   6.041  0.00  0.00    -0.367 N 
ATOM      8  HN  UNK N   1      24.068  17.304   6.558  1.00  0.00     0.165 HD
ENDROOT
BRANCH   5   9
HETATM    9  C   UNK N   1      19.509  16.748   3.908  0.00  0.00     0.157 C 
BRANCH   9  10
HETATM   10  N   UNK N   1      19.510  15.622   2.976  0.00  0.00    -0.402 N 
HETATM   11  H   UNK N   1      18.920  14.794   3.065  0.00  0.00     0.154 HD
BRANCH  10  12
HETATM   12  C   UNK N   1      20.475  15.845   1.895  0.00  0.00     0.204 C 
BRANCH  12  13
HETATM   13  C   UNK N   1      21.427  14.646   1.766  0.00  0.00     0.147 C 
HETATM   14  C   UNK N   1      22.841  14.954   2.241  0.00  0.00     0.042 C 
BRANCH  13  15
HETATM   15  O   UNK N   1      21.474  14.213   0.441  0.00  0.00    -0.393 OA
HETATM   16  H   UNK N   1      20.734  13.717   0.059  0.00  0.00     0.210 HD
ENDBRANCH  13  15
ENDBRANCH  12  13
BRANCH  12  17
HETATM   17  C   UNK N   1      19.797  16.163   0.585  0.00  0.00     0.165 C 
HETATM   18  O   UNK N   1      20.259  17.007  -0.167  0.00  0.00    -0.648 OA
BRANCH  17  19
HETATM   19  O   UNK N   1      18.682  15.496   0.234  0.00  0.00    -0.775 OA
HETATM   20  H   UNK N   1      18.290  15.284  -0.590  0.00  0.00     0.167 HD
ENDBRANCH  17  19
ENDBRANCH  12  17
ENDBRANCH  10  12
ENDBRANCH   9  10
ENDBRANCH   5   9
BRANCH   4  21
HETATM   21  C   UNK N   1      21.042  19.284   3.816  0.00  0.00     0.221 C 
BRANCH  21  22
HETATM   22  O   UNK N   1      21.637  19.303   2.552  0.00  0.00    -0.292 OA
BRANCH  22  23
HETATM   23  P   UNK N   1      20.941  20.697   1.779  0.00  0.00     0.391 P 
HETATM   24  O   UNK N   1      22.300  20.543   1.043  0.00  0.00    -0.632 OA
BRANCH  23  25
HETATM   25  O   UNK N   1      20.476  20.638   0.109  0.00  0.00    -0.307 OA
HETATM   26  H   UNK N   1      20.540  19.906  -0.525  0.00  0.00     0.222 HD
ENDBRANCH  23  25
BRANCH  23  27
HETATM   27  O   UNK N   1      19.934  19.315   1.474  0.00  0.00    -0.307 OA
HETATM   28  H   UNK N   1      19.301  18.955   2.116  0.00  0.00     0.222 HD
ENDBRANCH  23  27
ENDBRANCH  22  23
ENDBRANCH  21  22
ENDBRANCH   4  21
BRANCH   6  29
HETATM   29  O   UNK N   1      20.694  14.645   5.448  0.00  0.00    -0.358 OA
HETATM   30  H   UNK N   1      20.504  13.995   4.800  0.00  0.00     0.217 HD
ENDBRANCH   6  29
TORSDOF 13
ENDMDL
MODEL 2
REMARK VINA RESULT:      -5.5      3.351      5.181
REMARK  13 active torsions:
REMARK  status: ('A' for Active; 'I' for Inactive)
REMARK    1  A    between atoms: C_9  and  C_4 
REMARK    2  A    between atoms: N_15  and  C_4 
REMARK    3  A    between atoms: C_8  and  C_5 
REMARK    4  A    between atoms: O_23  and  C_5 
REMARK    5  A    between atoms: C_10  and  C_7 
REMARK    6  A    between atoms: O_16  and  C_7 
REMARK    7  A    between atoms: C_12  and  C_10 
REMARK    8  A    between atoms: N_15  and  C_10 
REMARK    9  A    between atoms: O_17  and  C_11 
REMARK   10  A    between atoms: O_19  and  C_12 
REMARK   11  A    between atoms: P_24  and  O_20 
REMARK   12  A    between atoms: P_24  and  O_21 
REMARK   13  A    between atoms: P_24  and  O_23 
ROOT
HETATM    1  C   UNK N   1      22.817  14.513   6.618  0.00  0.00     0.071 C 
HETATM    2  C   UNK N   1      20.776  17.000   4.741  0.00  0.00     0.098 A 
HETATM    3  C   UNK N   1      22.448  15.741   5.857  0.00  0.00     0.039 A 
HETATM    4  C   UNK N   1      21.693  18.005   4.435  0.00  0.00    -0.008 A 
HETATM    5  C   UNK N   1      23.030  17.874   4.855  0.00  0.00     0.004 A 
HETATM    6  C   UNK N   1      23.409  16.727   5.579  0.00  0.00     0.096 A 
HETATM    7  N   UNK N   1      21.168  15.898   5.432  0.00  0.00    -0.367 N 
ATOM      8  HN  UNK N   1      20.484  15.170   5.638  1.00  0.00     0.165 HD
ENDROOT
BRANCH   5   9
HETATM    9  C   UNK N   1      24.042  18.938   4.515  0.00  0.00     0.157 C 
BRANCH   9  10
HETATM   10  N   UNK N   1      25.030  18.485   3.537  0.00  0.00    -0.402 N 
HETATM   11  H   UNK N   1      24.810  17.972   2.684  0.00  0.00     0.154 HD
BRANCH  10  12
HETATM   12  C   UNK N   1      26.383  18.870   3.952  0.00  0.00     0.204 C 
BRANCH  12  13
HETATM   13  C   UNK N   1      26.351  19.555   5.327  0.00  0.00     0.147 C 
HETATM   14  C   UNK N   1      27.111  20.874   5.354  0.00  0.00     0.042 C 
BRANCH  13  15
HETATM   15  O   UNK N   1      26.881  18.703   6.297  0.00  0.00    -0.393 OA
HETATM   16  H   UNK N   1      27.296  17.865   6.042  0.00  0.00     0.210 HD
ENDBRANCH  13  15
ENDBRANCH  12  13
BRANCH  12  17
HETATM   17  C   UNK N   1      27.338  17.703   3.931  0.00  0.00     0.165 C 
HETATM   18  O   UNK N   1      26.926  16.558   4.035  0.00  0.00    -0.648 OA
BRANCH  17  19
HETATM   19  O   UNK N   1      28.656  17.925   3.778  0.00  0.00    -0.775 OA
HETATM   20  H   UNK N   1      29.354  17.426   3.400  0.00  0.00     0.167 HD
ENDBRANCH  17  19
ENDBRANCH  12  17
ENDBRANCH  10  12
ENDBRANCH   9  10
ENDBRANCH   5   9
BRANCH   4  21
HETATM   21  C   UNK N   1      21.208  19.203   3.685  0.00  0.00     0.221 C 
BRANCH  21  22
HETATM   22  O   UNK N   1      21.288  18.991   2.307  0.00  0.00    -0.292 OA
BRANCH  22  23
HETATM   23  P   UNK N   1      20.685  20.469   1.617  0.00  0.00     0.391 P 
HETATM   24  O   UNK N   1      22.204  20.755   1.759  0.00  0.00    -0.632 OA
BRANCH  23  25
HETATM   25  O   UNK N   1      21.144  20.945   0.013  0.00  0.00    -0.307 OA
HETATM   26  H   UNK N   1      21.612  21.741  -0.285  0.00  0.00     0.222 HD
ENDBRANCH  23  25
BRANCH  23  27
HETATM   27  O   UNK N   1      20.422  19.169   0.496  0.00  0.00    -0.307 OA
HETATM   28  H   UNK N   1      19.602  19.046  -0.007  0.00  0.00     0.222 HD
ENDBRANCH  23  27
ENDBRANCH  22  23
ENDBRANCH  21  22
ENDBRANCH   4  21
BRANCH   6  29
HETATM   29  O   UNK N   1      24.678  16.574   6.000  0.00  0.00    -0.358 OA
HETATM   30  H   UNK N   1      25.244  17.108   6.522  0.00  0.00     0.217 HD
ENDBRANCH   6  29
TORSDOF 13
ENDMDL
MODEL 3
REMARK VINA RESULT:      -5.5     12.268     13.991
REMARK  13 active torsions:
REMARK  status: ('A' for Active; 'I' for Inactive)
REMARK    1  A    between atoms: C_9  and  C_4 
REMARK    2  A    between atoms: N_15  and  C_4 
REMARK    3  A    between atoms: C_8  and  C_5 
REMARK    4  A    between atoms: O_23  and  C_5 
REMARK    5  A    between atoms: C_10  and  C_7 
REMARK    6  A    between atoms: O_16  and  C_7 
REMARK    7  A    between atoms: C_12  and  C_10 
REMARK    8  A    between atoms: N_15  and  C_10 
REMARK    9  A    between atoms: O_17  and  C_11 
REMARK   10  A    between atoms: O_19  and  C_12 
REMARK   11  A    between atoms: P_24  and  O_20 
REMARK   12  A    between atoms: P_24  and  O_21 
REMARK   13  A    between atoms: P_24  and  O_23 
ROOT
HETATM    1  C   UNK N   1      25.335  22.596  -7.914  0.00  0.00     0.071 C 
HETATM    2  C   UNK N   1      28.748  22.427  -6.432  0.00  0.00     0.098 A 
HETATM    3  C   UNK N   1      26.474  22.821  -6.978  0.00  0.00     0.039 A 
HETATM    4  C   UNK N   1      28.637  23.199  -5.276  0.00  0.00    -0.008 A 
HETATM    5  C   UNK N   1      27.404  23.803  -4.963  0.00  0.00     0.004 A 
HETATM    6  C   UNK N   1      26.310  23.613  -5.830  0.00  0.00     0.096 A 
HETATM    7  N   UNK N   1      27.676  22.249  -7.247  0.00  0.00    -0.367 N 
ATOM      8  HN  UNK N   1      27.775  21.673  -8.082  1.00  0.00     0.165 HD
ENDROOT
BRANCH   5   9
HETATM    9  C   UNK N   1      27.256  24.624  -3.707  0.00  0.00     0.157 C 
BRANCH   9  10
HETATM   10  N   UNK N   1      26.317  25.733  -3.865  0.00  0.00    -0.402 N 
HETATM   11  H   UNK N   1      25.302  25.649  -3.799  0.00  0.00     0.154 HD
BRANCH  10  12
HETATM   12  C   UNK N   1      27.034  26.984  -4.131  0.00  0.00     0.204 C 
BRANCH  12  13
HETATM   13  C   UNK N   1      26.979  27.330  -5.627  0.00  0.00     0.147 C 
HETATM   14  C   UNK N   1      27.500  28.727  -5.934  0.00  0.00     0.042 C 
BRANCH  13  15
HETATM   15  O   UNK N   1      25.671  27.216  -6.096  0.00  0.00    -0.393 OA
HETATM   16  H   UNK N   1      25.487  27.233  -7.048  0.00  0.00     0.210 HD
ENDBRANCH  13  15
ENDBRANCH  12  13
BRANCH  12  17
HETATM   17  C   UNK N   1      26.530  28.120  -3.276  0.00  0.00     0.165 C 
HETATM   18  O   UNK N   1      27.265  28.668  -2.470  0.00  0.00    -0.648 OA
BRANCH  17  19
HETATM   19  O   UNK N   1      25.261  28.546  -3.417  0.00  0.00    -0.775 OA
HETATM   20  H   UNK N   1      24.538  28.257  -3.940  0.00  0.00     0.167 HD
ENDBRANCH  17  19
ENDBRANCH  12  17
ENDBRANCH  10  12
ENDBRANCH   9  10
ENDBRANCH   5   9
BRANCH   4  21
HETATM   21  C   UNK N   1      29.848  23.374  -4.420  0.00  0.00     0.221 C 
BRANCH  21  22
HETATM   22  O   UNK N   1      30.035  22.265  -3.591  0.00  0.00    -0.292 OA
BRANCH  22  23
HETATM   23  P   UNK N   1      31.738  22.285  -3.238  0.00  0.00     0.391 P 
HETATM   24  O   UNK N   1      31.107  22.763  -1.902  0.00  0.00    -0.632 OA
BRANCH  23  25
HETATM   25  O   UNK N   1      32.409  21.187  -2.074  0.00  0.00    -0.307 OA
HETATM   26  H   UNK N   1      33.145  21.316  -1.455  0.00  0.00     0.222 HD
ENDBRANCH  23  25
BRANCH  23  27
HETATM   27  O   UNK N   1      31.246  20.655  -3.583  0.00  0.00    -0.307 OA
HETATM   28  H   UNK N   1      31.844  19.891  -3.549  0.00  0.00     0.222 HD
ENDBRANCH  23  27
ENDBRANCH  22  23
ENDBRANCH  21  22
ENDBRANCH   4  21
BRANCH   6  29
HETATM   29  O   UNK N   1      25.121  24.181  -5.563  0.00  0.00    -0.358 OA
HETATM   30  H   UNK N   1      24.244  23.851  -5.558  0.00  0.00     0.217 HD
ENDBRANCH   6  29
TORSDOF 13
ENDMDL
MODEL 4
REMARK VINA RESULT:      -5.3      8.013      9.619
REMARK  13 active torsions:
REMARK  status: ('A' for Active; 'I' for Inactive)
REMARK    1  A    between atoms: C_9  and  C_4 
REMARK    2  A    between atoms: N_15  and  C_4 
REMARK    3  A    between atoms: C_8  and  C_5 
REMARK    4  A    between atoms: O_23  and  C_5 
REMARK    5  A    between atoms: C_10  and  C_7 
REMARK    6  A    between atoms: O_16  and  C_7 
REMARK    7  A    between atoms: C_12  and  C_10 
REMARK    8  A    between atoms: N_15  and  C_10 
REMARK    9  A    between atoms: O_17  and  C_11 
REMARK   10  A    between atoms: O_19  and  C_12 
REMARK   11  A    between atoms: P_24  and  O_20 
REMARK   12  A    between atoms: P_24  and  O_21 
REMARK   13  A    between atoms: P_24  and  O_23 
ROOT
HETATM    1  C   UNK N   1      29.671  18.692   9.989  0.00  0.00     0.071 C 
HETATM    2  C   UNK N   1      31.965  16.866   7.692  0.00  0.00     0.098 A 
HETATM    3  C   UNK N   1      30.181  17.994   8.775  0.00  0.00     0.039 A 
HETATM    4  C   UNK N   1      31.195  16.685   6.544  0.00  0.00    -0.008 A 
HETATM    5  C   UNK N   1      29.874  17.171   6.512  0.00  0.00     0.004 A 
HETATM    6  C   UNK N   1      29.362  17.832   7.646  0.00  0.00     0.096 A 
HETATM    7  N   UNK N   1      31.452  17.516   8.769  0.00  0.00    -0.367 N 
ATOM      8  HN  UNK N   1      32.035  17.648   9.596  1.00  0.00     0.165 HD
ENDROOT
BRANCH   5   9
HETATM    9  C   UNK N   1      29.032  17.005   5.273  0.00  0.00     0.157 C 
BRANCH   9  10
HETATM   10  N   UNK N   1      29.032  18.196   4.426  0.00  0.00    -0.402 N 
HETATM   11  H   UNK N   1      29.870  18.694   4.123  0.00  0.00     0.154 HD
BRANCH  10  12
HETATM   12  C   UNK N   1      27.662  18.579   4.071  0.00  0.00     0.204 C 
BRANCH  12  13
HETATM   13  C   UNK N   1      26.661  17.523   4.565  0.00  0.00     0.147 C 
HETATM   14  C   UNK N   1      25.773  16.978   3.456  0.00  0.00     0.042 C 
BRANCH  13  15
HETATM   15  O   UNK N   1      25.858  18.060   5.572  0.00  0.00    -0.393 OA
HETATM   16  H   UNK N   1      26.157  18.827   6.083  0.00  0.00     0.210 HD
ENDBRANCH  13  15
ENDBRANCH  12  13
BRANCH  12  17
HETATM   17  C   UNK N   1      27.310  19.958   4.569  0.00  0.00     0.165 C 
HETATM   18  O   UNK N   1      27.876  20.434   5.541  0.00  0.00    -0.648 OA
BRANCH  17  19
HETATM   19  O   UNK N   1      26.374  20.680   3.925  0.00  0.00    -0.775 OA
HETATM   20  H   UNK N   1      25.471  20.864   4.096  0.00  0.00     0.167 HD
ENDBRANCH  17  19
ENDBRANCH  12  17
ENDBRANCH  10  12
ENDBRANCH   9  10
ENDBRANCH   5   9
BRANCH   4  21
HETATM   21  C   UNK N   1      31.801  15.952   5.392  0.00  0.00     0.221 C 
BRANCH  21  22
HETATM   22  O   UNK N   1      32.881  16.663   4.864  0.00  0.00    -0.292 OA
BRANCH  22  23
HETATM   23  P   UNK N   1      32.620  16.615   3.146  0.00  0.00     0.391 P 
HETATM   24  O   UNK N   1      31.763  15.424   3.654  0.00  0.00    -0.632 OA
BRANCH  23  25
HETATM   25  O   UNK N   1      31.052  16.950   2.483  0.00  0.00    -0.307 OA
HETATM   26  H   UNK N   1      30.312  17.447   2.867  0.00  0.00     0.222 HD
ENDBRANCH  23  25
BRANCH  23  27
HETATM   27  O   UNK N   1      31.999  18.110   3.774  0.00  0.00    -0.307 OA
HETATM   28  H   UNK N   1      32.555  18.811   4.150  0.00  0.00     0.222 HD
ENDBRANCH  23  27
ENDBRANCH  22  23
ENDBRANCH  21  22
ENDBRANCH   4  21
BRANCH   6  29
HETATM   29  O   UNK N   1      28.102  18.304   7.649  0.00  0.00    -0.358 OA
HETATM   30  H   UNK N   1      27.360  18.140   7.102  0.00  0.00     0.217 HD
ENDBRANCH   6  29
TORSDOF 13
ENDMDL
MODEL 5
REMARK VINA RESULT:      -5.3      5.101      7.356
REMARK  13 active torsions:
REMARK  status: ('A' for Active; 'I' for Inactive)
REMARK    1  A    between atoms: C_9  and  C_4 
REMARK    2  A    between atoms: N_15  and  C_4 
REMARK    3  A    between atoms: C_8  and  C_5 
REMARK    4  A    between atoms: O_23  and  C_5 
REMARK    5  A    between atoms: C_10  and  C_7 
REMARK    6  A    between atoms: O_16  and  C_7 
REMARK    7  A    between atoms: C_12  and  C_10 
REMARK    8  A    between atoms: N_15  and  C_10 
REMARK    9  A    between atoms: O_17  and  C_11 
REMARK   10  A    between atoms: O_19  and  C_12 
REMARK   11  A    between atoms: P_24  and  O_20 
REMARK   12  A    between atoms: P_24  and  O_21 
REMARK   13  A    between atoms: P_24  and  O_23 
ROOT
HETATM    1  C   UNK N   1      23.143  11.695  13.024  0.00  0.00     0.071 C 
HETATM    2  C   UNK N   1      25.038  12.889  10.048  0.00  0.00     0.098 A 
HETATM    3  C   UNK N   1      23.430  12.230  11.662  0.00  0.00     0.039 A 
HETATM    4  C   UNK N   1      24.035  13.225   9.140  0.00  0.00    -0.008 A 
HETATM    5  C   UNK N   1      22.685  13.055   9.504  0.00  0.00     0.004 A 
HETATM    6  C   UNK N   1      22.382  12.547  10.783  0.00  0.00     0.096 A 
HETATM    7  N   UNK N   1      24.720  12.411  11.279  0.00  0.00    -0.367 N 
ATOM      8  HN  UNK N   1      25.469  12.181  11.932  1.00  0.00     0.165 HD
ENDROOT
BRANCH   5   9
HETATM    9  C   UNK N   1      21.585  13.432   8.546  0.00  0.00     0.157 C 
BRANCH   9  10
HETATM   10  N   UNK N   1      20.656  14.410   9.109  0.00  0.00    -0.402 N 
HETATM   11  H   UNK N   1      20.055  14.243   9.917  0.00  0.00     0.154 HD
BRANCH  10  12
HETATM   12  C   UNK N   1      20.707  15.666   8.355  0.00  0.00     0.204 C 
BRANCH  12  13
HETATM   13  C   UNK N   1      20.637  15.392   6.845  0.00  0.00     0.147 C 
HETATM   14  C   UNK N   1      21.082  16.579   6.002  0.00  0.00     0.042 C 
BRANCH  13  15
HETATM   15  O   UNK N   1      19.337  15.036   6.483  0.00  0.00    -0.393 OA
HETATM   16  H   UNK N   1      19.115  14.862   5.555  0.00  0.00     0.210 HD
ENDBRANCH  13  15
ENDBRANCH  12  13
BRANCH  12  17
HETATM   17  C   UNK N   1      19.641  16.638   8.796  0.00  0.00     0.165 C 
HETATM   18  O   UNK N   1      18.488  16.269   8.955  0.00  0.00    -0.648 OA
BRANCH  17  19
HETATM   19  O   UNK N   1      19.968  17.922   9.032  0.00  0.00    -0.775 OA
HETATM   20  H   UNK N   1      20.783  18.367   9.159  0.00  0.00     0.167 HD
ENDBRANCH  17  19
ENDBRANCH  12  17
ENDBRANCH  10  12
ENDBRANCH   9  10
ENDBRANCH   5   9
BRANCH   4  21
HETATM   21  C   UNK N   1      24.436  13.734   7.794  0.00  0.00     0.221 C 
BRANCH  21  22
HETATM   22  O   UNK N   1      25.567  14.549   7.889  0.00  0.00    -0.292 OA
BRANCH  22  23
HETATM   23  P   UNK N   1      25.782  15.162   6.276  0.00  0.00     0.391 P 
HETATM   24  O   UNK N   1      24.253  15.315   6.498  0.00  0.00    -0.632 OA
BRANCH  23  25
HETATM   25  O   UNK N   1      25.502  16.839   5.927  0.00  0.00    -0.307 OA
HETATM   26  H   UNK N   1      24.916  17.243   5.267  0.00  0.00     0.222 HD
ENDBRANCH  23  25
BRANCH  23  27
HETATM   27  O   UNK N   1      26.652  16.172   7.391  0.00  0.00    -0.307 OA
HETATM   28  H   UNK N   1      26.321  16.418   8.269  0.00  0.00     0.222 HD
ENDBRANCH  23  27
ENDBRANCH  22  23
ENDBRANCH  21  22
ENDBRANCH   4  21
BRANCH   6  29
HETATM   29  O   UNK N   1      21.103  12.367  11.160  0.00  0.00    -0.358 OA
HETATM   30  H   UNK N   1      20.607  11.605  11.384  0.00  0.00     0.217 HD
ENDBRANCH   6  29
TORSDOF 13
ENDMDL
MODEL 6
REMARK VINA RESULT:      -5.3     12.065     13.728
REMARK  13 active torsions:
REMARK  status: ('A' for Active; 'I' for Inactive)
REMARK    1  A    between atoms: C_9  and  C_4 
REMARK    2  A    between atoms: N_15  and  C_4 
REMARK    3  A    between atoms: C_8  and  C_5 
REMARK    4  A    between atoms: O_23  and  C_5 
REMARK    5  A    between atoms: C_10  and  C_7 
REMARK    6  A    between atoms: O_16  and  C_7 
REMARK    7  A    between atoms: C_12  and  C_10 
REMARK    8  A    between atoms: N_15  and  C_10 
REMARK    9  A    between atoms: O_17  and  C_11 
REMARK   10  A    between atoms: O_19  and  C_12 
REMARK   11  A    between atoms: P_24  and  O_20 
REMARK   12  A    between atoms: P_24  and  O_21 
REMARK   13  A    between atoms: P_24  and  O_23 
ROOT
HETATM    1  C   UNK N   1      28.335  28.571  -3.465  0.00  0.00     0.071 C 
HETATM    2  C   UNK N   1      25.769  26.322  -4.958  0.00  0.00     0.098 A 
HETATM    3  C   UNK N   1      27.702  27.356  -4.055  0.00  0.00     0.039 A 
HETATM    4  C   UNK N   1      26.462  25.129  -5.158  0.00  0.00    -0.008 A 
HETATM    5  C   UNK N   1      27.820  25.048  -4.796  0.00  0.00     0.004 A 
HETATM    6  C   UNK N   1      28.448  26.180  -4.240  0.00  0.00     0.096 A 
HETATM    7  N   UNK N   1      26.393  27.397  -4.411  0.00  0.00    -0.367 N 
ATOM      8  HN  UNK N   1      25.865  28.257  -4.264  1.00  0.00     0.165 HD
ENDROOT
BRANCH   5   9
HETATM    9  C   UNK N   1      28.583  23.761  -4.983  0.00  0.00     0.157 C 
BRANCH   9  10
HETATM   10  N   UNK N   1      28.943  23.129  -3.715  0.00  0.00    -0.402 N 
HETATM   11  H   UNK N   1      28.367  23.148  -2.872  0.00  0.00     0.154 HD
BRANCH  10  12
HETATM   12  C   UNK N   1      30.245  22.464  -3.819  0.00  0.00     0.204 C 
BRANCH  12  13
HETATM   13  C   UNK N   1      31.112  23.141  -4.892  0.00  0.00     0.147 C 
HETATM   14  C   UNK N   1      31.840  22.145  -5.785  0.00  0.00     0.042 C 
BRANCH  13  15
HETATM   15  O   UNK N   1      32.047  23.984  -4.290  0.00  0.00    -0.393 OA
HETATM   16  H   UNK N   1      32.779  23.616  -3.773  0.00  0.00     0.210 HD
ENDBRANCH  13  15
ENDBRANCH  12  13
BRANCH  12  17
HETATM   17  C   UNK N   1      30.956  22.394  -2.490  0.00  0.00     0.165 C 
HETATM   18  O   UNK N   1      30.578  23.067  -1.545  0.00  0.00    -0.648 OA
BRANCH  17  19
HETATM   19  O   UNK N   1      32.006  21.566  -2.341  0.00  0.00    -0.775 OA
HETATM   20  H   UNK N   1      32.245  20.938  -1.687  0.00  0.00     0.167 HD
ENDBRANCH  17  19
ENDBRANCH  12  17
ENDBRANCH  10  12
ENDBRANCH   9  10
ENDBRANCH   5   9
BRANCH   4  21
HETATM   21  C   UNK N   1      25.734  23.980  -5.776  0.00  0.00     0.221 C 
BRANCH  21  22
HETATM   22  O   UNK N   1      25.601  24.160  -7.154  0.00  0.00    -0.292 OA
BRANCH  22  23
HETATM   23  P   UNK N   1      25.519  22.542  -7.786  0.00  0.00     0.391 P 
HETATM   24  O   UNK N   1      24.899  22.387  -6.372  0.00  0.00    -0.632 OA
BRANCH  23  25
HETATM   25  O   UNK N   1      23.986  21.800  -8.112  0.00  0.00    -0.307 OA
HETATM   26  H   UNK N   1      23.108  22.206  -8.197  0.00  0.00     0.222 HD
ENDBRANCH  23  25
BRANCH  23  27
HETATM   27  O   UNK N   1      24.531  23.586  -8.763  0.00  0.00    -0.307 OA
HETATM   28  H   UNK N   1      23.571  23.488  -8.857  0.00  0.00     0.222 HD
ENDBRANCH  23  27
ENDBRANCH  22  23
ENDBRANCH  21  22
ENDBRANCH   4  21
BRANCH   6  29
HETATM   29  O   UNK N   1      29.746  26.138  -3.889  0.00  0.00    -0.358 OA
HETATM   30  H   UNK N   1      30.337  25.431  -3.722  0.00  0.00     0.217 HD
ENDBRANCH   6  29
TORSDOF 13
ENDMDL
MODEL 7
REMARK VINA RESULT:      -5.2      1.866      2.376
REMARK  13 active torsions:
REMARK  status: ('A' for Active; 'I' for Inactive)
REMARK    1  A    between atoms: C_9  and  C_4 
REMARK    2  A    between atoms: N_15  and  C_4 
REMARK    3  A    between atoms: C_8  and  C_5 
REMARK    4  A    between atoms: O_23  and  C_5 
REMARK    5  A    between atoms: C_10  and  C_7 
REMARK    6  A    between atoms: O_16  and  C_7 
REMARK    7  A    between atoms: C_12  and  C_10 
REMARK    8  A    between atoms: N_15  and  C_10 
REMARK    9  A    between atoms: O_17  and  C_11 
REMARK   10  A    between atoms: O_19  and  C_12 
REMARK   11  A    between atoms: P_24  and  O_20 
REMARK   12  A    between atoms: P_24  and  O_21 
REMARK   13  A    between atoms: P_24  and  O_23 
ROOT
HETATM    1  C   UNK N   1      19.894  14.901   8.836  0.00  0.00     0.071 C 
HETATM    2  C   UNK N   1      21.050  17.794   6.795  0.00  0.00     0.098 A 
HETATM    3  C   UNK N   1      20.332  15.705   7.660  0.00  0.00     0.039 A 
HETATM    4  C   UNK N   1      21.154  17.262   5.510  0.00  0.00    -0.008 A 
HETATM    5  C   UNK N   1      20.839  15.907   5.295  0.00  0.00     0.004 A 
HETATM    6  C   UNK N   1      20.425  15.119   6.387  0.00  0.00     0.096 A 
HETATM    7  N   UNK N   1      20.640  17.017   7.831  0.00  0.00    -0.367 N 
ATOM      8  HN  UNK N   1      20.561  17.428   8.761  1.00  0.00     0.165 HD
ENDROOT
BRANCH   5   9
HETATM    9  C   UNK N   1      20.923  15.317   3.910  0.00  0.00     0.157 C 
BRANCH   9  10
HETATM   10  N   UNK N   1      19.672  15.445   3.165  0.00  0.00    -0.402 N 
HETATM   11  H   UNK N   1      18.758  15.612   3.587  0.00  0.00     0.154 HD
BRANCH  10  12
HETATM   12  C   UNK N   1      19.910  15.298   1.725  0.00  0.00     0.204 C 
BRANCH  12  13
HETATM   13  C   UNK N   1      18.995  14.215   1.135  0.00  0.00     0.147 C 
HETATM   14  C   UNK N   1      19.765  13.077   0.479  0.00  0.00     0.042 C 
BRANCH  13  15
HETATM   15  O   UNK N   1      18.128  14.779   0.198  0.00  0.00    -0.393 OA
HETATM   16  H   UNK N   1      17.707  15.636   0.371  0.00  0.00     0.210 HD
ENDBRANCH  13  15
ENDBRANCH  12  13
BRANCH  12  17
HETATM   17  C   UNK N   1      19.771  16.608   0.990  0.00  0.00     0.165 C 
HETATM   18  O   UNK N   1      20.371  16.803  -0.055  0.00  0.00    -0.648 OA
BRANCH  17  19
HETATM   19  O   UNK N   1      18.963  17.564   1.483  0.00  0.00    -0.775 OA
HETATM   20  H   UNK N   1      18.245  18.049   1.125  0.00  0.00     0.167 HD
ENDBRANCH  17  19
ENDBRANCH  12  17
ENDBRANCH  10  12
ENDBRANCH   9  10
ENDBRANCH   5   9
BRANCH   4  21
HETATM   21  C   UNK N   1      21.623  18.154   4.409  0.00  0.00     0.221 C 
BRANCH  21  22
HETATM   22  O   UNK N   1      21.134  19.452   4.578  0.00  0.00    -0.292 OA
BRANCH  22  23
HETATM   23  P   UNK N   1      21.007  20.071   2.958  0.00  0.00     0.391 P 
HETATM   24  O   UNK N   1      20.142  21.070   3.773  0.00  0.00    -0.632 OA
BRANCH  23  25
HETATM   25  O   UNK N   1      21.695  21.609   2.546  0.00  0.00    -0.307 OA
HETATM   26  H   UNK N   1      22.515  21.811   2.068  0.00  0.00     0.222 HD
ENDBRANCH  23  25
BRANCH  23  27
HETATM   27  O   UNK N   1      22.664  20.155   3.473  0.00  0.00    -0.307 OA
HETATM   28  H   UNK N   1      23.416  19.884   2.922  0.00  0.00     0.222 HD
ENDBRANCH  23  27
ENDBRANCH  22  23
ENDBRANCH  21  22
ENDBRANCH   4  21
BRANCH   6  29
HETATM   29  O   UNK N   1      20.123  13.819   6.216  0.00  0.00    -0.358 OA
HETATM   30  H   UNK N   1      20.250  13.225   5.503  0.00  0.00     0.217 HD
ENDBRANCH   6  29
TORSDOF 13
ENDMDL
MODEL 8
REMARK VINA RESULT:      -5.1      3.414      6.388
REMARK  13 active torsions:
REMARK  status: ('A' for Active; 'I' for Inactive)
REMARK    1  A    between atoms: C_9  and  C_4 
REMARK    2  A    between atoms: N_15  and  C_4 
REMARK    3  A    between atoms: C_8  and  C_5 
REMARK    4  A    between atoms: O_23  and  C_5 
REMARK    5  A    between atoms: C_10  and  C_7 
REMARK    6  A    between atoms: O_16  and  C_7 
REMARK    7  A    between atoms: C_12  and  C_10 
REMARK    8  A    between atoms: N_15  and  C_10 
REMARK    9  A    between atoms: O_17  and  C_11 
REMARK   10  A    between atoms: O_19  and  C_12 
REMARK   11  A    between atoms: P_24  and  O_20 
REMARK   12  A    between atoms: P_24  and  O_21 
REMARK   13  A    between atoms: P_24  and  O_23 
ROOT
HETATM    1  C   UNK N   1      20.774  21.559   0.900  0.00  0.00     0.071 C 
HETATM    2  C   UNK N   1      19.516  18.519   2.645  0.00  0.00     0.098 A 
HETATM    3  C   UNK N   1      20.715  20.397   1.832  0.00  0.00     0.039 A 
HETATM    4  C   UNK N   1      20.539  18.215   3.543  0.00  0.00    -0.008 A 
HETATM    5  C   UNK N   1      21.687  19.028   3.584  0.00  0.00     0.004 A 
HETATM    6  C   UNK N   1      21.775  20.132   2.714  0.00  0.00     0.096 A 
HETATM    7  N   UNK N   1      19.620  19.595   1.822  0.00  0.00    -0.367 N 
ATOM      8  HN  UNK N   1      18.856  19.805   1.180  1.00  0.00     0.165 HD
ENDROOT
BRANCH   5   9
HETATM    9  C   UNK N   1      22.795  18.731   4.563  0.00  0.00     0.157 C 
BRANCH   9  10
HETATM   10  N   UNK N   1      24.081  18.500   3.907  0.00  0.00    -0.402 N 
HETATM   11  H   UNK N   1      24.194  18.117   2.968  0.00  0.00     0.154 HD
BRANCH  10  12
HETATM   12  C   UNK N   1      25.188  18.894   4.785  0.00  0.00     0.204 C 
BRANCH  12  13
HETATM   13  C   UNK N   1      26.198  17.745   4.928  0.00  0.00     0.147 C 
HETATM   14  C   UNK N   1      26.259  16.849   3.699  0.00  0.00     0.042 C 
BRANCH  13  15
HETATM   15  O   UNK N   1      25.884  16.969   6.045  0.00  0.00    -0.393 OA
HETATM   16  H   UNK N   1      25.352  17.338   6.766  0.00  0.00     0.210 HD
ENDBRANCH  13  15
ENDBRANCH  12  13
BRANCH  12  17
HETATM   17  C   UNK N   1      25.852  20.167   4.324  0.00  0.00     0.165 C 
HETATM   18  O   UNK N   1      26.507  20.845   5.100  0.00  0.00    -0.648 OA
BRANCH  17  19
HETATM   19  O   UNK N   1      25.736  20.551   3.040  0.00  0.00    -0.775 OA
HETATM   20  H   UNK N   1      26.166  20.292   2.248  0.00  0.00     0.167 HD
ENDBRANCH  17  19
ENDBRANCH  12  17
ENDBRANCH  10  12
ENDBRANCH   9  10
ENDBRANCH   5   9
BRANCH   4  21
HETATM   21  C   UNK N   1      20.382  17.014   4.417  0.00  0.00     0.221 C 
BRANCH  21  22
HETATM   22  O   UNK N   1      19.048  16.604   4.463  0.00  0.00    -0.292 OA
BRANCH  22  23
HETATM   23  P   UNK N   1      19.116  15.024   5.186  0.00  0.00     0.391 P 
HETATM   24  O   UNK N   1      17.808  15.614   5.780  0.00  0.00    -0.632 OA
BRANCH  23  25
HETATM   25  O   UNK N   1      17.930  13.822   4.788  0.00  0.00    -0.307 OA
HETATM   26  H   UNK N   1      16.990  13.929   4.571  0.00  0.00     0.222 HD
ENDBRANCH  23  25
BRANCH  23  27
HETATM   27  O   UNK N   1      18.969  14.857   3.463  0.00  0.00    -0.307 OA
HETATM   28  H   UNK N   1      19.726  14.805   2.858  0.00  0.00     0.222 HD
ENDBRANCH  23  27
ENDBRANCH  22  23
ENDBRANCH  21  22
ENDBRANCH   4  21
BRANCH   6  29
HETATM   29  O   UNK N   1      22.862  20.925   2.725  0.00  0.00    -0.358 OA
HETATM   30  H   UNK N   1      23.047  21.746   3.136  0.00  0.00     0.217 HD
ENDBRANCH   6  29
TORSDOF 13
ENDMDL
MODEL 9
REMARK VINA RESULT:      -5.1     12.225     13.731
REMARK  13 active torsions:
REMARK  status: ('A' for Active; 'I' for Inactive)
REMARK    1  A    between atoms: C_9  and  C_4 
REMARK    2  A    between atoms: N_15  and  C_4 
REMARK    3  A    between atoms: C_8  and  C_5 
REMARK    4  A    between atoms: O_23  and  C_5 
REMARK    5  A    between atoms: C_10  and  C_7 
REMARK    6  A    between atoms: O_16  and  C_7 
REMARK    7  A    between atoms: C_12  and  C_10 
REMARK    8  A    between atoms: N_15  and  C_10 
REMARK    9  A    between atoms: O_17  and  C_11 
REMARK   10  A    between atoms: O_19  and  C_12 
REMARK   11  A    between atoms: P_24  and  O_20 
REMARK   12  A    between atoms: P_24  and  O_21 
REMARK   13  A    between atoms: P_24  and  O_23 
ROOT
HETATM    1  C   UNK N   1      27.042  29.216  -4.999  0.00  0.00     0.071 C 
HETATM    2  C   UNK N   1      29.193  26.327  -4.051  0.00  0.00     0.098 A 
HETATM    3  C   UNK N   1      27.461  27.822  -4.675  0.00  0.00     0.039 A 
HETATM    4  C   UNK N   1      28.309  25.249  -4.063  0.00  0.00    -0.008 A 
HETATM    5  C   UNK N   1      26.957  25.466  -4.390  0.00  0.00     0.004 A 
HETATM    6  C   UNK N   1      26.529  26.772  -4.697  0.00  0.00     0.096 A 
HETATM    7  N   UNK N   1      28.759  27.576  -4.360  0.00  0.00    -0.367 N 
ATOM      8  HN  UNK N   1      29.424  28.350  -4.355  1.00  0.00     0.165 HD
ENDROOT
BRANCH   5   9
HETATM    9  C   UNK N   1      25.989  24.311  -4.430  0.00  0.00     0.157 C 
BRANCH   9  10
HETATM   10  N   UNK N   1      25.293  24.202  -5.712  0.00  0.00    -0.402 N 
HETATM   11  H   UNK N   1      24.340  24.523  -5.885  0.00  0.00     0.154 HD
BRANCH  10  12
HETATM   12  C   UNK N   1      26.153  23.566  -6.715  0.00  0.00     0.204 C 
BRANCH  12  13
HETATM   13  C   UNK N   1      25.462  22.332  -7.315  0.00  0.00     0.147 C 
HETATM   14  C   UNK N   1      26.409  21.449  -8.115  0.00  0.00     0.042 C 
BRANCH  13  15
HETATM   15  O   UNK N   1      24.404  22.727  -8.133  0.00  0.00    -0.393 OA
HETATM   16  H   UNK N   1      23.518  22.860  -7.762  0.00  0.00     0.210 HD
ENDBRANCH  13  15
ENDBRANCH  12  13
BRANCH  12  17
HETATM   17  C   UNK N   1      26.591  24.536  -7.785  0.00  0.00     0.165 C 
HETATM   18  O   UNK N   1      27.774  24.788  -7.952  0.00  0.00    -0.648 OA
BRANCH  17  19
HETATM   19  O   UNK N   1      25.668  25.116  -8.574  0.00  0.00    -0.775 OA
HETATM   20  H   UNK N   1      25.273  25.966  -8.586  0.00  0.00     0.167 HD
ENDBRANCH  17  19
ENDBRANCH  12  17
ENDBRANCH  10  12
ENDBRANCH   9  10
ENDBRANCH   5   9
BRANCH   4  21
HETATM   21  C   UNK N   1      28.833  23.897  -3.702  0.00  0.00     0.221 C 
BRANCH  21  22
HETATM   22  O   UNK N   1      30.139  23.985  -3.215  0.00  0.00    -0.292 OA
BRANCH  22  23
HETATM   23  P   UNK N   1      30.655  22.329  -3.088  0.00  0.00     0.391 P 
HETATM   24  O   UNK N   1      31.849  23.003  -3.818  0.00  0.00    -0.632 OA
BRANCH  23  25
HETATM   25  O   UNK N   1      32.011  21.902  -2.094  0.00  0.00    -0.307 OA
HETATM   26  H   UNK N   1      32.207  21.066  -1.643  0.00  0.00     0.222 HD
ENDBRANCH  23  25
BRANCH  23  27
HETATM   27  O   UNK N   1      30.475  22.994  -1.494  0.00  0.00    -0.307 OA
HETATM   28  H   UNK N   1      31.219  23.267  -0.934  0.00  0.00     0.222 HD
ENDBRANCH  23  27
ENDBRANCH  22  23
ENDBRANCH  21  22
ENDBRANCH   4  21
BRANCH   6  29
HETATM   29  O   UNK N   1      25.243  27.014  -5.008  0.00  0.00    -0.358 OA
HETATM   30  H   UNK N   1      24.536  27.405  -4.533  0.00  0.00     0.217 HD
ENDBRANCH   6  29
TORSDOF 13
ENDMDL
