MODEL 1
REMARK VINA RESULT:      -4.9      0.000      0.000
REMARK  2 active torsions:
REMARK  status: ('A' for Active; 'I' for Inactive)
REMARK    1  A    between atoms: C_6  and  O_7 
REMARK    2  A    between atoms: C_8  and  O_9 
ROOT
HETATM    1  C   UNK N   1      24.855  13.294   9.155  0.00  0.00     0.051 C 
HETATM    2  C   UNK N   1      23.653  12.899   9.945  0.00  0.00    -0.026 A 
HETATM    3  C   UNK N   1      22.384  13.130   9.407  0.00  0.00     0.010 A 
HETATM    4  C   UNK N   1      21.241  12.772  10.122  0.00  0.00     0.003 A 
HETATM    5  C   UNK N   1      21.361  12.179  11.382  0.00  0.00     0.039 A 
HETATM    6  C   UNK N   1      22.626  11.944  11.929  0.00  0.00     0.099 A 
HETATM    7  C   UNK N   1      23.780  12.302  11.213  0.00  0.00     0.104 A 
ENDROOT
BRANCH   6   8
HETATM    8  O   UNK N   1      22.727  11.373  13.142  0.00  0.00    -0.358 OA
HETATM    9  H   UNK N   1      22.479  11.852  13.907  0.00  0.00     0.217 HD
ENDBRANCH   6   8
BRANCH   7  10
HETATM   10  O   UNK N   1      24.996  12.074  11.743  0.00  0.00    -0.357 OA
HETATM   11  H   UNK N   1      25.736  12.565  11.445  0.00  0.00     0.217 HD
ENDBRANCH   7  10
TORSDOF 2
ENDMDL
MODEL 2
REMARK VINA RESULT:      -4.8      0.523      2.770
REMARK  2 active torsions:
REMARK  status: ('A' for Active; 'I' for Inactive)
REMARK    1  A    between atoms: C_6  and  O_7 
REMARK    2  A    between atoms: C_8  and  O_9 
ROOT
HETATM    1  C   UNK N   1      20.227  12.029  11.686  0.00  0.00     0.051 C 
HETATM    2  C   UNK N   1      21.532  12.312  11.023  0.00  0.00    -0.026 A 
HETATM    3  C   UNK N   1      21.534  12.837   9.728  0.00  0.00     0.010 A 
HETATM    4  C   UNK N   1      22.740  13.113   9.082  0.00  0.00     0.003 A 
HETATM    5  C   UNK N   1      23.953  12.864   9.730  0.00  0.00     0.039 A 
HETATM    6  C   UNK N   1      23.962  12.339  11.025  0.00  0.00     0.099 A 
HETATM    7  C   UNK N   1      22.752  12.060  11.680  0.00  0.00     0.104 A 
ENDROOT
BRANCH   6   8
HETATM    8  O   UNK N   1      25.136  12.104  11.637  0.00  0.00    -0.358 OA
HETATM    9  H   UNK N   1      25.648  11.357  11.396  0.00  0.00     0.217 HD
ENDBRANCH   6   8
BRANCH   7  10
HETATM   10  O   UNK N   1      22.764  11.554  12.927  0.00  0.00    -0.357 OA
HETATM   11  H   UNK N   1      22.110  11.816  13.545  0.00  0.00     0.217 HD
ENDBRANCH   7  10
TORSDOF 2
ENDMDL
MODEL 3
REMARK VINA RESULT:      -4.7      1.280      2.871
REMARK  2 active torsions:
REMARK  status: ('A' for Active; 'I' for Inactive)
REMARK    1  A    between atoms: C_6  and  O_7 
REMARK    2  A    between atoms: C_8  and  O_9 
ROOT
HETATM    1  C   UNK N   1      23.099  11.774  12.996  0.00  0.00     0.051 C 
HETATM    2  C   UNK N   1      22.967  12.174  11.566  0.00  0.00    -0.026 A 
HETATM    3  C   UNK N   1      21.696  12.198  10.985  0.00  0.00     0.010 A 
HETATM    4  C   UNK N   1      21.541  12.569   9.648  0.00  0.00     0.003 A 
HETATM    5  C   UNK N   1      22.658  12.916   8.884  0.00  0.00     0.039 A 
HETATM    6  C   UNK N   1      23.933  12.895   9.456  0.00  0.00     0.099 A 
HETATM    7  C   UNK N   1      24.096  12.523  10.800  0.00  0.00     0.104 A 
ENDROOT
BRANCH   6   8
HETATM    8  O   UNK N   1      25.000  13.232   8.709  0.00  0.00    -0.358 OA
HETATM    9  H   UNK N   1      24.877  13.590   7.852  0.00  0.00     0.217 HD
ENDBRANCH   6   8
BRANCH   7  10
HETATM   10  O   UNK N   1      25.325  12.504  11.347  0.00  0.00    -0.357 OA
HETATM   11  H   UNK N   1      26.031  12.958  10.929  0.00  0.00     0.217 HD
ENDBRANCH   7  10
TORSDOF 2
ENDMDL
MODEL 4
REMARK VINA RESULT:      -4.6     10.752     11.903
REMARK  2 active torsions:
REMARK  status: ('A' for Active; 'I' for Inactive)
REMARK    1  A    between atoms: C_6  and  O_7 
REMARK    2  A    between atoms: C_8  and  O_9 
ROOT
HETATM    1  C   UNK N   1      20.262  16.366   2.433  0.00  0.00     0.051 C 
HETATM    2  C   UNK N   1      20.458  17.843   2.371  0.00  0.00    -0.026 A 
HETATM    3  C   UNK N   1      20.628  18.554   3.561  0.00  0.00     0.010 A 
HETATM    4  C   UNK N   1      20.814  19.938   3.534  0.00  0.00     0.003 A 
HETATM    5  C   UNK N   1      20.829  20.617   2.314  0.00  0.00     0.039 A 
HETATM    6  C   UNK N   1      20.659  19.915   1.117  0.00  0.00     0.099 A 
HETATM    7  C   UNK N   1      20.472  18.524   1.138  0.00  0.00     0.104 A 
ENDROOT
BRANCH   6   8
HETATM    8  O   UNK N   1      20.676  20.582  -0.050  0.00  0.00    -0.358 OA
HETATM    9  H   UNK N   1      20.718  21.518  -0.055  0.00  0.00     0.217 HD
ENDBRANCH   6   8
BRANCH   7  10
HETATM   10  O   UNK N   1      20.309  17.851  -0.016  0.00  0.00    -0.357 OA
HETATM   11  H   UNK N   1      20.018  18.303  -0.784  0.00  0.00     0.217 HD
ENDBRANCH   7  10
TORSDOF 2
ENDMDL
MODEL 5
REMARK VINA RESULT:      -4.6     18.555     19.056
REMARK  2 active torsions:
REMARK  status: ('A' for Active; 'I' for Inactive)
REMARK    1  A    between atoms: C_6  and  O_7 
REMARK    2  A    between atoms: C_8  and  O_9 
ROOT
HETATM    1  C   UNK N   1      33.322  19.713  -4.320  0.00  0.00     0.051 C 
HETATM    2  C   UNK N   1      32.171  20.644  -4.141  0.00  0.00    -0.026 A 
HETATM    3  C   UNK N   1      31.250  20.789  -5.182  0.00  0.00     0.010 A 
HETATM    4  C   UNK N   1      30.162  21.653  -5.044  0.00  0.00     0.003 A 
HETATM    5  C   UNK N   1      29.990  22.377  -3.862  0.00  0.00     0.039 A 
HETATM    6  C   UNK N   1      30.906  22.239  -2.814  0.00  0.00     0.099 A 
HETATM    7  C   UNK N   1      32.002  21.371  -2.948  0.00  0.00     0.104 A 
ENDROOT
BRANCH   6   8
HETATM    8  O   UNK N   1      30.728  22.941  -1.682  0.00  0.00    -0.358 OA
HETATM    9  H   UNK N   1      31.356  23.589  -1.430  0.00  0.00     0.217 HD
ENDBRANCH   6   8
BRANCH   7  10
HETATM   10  O   UNK N   1      32.881  21.241  -1.937  0.00  0.00    -0.357 OA
HETATM   11  H   UNK N   1      33.277  22.002  -1.560  0.00  0.00     0.217 HD
ENDBRANCH   7  10
TORSDOF 2
ENDMDL
MODEL 6
REMARK VINA RESULT:      -4.5     11.484     12.493
REMARK  2 active torsions:
REMARK  status: ('A' for Active; 'I' for Inactive)
REMARK    1  A    between atoms: C_6  and  O_7 
REMARK    2  A    between atoms: C_8  and  O_9 
ROOT
HETATM    1  C   UNK N   1      33.977  14.932  10.380  0.00  0.00     0.051 C 
HETATM    2  C   UNK N   1      33.873  16.011   9.356  0.00  0.00    -0.026 A 
HETATM    3  C   UNK N   1      32.940  15.877   8.325  0.00  0.00     0.010 A 
HETATM    4  C   UNK N   1      32.819  16.870   7.352  0.00  0.00     0.003 A 
HETATM    5  C   UNK N   1      33.633  18.004   7.406  0.00  0.00     0.039 A 
HETATM    6  C   UNK N   1      34.569  18.148   8.434  0.00  0.00     0.099 A 
HETATM    7  C   UNK N   1      34.695  17.152   9.415  0.00  0.00     0.104 A 
ENDROOT
BRANCH   6   8
HETATM    8  O   UNK N   1      35.346  19.245   8.474  0.00  0.00    -0.358 OA
HETATM    9  H   UNK N   1      36.279  19.158   8.478  0.00  0.00     0.217 HD
ENDBRANCH   6   8
BRANCH   7  10
HETATM   10  O   UNK N   1      35.598  17.294  10.403  0.00  0.00    -0.357 OA
HETATM   11  H   UNK N   1      36.366  17.813  10.264  0.00  0.00     0.217 HD
ENDBRANCH   7  10
TORSDOF 2
ENDMDL
MODEL 7
REMARK VINA RESULT:      -4.4     13.982     14.712
REMARK  2 active torsions:
REMARK  status: ('A' for Active; 'I' for Inactive)
REMARK    1  A    between atoms: C_6  and  O_7 
REMARK    2  A    between atoms: C_8  and  O_9 
ROOT
HETATM    1  C   UNK N   1      35.397  10.332  19.871  0.00  0.00     0.051 C 
HETATM    2  C   UNK N   1      35.389  11.425  18.857  0.00  0.00    -0.026 A 
HETATM    3  C   UNK N   1      35.514  11.094  17.505  0.00  0.00     0.010 A 
HETATM    4  C   UNK N   1      35.510  12.095  16.532  0.00  0.00     0.003 A 
HETATM    5  C   UNK N   1      35.381  13.434  16.908  0.00  0.00     0.039 A 
HETATM    6  C   UNK N   1      35.255  13.776  18.257  0.00  0.00     0.099 A 
HETATM    7  C   UNK N   1      35.258  12.773  19.240  0.00  0.00     0.104 A 
ENDROOT
BRANCH   6   8
HETATM    8  O   UNK N   1      35.131  15.069  18.605  0.00  0.00    -0.358 OA
HETATM    9  H   UNK N   1      34.972  15.717  17.948  0.00  0.00     0.217 HD
ENDBRANCH   6   8
BRANCH   7  10
HETATM   10  O   UNK N   1      35.137  13.106  20.539  0.00  0.00    -0.357 OA
HETATM   11  H   UNK N   1      35.792  12.839  21.153  0.00  0.00     0.217 HD
ENDBRANCH   7  10
TORSDOF 2
ENDMDL
MODEL 8
REMARK VINA RESULT:      -4.4      1.139      2.073
REMARK  2 active torsions:
REMARK  status: ('A' for Active; 'I' for Inactive)
REMARK    1  A    between atoms: C_6  and  O_7 
REMARK    2  A    between atoms: C_8  and  O_9 
ROOT
HETATM    1  C   UNK N   1      22.293  13.930   8.192  0.00  0.00     0.051 C 
HETATM    2  C   UNK N   1      22.537  13.209   9.474  0.00  0.00    -0.026 A 
HETATM    3  C   UNK N   1      21.444  12.837  10.260  0.00  0.00     0.010 A 
HETATM    4  C   UNK N   1      21.641  12.161  11.466  0.00  0.00     0.003 A 
HETATM    5  C   UNK N   1      22.936  11.854  11.891  0.00  0.00     0.039 A 
HETATM    6  C   UNK N   1      24.037  12.222  11.111  0.00  0.00     0.099 A 
HETATM    7  C   UNK N   1      23.844  12.901   9.898  0.00  0.00     0.104 A 
ENDROOT
BRANCH   6   8
HETATM    8  O   UNK N   1      25.277  11.919  11.532  0.00  0.00    -0.358 OA
HETATM    9  H   UNK N   1      25.443  11.787  12.445  0.00  0.00     0.217 HD
ENDBRANCH   6   8
BRANCH   7  10
HETATM   10  O   UNK N   1      24.906  13.254   9.150  0.00  0.00    -0.357 OA
HETATM   11  H   UNK N   1      25.604  12.644   9.012  0.00  0.00     0.217 HD
ENDBRANCH   7  10
TORSDOF 2
ENDMDL
MODEL 9
REMARK VINA RESULT:      -4.4     23.129     24.181
REMARK  2 active torsions:
REMARK  status: ('A' for Active; 'I' for Inactive)
REMARK    1  A    between atoms: C_6  and  O_7 
REMARK    2  A    between atoms: C_8  and  O_9 
ROOT
HETATM    1  C   UNK N   1      45.937  19.608   3.450  0.00  0.00     0.051 C 
HETATM    2  C   UNK N   1      44.731  20.472   3.304  0.00  0.00    -0.026 A 
HETATM    3  C   UNK N   1      43.578  19.931   2.730  0.00  0.00     0.010 A 
HETATM    4  C   UNK N   1      42.432  20.715   2.579  0.00  0.00     0.003 A 
HETATM    5  C   UNK N   1      42.436  22.046   3.003  0.00  0.00     0.039 A 
HETATM    6  C   UNK N   1      43.585  22.597   3.578  0.00  0.00     0.099 A 
HETATM    7  C   UNK N   1      44.739  21.813   3.732  0.00  0.00     0.104 A 
ENDROOT
BRANCH   6   8
HETATM    8  O   UNK N   1      43.575  23.880   3.981  0.00  0.00    -0.358 OA
HETATM    9  H   UNK N   1      43.109  24.523   3.484  0.00  0.00     0.217 HD
ENDBRANCH   6   8
BRANCH   7  10
HETATM   10  O   UNK N   1      45.844  22.347   4.286  0.00  0.00    -0.357 OA
HETATM   11  H   UNK N   1      45.765  22.950   4.999  0.00  0.00     0.217 HD
ENDBRANCH   7  10
TORSDOF 2
ENDMDL
