MODEL 1
REMARK VINA RESULT:      -6.4      0.000      0.000
REMARK  10 active torsions:
REMARK  status: ('A' for Active; 'I' for Inactive)
REMARK    1  A    between atoms: C_10  and  C_7 
REMARK    2  A    between atoms: C_11  and  C_8 
REMARK    3  A    between atoms: O_22  and  C_9 
REMARK    4  A    between atoms: C_14  and  C_10 
REMARK    5  A    between atoms: C_10  and  N_18 
REMARK    6  A    between atoms: C_13  and  C_11 
REMARK    7  A    between atoms: C_11  and  N_17 
REMARK    8  A    between atoms: C_12  and  C_15 
REMARK    9  A    between atoms: C_13  and  O_23 
REMARK   10  A    between atoms: O_25  and  C_15 
ROOT
HETATM    1  C   UNK N   1      35.681  13.033  12.259  0.00  0.00     0.139 C 
HETATM    2  N   UNK N   1      34.774  13.911  11.962  0.00  0.00    -0.359 N 
ATOM      3  HN  UNK N   1      33.945  13.981  12.554  1.00  0.00     0.162 HD
ENDROOT
BRANCH   2   4
HETATM    4  C   UNK N   1      34.894  14.800  10.817  0.00  0.00     0.177 C 
BRANCH   4   5
HETATM    5  C   UNK N   1      35.613  16.059  11.205  0.00  0.00     0.259 C 
HETATM    6  O   UNK N   1      36.599  16.433  10.586  0.00  0.00    -0.305 OA
ENDBRANCH   4   5
BRANCH   4   7
HETATM    7  C   UNK N   1      33.508  15.110  10.204  0.00  0.00     0.170 C 
HETATM    8  N   UNK N   1      33.514  16.504   9.727  0.00  0.00    -0.392 N 
HETATM    9  C   UNK N   1      33.114  16.548   8.316  0.00  0.00     0.194 C 
HETATM   10  H   UNK N   1      33.758  17.317  10.292  0.00  0.00     0.155 HD
HETATM   11  C   UNK N   1      33.551  15.225   7.662  0.00  0.00     0.033 C 
HETATM   12  C   UNK N   1      35.060  15.154   7.486  0.00  0.00     0.029 C 
HETATM   13  C   UNK N   1      32.914  14.966   6.306  0.00  0.00     0.029 C 
HETATM   14  S   UNK N   1      33.072  13.965   8.830  0.00  0.00    -0.130 SA
BRANCH   9  15
HETATM   15  C   UNK N   1      31.625  16.826   8.234  0.00  0.00     0.164 C 
HETATM   16  O   UNK N   1      31.144  17.297   7.215  0.00  0.00    -0.648 OA
BRANCH  15  17
HETATM   17  O   UNK N   1      30.829  16.612   9.300  0.00  0.00    -0.775 OA
HETATM   18  H   UNK N   1      30.355  17.268   9.774  0.00  0.00     0.167 HD
ENDBRANCH  15  17
ENDBRANCH   9  15
ENDBRANCH   4   7
ENDBRANCH   2   4
BRANCH   1  19
HETATM   19  C   UNK N   1      35.446  12.035  13.355  0.00  0.00     0.183 C 
BRANCH  19  20
HETATM   20  C   UNK N   1      35.520  12.759  14.685  0.00  0.00    -0.028 A 
HETATM   21  C   UNK N   1      34.559  12.498  15.676  0.00  0.00     0.012 A 
HETATM   22  C   UNK N   1      34.643  13.122  16.926  0.00  0.00     0.037 A 
HETATM   23  C   UNK N   1      35.689  14.011  17.195  0.00  0.00     0.065 A 
HETATM   24  C   UNK N   1      36.644  14.283  16.214  0.00  0.00     0.037 A 
HETATM   25  C   UNK N   1      36.561  13.661  14.965  0.00  0.00     0.012 A 
BRANCH  23  26
HETATM   26  O   UNK N   1      35.774  14.603  18.398  0.00  0.00    -0.361 OA
HETATM   27  H   UNK N   1      35.328  14.243  19.140  0.00  0.00     0.217 HD
ENDBRANCH  23  26
ENDBRANCH  19  20
BRANCH  19  28
HETATM   28  N   UNK N   1      34.138  11.425  13.159  0.00  0.00    -0.416 N 
HETATM   29  H   UNK N   1      33.364  11.909  12.704  0.00  0.00     0.151 HD
HETATM   30  H   UNK N   1      33.990  10.473  13.492  0.00  0.00     0.151 HD
ENDBRANCH  19  28
ENDBRANCH   1  19
BRANCH   1  31
HETATM   31  O   UNK N   1      36.844  12.977  11.572  0.00  0.00    -0.348 OA
HETATM   32  H   UNK N   1      37.617  13.132  11.066  0.00  0.00     0.219 HD
ENDBRANCH   1  31
TORSDOF 10
ENDMDL
MODEL 2
REMARK VINA RESULT:      -6.3     16.980     21.070
REMARK  10 active torsions:
REMARK  status: ('A' for Active; 'I' for Inactive)
REMARK    1  A    between atoms: C_10  and  C_7 
REMARK    2  A    between atoms: C_11  and  C_8 
REMARK    3  A    between atoms: O_22  and  C_9 
REMARK    4  A    between atoms: C_14  and  C_10 
REMARK    5  A    between atoms: C_10  and  N_18 
REMARK    6  A    between atoms: C_13  and  C_11 
REMARK    7  A    between atoms: C_11  and  N_17 
REMARK    8  A    between atoms: C_12  and  C_15 
REMARK    9  A    between atoms: C_13  and  O_23 
REMARK   10  A    between atoms: O_25  and  C_15 
ROOT
HETATM    1  C   UNK N   1      27.364  23.701  -6.694  0.00  0.00     0.139 C 
HETATM    2  N   UNK N   1      27.813  22.520  -6.400  0.00  0.00    -0.359 N 
ATOM      3  HN  UNK N   1      27.148  21.793  -6.132  1.00  0.00     0.162 HD
ENDROOT
BRANCH   2   4
HETATM    4  C   UNK N   1      29.230  22.193  -6.436  0.00  0.00     0.177 C 
BRANCH   4   5
HETATM    5  C   UNK N   1      29.429  20.778  -6.896  0.00  0.00     0.259 C 
HETATM    6  O   UNK N   1      28.763  20.318  -7.811  0.00  0.00    -0.305 OA
ENDBRANCH   4   5
BRANCH   4   7
HETATM    7  C   UNK N   1      29.894  22.436  -5.060  0.00  0.00     0.170 C 
HETATM    8  N   UNK N   1      30.515  21.176  -4.616  0.00  0.00    -0.392 N 
HETATM    9  C   UNK N   1      31.929  21.403  -4.298  0.00  0.00     0.194 C 
HETATM   10  H   UNK N   1      30.033  20.279  -4.541  0.00  0.00     0.155 HD
HETATM   11  C   UNK N   1      32.433  22.550  -5.191  0.00  0.00     0.033 C 
HETATM   12  C   UNK N   1      32.577  22.114  -6.641  0.00  0.00     0.029 C 
HETATM   13  C   UNK N   1      33.765  23.136  -4.750  0.00  0.00     0.029 C 
HETATM   14  S   UNK N   1      31.148  23.784  -5.110  0.00  0.00    -0.130 SA
BRANCH   9  15
HETATM   15  C   UNK N   1      32.063  21.662  -2.809  0.00  0.00     0.164 C 
HETATM   16  O   UNK N   1      31.332  22.470  -2.258  0.00  0.00    -0.648 OA
BRANCH  15  17
HETATM   17  O   UNK N   1      33.025  21.047  -2.092  0.00  0.00    -0.775 OA
HETATM   18  H   UNK N   1      32.906  20.611  -1.271  0.00  0.00     0.167 HD
ENDBRANCH  15  17
ENDBRANCH   9  15
ENDBRANCH   4   7
ENDBRANCH   2   4
BRANCH   1  19
HETATM   19  C   UNK N   1      25.915  24.036  -6.495  0.00  0.00     0.183 C 
BRANCH  19  20
HETATM   20  C   UNK N   1      25.824  25.254  -5.597  0.00  0.00    -0.028 A 
HETATM   21  C   UNK N   1      26.374  25.211  -4.305  0.00  0.00     0.012 A 
HETATM   22  C   UNK N   1      26.341  26.344  -3.484  0.00  0.00     0.037 A 
HETATM   23  C   UNK N   1      25.761  27.528  -3.948  0.00  0.00     0.065 A 
HETATM   24  C   UNK N   1      25.204  27.578  -5.227  0.00  0.00     0.037 A 
HETATM   25  C   UNK N   1      25.236  26.448  -6.049  0.00  0.00     0.012 A 
BRANCH  23  26
HETATM   26  O   UNK N   1      25.737  28.617  -3.163  0.00  0.00    -0.361 OA
HETATM   27  H   UNK N   1      25.646  28.534  -2.233  0.00  0.00     0.217 HD
ENDBRANCH  23  26
ENDBRANCH  19  20
BRANCH  19  28
HETATM   28  N   UNK N   1      25.312  24.294  -7.795  0.00  0.00    -0.416 N 
HETATM   29  H   UNK N   1      24.941  23.553  -8.390  0.00  0.00     0.151 HD
HETATM   30  H   UNK N   1      25.259  25.257  -8.126  0.00  0.00     0.151 HD
ENDBRANCH  19  28
ENDBRANCH   1  19
BRANCH   1  31
HETATM   31  O   UNK N   1      28.193  24.662  -7.159  0.00  0.00    -0.348 OA
HETATM   32  H   UNK N   1      28.683  25.439  -7.341  0.00  0.00     0.219 HD
ENDBRANCH   1  31
TORSDOF 10
ENDMDL
MODEL 3
REMARK VINA RESULT:      -6.2     12.697     14.724
REMARK  10 active torsions:
REMARK  status: ('A' for Active; 'I' for Inactive)
REMARK    1  A    between atoms: C_10  and  C_7 
REMARK    2  A    between atoms: C_11  and  C_8 
REMARK    3  A    between atoms: O_22  and  C_9 
REMARK    4  A    between atoms: C_14  and  C_10 
REMARK    5  A    between atoms: C_10  and  N_18 
REMARK    6  A    between atoms: C_13  and  C_11 
REMARK    7  A    between atoms: C_11  and  N_17 
REMARK    8  A    between atoms: C_12  and  C_15 
REMARK    9  A    between atoms: C_13  and  O_23 
REMARK   10  A    between atoms: O_25  and  C_15 
ROOT
HETATM    1  C   UNK N   1      20.792  14.324   7.027  0.00  0.00     0.139 C 
HETATM    2  N   UNK N   1      21.479  15.098   6.246  0.00  0.00    -0.359 N 
ATOM      3  HN  UNK N   1      21.833  15.981   6.616  1.00  0.00     0.162 HD
ENDROOT
BRANCH   2   4
HETATM    4  C   UNK N   1      21.765  14.754   4.862  0.00  0.00     0.177 C 
BRANCH   4   5
HETATM    5  C   UNK N   1      23.215  14.989   4.552  0.00  0.00     0.259 C 
HETATM    6  O   UNK N   1      23.722  16.087   4.729  0.00  0.00    -0.305 OA
ENDBRANCH   4   5
BRANCH   4   7
HETATM    7  C   UNK N   1      20.848  15.536   3.892  0.00  0.00     0.170 C 
HETATM    8  N   UNK N   1      21.669  16.025   2.771  0.00  0.00    -0.392 N 
HETATM    9  C   UNK N   1      21.082  15.591   1.498  0.00  0.00     0.194 C 
HETATM   10  H   UNK N   1      22.519  16.582   2.864  0.00  0.00     0.155 HD
HETATM   11  C   UNK N   1      20.352  14.260   1.747  0.00  0.00     0.033 C 
HETATM   12  C   UNK N   1      21.328  13.114   1.969  0.00  0.00     0.029 C 
HETATM   13  C   UNK N   1      19.408  13.853   0.627  0.00  0.00     0.029 C 
HETATM   14  S   UNK N   1      19.450  14.517   3.264  0.00  0.00    -0.130 SA
BRANCH   9  15
HETATM   15  C   UNK N   1      20.197  16.700   0.960  0.00  0.00     0.164 C 
HETATM   16  O   UNK N   1      20.348  17.106  -0.181  0.00  0.00    -0.648 OA
BRANCH  15  17
HETATM   17  O   UNK N   1      19.277  17.287   1.752  0.00  0.00    -0.775 OA
HETATM   18  H   UNK N   1      19.399  18.072   2.249  0.00  0.00     0.167 HD
ENDBRANCH  15  17
ENDBRANCH   9  15
ENDBRANCH   4   7
ENDBRANCH   2   4
BRANCH   1  19
HETATM   19  C   UNK N   1      20.392  14.786   8.398  0.00  0.00     0.183 C 
BRANCH  19  20
HETATM   20  C   UNK N   1      21.056  13.885   9.420  0.00  0.00    -0.028 A 
HETATM   21  C   UNK N   1      20.270  13.195  10.358  0.00  0.00     0.012 A 
HETATM   22  C   UNK N   1      20.865  12.322  11.275  0.00  0.00     0.037 A 
HETATM   23  C   UNK N   1      22.250  12.130  11.261  0.00  0.00     0.065 A 
HETATM   24  C   UNK N   1      23.041  12.816  10.338  0.00  0.00     0.037 A 
HETATM   25  C   UNK N   1      22.448  13.689   9.421  0.00  0.00     0.012 A 
BRANCH  23  26
HETATM   26  O   UNK N   1      22.819  11.284  12.135  0.00  0.00    -0.361 OA
HETATM   27  H   UNK N   1      23.645  11.489  12.529  0.00  0.00     0.217 HD
ENDBRANCH  23  26
ENDBRANCH  19  20
BRANCH  19  28
HETATM   28  N   UNK N   1      20.811  16.171   8.565  0.00  0.00    -0.416 N 
HETATM   29  H   UNK N   1      20.399  16.794   9.260  0.00  0.00     0.151 HD
HETATM   30  H   UNK N   1      21.547  16.534   7.960  0.00  0.00     0.151 HD
ENDBRANCH  19  28
ENDBRANCH   1  19
BRANCH   1  31
HETATM   31  O   UNK N   1      20.398  13.098   6.617  0.00  0.00    -0.348 OA
HETATM   32  H   UNK N   1      20.008  12.255   6.492  0.00  0.00     0.219 HD
ENDBRANCH   1  31
TORSDOF 10
ENDMDL
MODEL 4
REMARK VINA RESULT:      -6.1      3.427      7.802
REMARK  10 active torsions:
REMARK  status: ('A' for Active; 'I' for Inactive)
REMARK    1  A    between atoms: C_10  and  C_7 
REMARK    2  A    between atoms: C_11  and  C_8 
REMARK    3  A    between atoms: O_22  and  C_9 
REMARK    4  A    between atoms: C_14  and  C_10 
REMARK    5  A    between atoms: C_10  and  N_18 
REMARK    6  A    between atoms: C_13  and  C_11 
REMARK    7  A    between atoms: C_11  and  N_17 
REMARK    8  A    between atoms: C_12  and  C_15 
REMARK    9  A    between atoms: C_13  and  O_23 
REMARK   10  A    between atoms: O_25  and  C_15 
ROOT
HETATM    1  C   UNK N   1      32.955  15.904   8.381  0.00  0.00     0.139 C 
HETATM    2  N   UNK N   1      34.119  16.296   8.798  0.00  0.00    -0.359 N 
ATOM      3  HN  UNK N   1      34.530  17.138   8.392  1.00  0.00     0.162 HD
ENDROOT
BRANCH   2   4
HETATM    4  C   UNK N   1      34.862  15.579   9.823  0.00  0.00     0.177 C 
BRANCH   4   5
HETATM    5  C   UNK N   1      35.386  16.535  10.855  0.00  0.00     0.259 C 
HETATM    6  O   UNK N   1      35.856  17.614  10.528  0.00  0.00    -0.305 OA
ENDBRANCH   4   5
BRANCH   4   7
HETATM    7  C   UNK N   1      36.005  14.742   9.200  0.00  0.00     0.170 C 
HETATM    8  N   UNK N   1      37.178  14.828  10.088  0.00  0.00    -0.392 N 
HETATM    9  C   UNK N   1      37.635  13.478  10.439  0.00  0.00     0.194 C 
HETATM   10  H   UNK N   1      37.609  15.695  10.410  0.00  0.00     0.155 HD
HETATM   11  C   UNK N   1      36.409  12.549  10.426  0.00  0.00     0.033 C 
HETATM   12  C   UNK N   1      35.490  12.811  11.609  0.00  0.00     0.029 C 
HETATM   13  C   UNK N   1      36.756  11.069  10.428  0.00  0.00     0.029 C 
HETATM   14  S   UNK N   1      35.529  12.983   8.936  0.00  0.00    -0.130 SA
BRANCH   9  15
HETATM   15  C   UNK N   1      38.743  13.070   9.486  0.00  0.00     0.164 C 
HETATM   16  O   UNK N   1      39.458  12.116   9.750  0.00  0.00    -0.648 OA
BRANCH  15  17
HETATM   17  O   UNK N   1      38.985  13.786   8.370  0.00  0.00    -0.775 OA
HETATM   18  H   UNK N   1      39.086  14.717   8.325  0.00  0.00     0.167 HD
ENDBRANCH  15  17
ENDBRANCH   9  15
ENDBRANCH   4   7
ENDBRANCH   2   4
BRANCH   1  19
HETATM   19  C   UNK N   1      32.295  16.584   7.217  0.00  0.00     0.183 C 
BRANCH  19  20
HETATM   20  C   UNK N   1      30.981  17.173   7.691  0.00  0.00    -0.028 A 
HETATM   21  C   UNK N   1      30.968  18.077   8.766  0.00  0.00     0.012 A 
HETATM   22  C   UNK N   1      29.768  18.666   9.182  0.00  0.00     0.037 A 
HETATM   23  C   UNK N   1      28.573  18.358   8.524  0.00  0.00     0.065 A 
HETATM   24  C   UNK N   1      28.574  17.455   7.459  0.00  0.00     0.037 A 
HETATM   25  C   UNK N   1      29.771  16.866   7.044  0.00  0.00     0.012 A 
BRANCH  23  26
HETATM   26  O   UNK N   1      27.424  18.931   8.917  0.00  0.00    -0.361 OA
HETATM   27  H   UNK N   1      26.710  19.031   8.317  0.00  0.00     0.217 HD
ENDBRANCH  23  26
ENDBRANCH  19  20
BRANCH  19  28
HETATM   28  N   UNK N   1      33.186  17.620   6.714  0.00  0.00    -0.416 N 
HETATM   29  H   UNK N   1      34.153  17.437   6.447  0.00  0.00     0.151 HD
HETATM   30  H   UNK N   1      32.827  18.570   6.625  0.00  0.00     0.151 HD
ENDBRANCH  19  28
ENDBRANCH   1  19
BRANCH   1  31
HETATM   31  O   UNK N   1      32.325  14.861   8.964  0.00  0.00    -0.348 OA
HETATM   32  H   UNK N   1      32.070  14.078   9.412  0.00  0.00     0.219 HD
ENDBRANCH   1  31
TORSDOF 10
ENDMDL
MODEL 5
REMARK VINA RESULT:      -6.1     12.990     16.275
REMARK  10 active torsions:
REMARK  status: ('A' for Active; 'I' for Inactive)
REMARK    1  A    between atoms: C_10  and  C_7 
REMARK    2  A    between atoms: C_11  and  C_8 
REMARK    3  A    between atoms: O_22  and  C_9 
REMARK    4  A    between atoms: C_14  and  C_10 
REMARK    5  A    between atoms: C_10  and  N_18 
REMARK    6  A    between atoms: C_13  and  C_11 
REMARK    7  A    between atoms: C_11  and  N_17 
REMARK    8  A    between atoms: C_12  and  C_15 
REMARK    9  A    between atoms: C_13  and  O_23 
REMARK   10  A    between atoms: O_25  and  C_15 
ROOT
HETATM    1  C   UNK N   1      19.804  16.006   5.034  0.00  0.00     0.139 C 
HETATM    2  N   UNK N   1      20.631  15.895   6.027  0.00  0.00    -0.359 N 
ATOM      3  HN  UNK N   1      21.631  15.986   5.847  1.00  0.00     0.162 HD
ENDROOT
BRANCH   2   4
HETATM    4  C   UNK N   1      20.184  15.646   7.389  0.00  0.00     0.177 C 
BRANCH   4   5
HETATM    5  C   UNK N   1      19.716  16.921   8.029  0.00  0.00     0.259 C 
HETATM    6  O   UNK N   1      20.428  17.522   8.819  0.00  0.00    -0.305 OA
ENDBRANCH   4   5
BRANCH   4   7
HETATM    7  C   UNK N   1      21.297  14.972   8.226  0.00  0.00     0.170 C 
HETATM    8  N   UNK N   1      20.674  13.953   9.089  0.00  0.00    -0.392 N 
HETATM    9  C   UNK N   1      21.332  12.657   8.883  0.00  0.00     0.194 C 
HETATM   10  H   UNK N   1      19.901  14.121   9.734  0.00  0.00     0.155 HD
HETATM   11  C   UNK N   1      21.846  12.617   7.433  0.00  0.00     0.033 C 
HETATM   12  C   UNK N   1      20.707  12.473   6.435  0.00  0.00     0.029 C 
HETATM   13  C   UNK N   1      22.842  11.501   7.162  0.00  0.00     0.029 C 
HETATM   14  S   UNK N   1      22.606  14.211   7.179  0.00  0.00    -0.130 SA
BRANCH   9  15
HETATM   15  C   UNK N   1      22.410  12.479   9.936  0.00  0.00     0.164 C 
HETATM   16  O   UNK N   1      23.262  13.339  10.093  0.00  0.00    -0.648 OA
BRANCH  15  17
HETATM   17  O   UNK N   1      22.473  11.348  10.666  0.00  0.00    -0.775 OA
HETATM   18  H   UNK N   1      21.872  11.093  11.338  0.00  0.00     0.167 HD
ENDBRANCH  15  17
ENDBRANCH   9  15
ENDBRANCH   4   7
ENDBRANCH   2   4
BRANCH   1  19
HETATM   19  C   UNK N   1      20.315  16.110   3.627  0.00  0.00     0.183 C 
BRANCH  19  20
HETATM   20  C   UNK N   1      20.672  17.558   3.353  0.00  0.00    -0.028 A 
HETATM   21  C   UNK N   1      19.700  18.431   2.835  0.00  0.00     0.012 A 
HETATM   22  C   UNK N   1      20.002  19.781   2.624  0.00  0.00     0.037 A 
HETATM   23  C   UNK N   1      21.276  20.269   2.930  0.00  0.00     0.065 A 
HETATM   24  C   UNK N   1      22.251  19.408   3.437  0.00  0.00     0.037 A 
HETATM   25  C   UNK N   1      21.951  18.059   3.648  0.00  0.00     0.012 A 
BRANCH  23  26
HETATM   26  O   UNK N   1      21.562  21.567   2.735  0.00  0.00    -0.361 OA
HETATM   27  H   UNK N   1      22.414  21.830   2.446  0.00  0.00     0.217 HD
ENDBRANCH  23  26
ENDBRANCH  19  20
BRANCH  19  28
HETATM   28  N   UNK N   1      21.478  15.245   3.486  0.00  0.00    -0.416 N 
HETATM   29  H   UNK N   1      22.406  15.508   3.816  0.00  0.00     0.151 HD
HETATM   30  H   UNK N   1      21.358  14.337   3.038  0.00  0.00     0.151 HD
ENDBRANCH  19  28
ENDBRANCH   1  19
BRANCH   1  31
HETATM   31  O   UNK N   1      18.469  16.004   5.239  0.00  0.00    -0.348 OA
HETATM   32  H   UNK N   1      17.558  16.196   5.348  0.00  0.00     0.219 HD
ENDBRANCH   1  31
TORSDOF 10
ENDMDL
MODEL 6
REMARK VINA RESULT:      -6.0      2.781      8.729
REMARK  10 active torsions:
REMARK  status: ('A' for Active; 'I' for Inactive)
REMARK    1  A    between atoms: C_10  and  C_7 
REMARK    2  A    between atoms: C_11  and  C_8 
REMARK    3  A    between atoms: O_22  and  C_9 
REMARK    4  A    between atoms: C_14  and  C_10 
REMARK    5  A    between atoms: C_10  and  N_18 
REMARK    6  A    between atoms: C_13  and  C_11 
REMARK    7  A    between atoms: C_11  and  N_17 
REMARK    8  A    between atoms: C_12  and  C_15 
REMARK    9  A    between atoms: C_13  and  O_23 
REMARK   10  A    between atoms: O_25  and  C_15 
ROOT
HETATM    1  C   UNK N   1      34.283  16.246   7.216  0.00  0.00     0.139 C 
HETATM    2  N   UNK N   1      33.726  15.675   8.239  0.00  0.00    -0.359 N 
ATOM      3  HN  UNK N   1      32.901  16.109   8.656  1.00  0.00     0.162 HD
ENDROOT
BRANCH   2   4
HETATM    4  C   UNK N   1      34.233  14.439   8.814  0.00  0.00     0.177 C 
BRANCH   4   5
HETATM    5  C   UNK N   1      33.140  13.413   8.898  0.00  0.00     0.259 C 
HETATM    6  O   UNK N   1      32.534  13.061   7.896  0.00  0.00    -0.305 OA
ENDBRANCH   4   5
BRANCH   4   7
HETATM    7  C   UNK N   1      34.876  14.691  10.198  0.00  0.00     0.170 C 
HETATM    8  N   UNK N   1      34.290  13.741  11.160  0.00  0.00    -0.392 N 
HETATM    9  C   UNK N   1      35.358  12.994  11.835  0.00  0.00     0.194 C 
HETATM   10  H   UNK N   1      33.292  13.620  11.333  0.00  0.00     0.155 HD
HETATM   11  C   UNK N   1      36.544  12.887  10.860  0.00  0.00     0.033 C 
HETATM   12  C   UNK N   1      36.253  11.920   9.723  0.00  0.00     0.029 C 
HETATM   13  C   UNK N   1      37.845  12.451  11.516  0.00  0.00     0.029 C 
HETATM   14  S   UNK N   1      36.709  14.522  10.167  0.00  0.00    -0.130 SA
BRANCH   9  15
HETATM   15  C   UNK N   1      35.686  13.681  13.148  0.00  0.00     0.164 C 
HETATM   16  O   UNK N   1      34.988  13.490  14.131  0.00  0.00    -0.648 OA
BRANCH  15  17
HETATM   17  O   UNK N   1      36.713  14.551  13.227  0.00  0.00    -0.775 OA
HETATM   18  H   UNK N   1      36.812  15.228  13.867  0.00  0.00     0.167 HD
ENDBRANCH  15  17
ENDBRANCH   9  15
ENDBRANCH   4   7
ENDBRANCH   2   4
BRANCH   1  19
HETATM   19  C   UNK N   1      33.820  17.596   6.752  0.00  0.00     0.183 C 
BRANCH  19  20
HETATM   20  C   UNK N   1      32.779  17.399   5.668  0.00  0.00    -0.028 A 
HETATM   21  C   UNK N   1      33.161  17.443   4.317  0.00  0.00     0.012 A 
HETATM   22  C   UNK N   1      32.220  17.214   3.307  0.00  0.00     0.037 A 
HETATM   23  C   UNK N   1      30.891  16.937   3.640  0.00  0.00     0.065 A 
HETATM   24  C   UNK N   1      30.499  16.899   4.979  0.00  0.00     0.037 A 
HETATM   25  C   UNK N   1      31.438  17.129   5.989  0.00  0.00     0.012 A 
BRANCH  23  26
HETATM   26  O   UNK N   1      29.990  16.708   2.670  0.00  0.00    -0.361 OA
HETATM   27  H   UNK N   1      30.207  16.170   1.934  0.00  0.00     0.217 HD
ENDBRANCH  23  26
ENDBRANCH  19  20
BRANCH  19  28
HETATM   28  N   UNK N   1      33.266  18.317   7.890  0.00  0.00    -0.416 N 
HETATM   29  H   UNK N   1      33.383  19.322   8.019  0.00  0.00     0.151 HD
HETATM   30  H   UNK N   1      32.739  17.794   8.589  0.00  0.00     0.151 HD
ENDBRANCH  19  28
ENDBRANCH   1  19
BRANCH   1  31
HETATM   31  O   UNK N   1      35.307  15.654   6.563  0.00  0.00    -0.348 OA
HETATM   32  H   UNK N   1      35.903  15.082   6.122  0.00  0.00     0.219 HD
ENDBRANCH   1  31
TORSDOF 10
ENDMDL
MODEL 7
REMARK VINA RESULT:      -6.0      2.458      2.861
REMARK  10 active torsions:
REMARK  status: ('A' for Active; 'I' for Inactive)
REMARK    1  A    between atoms: C_10  and  C_7 
REMARK    2  A    between atoms: C_11  and  C_8 
REMARK    3  A    between atoms: O_22  and  C_9 
REMARK    4  A    between atoms: C_14  and  C_10 
REMARK    5  A    between atoms: C_10  and  N_18 
REMARK    6  A    between atoms: C_13  and  C_11 
REMARK    7  A    between atoms: C_11  and  N_17 
REMARK    8  A    between atoms: C_12  and  C_15 
REMARK    9  A    between atoms: C_13  and  O_23 
REMARK   10  A    between atoms: O_25  and  C_15 
ROOT
HETATM    1  C   UNK N   1      35.542  13.555  13.179  0.00  0.00     0.139 C 
HETATM    2  N   UNK N   1      36.299  13.951  12.203  0.00  0.00    -0.359 N 
ATOM      3  HN  UNK N   1      37.206  14.365  12.421  1.00  0.00     0.162 HD
ENDROOT
BRANCH   2   4
HETATM    4  C   UNK N   1      35.903  13.826  10.809  0.00  0.00     0.177 C 
BRANCH   4   5
HETATM    5  C   UNK N   1      37.061  13.364   9.974  0.00  0.00     0.259 C 
HETATM    6  O   UNK N   1      38.135  13.946  10.018  0.00  0.00    -0.305 OA
ENDBRANCH   4   5
BRANCH   4   7
HETATM    7  C   UNK N   1      35.319  15.156  10.275  0.00  0.00     0.170 C 
HETATM    8  N   UNK N   1      35.852  15.384   8.921  0.00  0.00    -0.392 N 
HETATM    9  C   UNK N   1      34.746  15.599   7.980  0.00  0.00     0.194 C 
HETATM   10  H   UNK N   1      36.842  15.393   8.673  0.00  0.00     0.155 HD
HETATM   11  C   UNK N   1      33.530  14.811   8.498  0.00  0.00     0.033 C 
HETATM   12  C   UNK N   1      33.714  13.311   8.321  0.00  0.00     0.029 C 
HETATM   13  C   UNK N   1      32.217  15.197   7.837  0.00  0.00     0.029 C 
HETATM   14  S   UNK N   1      33.478  15.158  10.246  0.00  0.00    -0.130 SA
BRANCH   9  15
HETATM   15  C   UNK N   1      34.509  17.090   7.830  0.00  0.00     0.164 C 
HETATM   16  O   UNK N   1      34.498  17.600   6.721  0.00  0.00    -0.648 OA
BRANCH  15  17
HETATM   17  O   UNK N   1      34.367  17.873   8.918  0.00  0.00    -0.775 OA
HETATM   18  H   UNK N   1      33.670  17.827   9.542  0.00  0.00     0.167 HD
ENDBRANCH  15  17
ENDBRANCH   9  15
ENDBRANCH   4   7
ENDBRANCH   2   4
BRANCH   1  19
HETATM   19  C   UNK N   1      35.922  13.841  14.602  0.00  0.00     0.183 C 
BRANCH  19  20
HETATM   20  C   UNK N   1      36.219  12.524  15.293  0.00  0.00    -0.028 A 
HETATM   21  C   UNK N   1      35.570  12.206  16.497  0.00  0.00     0.012 A 
HETATM   22  C   UNK N   1      35.797  10.973  17.120  0.00  0.00     0.037 A 
HETATM   23  C   UNK N   1      36.673  10.049  16.542  0.00  0.00     0.065 A 
HETATM   24  C   UNK N   1      37.329  10.359  15.349  0.00  0.00     0.037 A 
HETATM   25  C   UNK N   1      37.104  11.590  14.727  0.00  0.00     0.012 A 
BRANCH  23  26
HETATM   26  O   UNK N   1      36.883   8.862  17.135  0.00  0.00    -0.361 OA
HETATM   27  H   UNK N   1      37.672   8.382  16.976  0.00  0.00     0.217 HD
ENDBRANCH  23  26
ENDBRANCH  19  20
BRANCH  19  28
HETATM   28  N   UNK N   1      37.089  14.713  14.608  0.00  0.00    -0.416 N 
HETATM   29  H   UNK N   1      37.805  14.675  15.333  0.00  0.00     0.151 HD
HETATM   30  H   UNK N   1      37.193  15.392  13.855  0.00  0.00     0.151 HD
ENDBRANCH  19  28
ENDBRANCH   1  19
BRANCH   1  31
HETATM   31  O   UNK N   1      34.384  12.901  12.938  0.00  0.00    -0.348 OA
HETATM   32  H   UNK N   1      33.688  12.287  12.812  0.00  0.00     0.219 HD
ENDBRANCH   1  31
TORSDOF 10
ENDMDL
MODEL 8
REMARK VINA RESULT:      -6.0     14.068     17.191
REMARK  10 active torsions:
REMARK  status: ('A' for Active; 'I' for Inactive)
REMARK    1  A    between atoms: C_10  and  C_7 
REMARK    2  A    between atoms: C_11  and  C_8 
REMARK    3  A    between atoms: O_22  and  C_9 
REMARK    4  A    between atoms: C_14  and  C_10 
REMARK    5  A    between atoms: C_10  and  N_18 
REMARK    6  A    between atoms: C_13  and  C_11 
REMARK    7  A    between atoms: C_11  and  N_17 
REMARK    8  A    between atoms: C_12  and  C_15 
REMARK    9  A    between atoms: C_13  and  O_23 
REMARK   10  A    between atoms: O_25  and  C_15 
ROOT
HETATM    1  C   UNK N   1      20.132  17.087   2.833  0.00  0.00     0.139 C 
HETATM    2  N   UNK N   1      21.113  16.919   3.665  0.00  0.00    -0.359 N 
ATOM      3  HN  UNK N   1      22.039  16.700   3.297  1.00  0.00     0.162 HD
ENDROOT
BRANCH   2   4
HETATM    4  C   UNK N   1      20.942  17.033   5.106  0.00  0.00     0.177 C 
BRANCH   4   5
HETATM    5  C   UNK N   1      21.465  18.353   5.593  0.00  0.00     0.259 C 
HETATM    6  O   UNK N   1      21.288  18.708   6.749  0.00  0.00    -0.305 OA
ENDBRANCH   4   5
BRANCH   4   7
HETATM    7  C   UNK N   1      21.619  15.853   5.843  0.00  0.00     0.170 C 
HETATM    8  N   UNK N   1      20.844  15.562   7.061  0.00  0.00    -0.392 N 
HETATM    9  C   UNK N   1      20.467  14.144   7.083  0.00  0.00     0.194 C 
HETATM   10  H   UNK N   1      20.606  16.243   7.783  0.00  0.00     0.155 HD
HETATM   11  C   UNK N   1      20.325  13.673   5.625  0.00  0.00     0.033 C 
HETATM   12  C   UNK N   1      19.080  14.247   4.966  0.00  0.00     0.029 C 
HETATM   13  C   UNK N   1      20.278  12.162   5.466  0.00  0.00     0.029 C 
HETATM   14  S   UNK N   1      21.751  14.347   4.793  0.00  0.00    -0.130 SA
BRANCH   9  15
HETATM   15  C   UNK N   1      21.491  13.374   7.894  0.00  0.00     0.164 C 
HETATM   16  O   UNK N   1      22.684  13.561   7.713  0.00  0.00    -0.648 OA
BRANCH  15  17
HETATM   17  O   UNK N   1      21.099  12.436   8.779  0.00  0.00    -0.775 OA
HETATM   18  H   UNK N   1      20.679  11.624   8.571  0.00  0.00     0.167 HD
ENDBRANCH  15  17
ENDBRANCH   9  15
ENDBRANCH   4   7
ENDBRANCH   2   4
BRANCH   1  19
HETATM   19  C   UNK N   1      20.319  16.810   1.370  0.00  0.00     0.183 C 
BRANCH  19  20
HETATM   20  C   UNK N   1      20.490  15.315   1.184  0.00  0.00    -0.028 A 
HETATM   21  C   UNK N   1      19.363  14.477   1.193  0.00  0.00     0.012 A 
HETATM   22  C   UNK N   1      19.501  13.102   0.973  0.00  0.00     0.037 A 
HETATM   23  C   UNK N   1      20.766  12.555   0.740  0.00  0.00     0.065 A 
HETATM   24  C   UNK N   1      21.894  13.378   0.737  0.00  0.00     0.037 A 
HETATM   25  C   UNK N   1      21.758  14.751   0.957  0.00  0.00     0.012 A 
BRANCH  23  26
HETATM   26  O   UNK N   1      20.897  11.236   0.520  0.00  0.00    -0.361 OA
HETATM   27  H   UNK N   1      20.384  10.809  -0.139  0.00  0.00     0.217 HD
ENDBRANCH  23  26
ENDBRANCH  19  20
BRANCH  19  28
HETATM   28  N   UNK N   1      19.153  17.301   0.649  0.00  0.00    -0.416 N 
HETATM   29  H   UNK N   1      18.197  17.128   0.959  0.00  0.00     0.151 HD
HETATM   30  H   UNK N   1      19.299  17.841  -0.203  0.00  0.00     0.151 HD
ENDBRANCH  19  28
ENDBRANCH   1  19
BRANCH   1  31
HETATM   31  O   UNK N   1      18.916  17.486   3.266  0.00  0.00    -0.348 OA
HETATM   32  H   UNK N   1      18.089  17.609   3.689  0.00  0.00     0.219 HD
ENDBRANCH   1  31
TORSDOF 10
ENDMDL
MODEL 9
REMARK VINA RESULT:      -5.9      4.554      9.327
REMARK  10 active torsions:
REMARK  status: ('A' for Active; 'I' for Inactive)
REMARK    1  A    between atoms: C_10  and  C_7 
REMARK    2  A    between atoms: C_11  and  C_8 
REMARK    3  A    between atoms: O_22  and  C_9 
REMARK    4  A    between atoms: C_14  and  C_10 
REMARK    5  A    between atoms: C_10  and  N_18 
REMARK    6  A    between atoms: C_13  and  C_11 
REMARK    7  A    between atoms: C_11  and  N_17 
REMARK    8  A    between atoms: C_12  and  C_15 
REMARK    9  A    between atoms: C_13  and  O_23 
REMARK   10  A    between atoms: O_25  and  C_15 
ROOT
HETATM    1  C   UNK N   1      29.521  16.991   5.963  0.00  0.00     0.139 C 
HETATM    2  N   UNK N   1      30.381  17.538   6.764  0.00  0.00    -0.359 N 
ATOM      3  HN  UNK N   1      30.997  18.266   6.401  1.00  0.00     0.162 HD
ENDROOT
BRANCH   2   4
HETATM    4  C   UNK N   1      30.502  17.153   8.162  0.00  0.00     0.177 C 
BRANCH   4   5
HETATM    5  C   UNK N   1      29.553  17.950   9.009  0.00  0.00     0.259 C 
HETATM    6  O   UNK N   1      28.425  17.541   9.239  0.00  0.00    -0.305 OA
ENDBRANCH   4   5
BRANCH   4   7
HETATM    7  C   UNK N   1      31.960  17.301   8.658  0.00  0.00     0.170 C 
HETATM    8  N   UNK N   1      32.298  16.115   9.463  0.00  0.00    -0.392 N 
HETATM    9  C   UNK N   1      33.521  15.493   8.942  0.00  0.00     0.194 C 
HETATM   10  H   UNK N   1      31.763  15.775  10.263  0.00  0.00     0.155 HD
HETATM   11  C   UNK N   1      33.585  15.775   7.431  0.00  0.00     0.033 C 
HETATM   12  C   UNK N   1      32.553  14.964   6.662  0.00  0.00     0.029 C 
HETATM   13  C   UNK N   1      34.945  15.503   6.809  0.00  0.00     0.029 C 
HETATM   14  S   UNK N   1      33.159  17.500   7.275  0.00  0.00    -0.130 SA
BRANCH   9  15
HETATM   15  C   UNK N   1      34.711  16.013   9.728  0.00  0.00     0.164 C 
HETATM   16  O   UNK N   1      35.676  15.293   9.927  0.00  0.00    -0.648 OA
BRANCH  15  17
HETATM   17  O   UNK N   1      34.690  17.250  10.262  0.00  0.00    -0.775 OA
HETATM   18  H   UNK N   1      33.925  17.725  10.524  0.00  0.00     0.167 HD
ENDBRANCH  15  17
ENDBRANCH   9  15
ENDBRANCH   4   7
ENDBRANCH   2   4
BRANCH   1  19
HETATM   19  C   UNK N   1      29.535  17.309   4.497  0.00  0.00     0.183 C 
BRANCH  19  20
HETATM   20  C   UNK N   1      30.725  16.612   3.868  0.00  0.00    -0.028 A 
HETATM   21  C   UNK N   1      31.922  17.320   3.666  0.00  0.00     0.012 A 
HETATM   22  C   UNK N   1      33.044  16.677   3.132  0.00  0.00     0.037 A 
HETATM   23  C   UNK N   1      32.979  15.321   2.796  0.00  0.00     0.065 A 
HETATM   24  C   UNK N   1      31.792  14.610   2.985  0.00  0.00     0.037 A 
HETATM   25  C   UNK N   1      30.670  15.252   3.518  0.00  0.00     0.012 A 
BRANCH  23  26
HETATM   26  O   UNK N   1      34.059  14.702   2.292  0.00  0.00    -0.361 OA
HETATM   27  H   UNK N   1      33.990  14.174   1.520  0.00  0.00     0.217 HD
ENDBRANCH  23  26
ENDBRANCH  19  20
BRANCH  19  28
HETATM   28  N   UNK N   1      28.284  16.851   3.907  0.00  0.00    -0.416 N 
HETATM   29  H   UNK N   1      27.945  17.180   3.003  0.00  0.00     0.151 HD
HETATM   30  H   UNK N   1      27.723  16.172   4.421  0.00  0.00     0.151 HD
ENDBRANCH  19  28
ENDBRANCH   1  19
BRANCH   1  31
HETATM   31  O   UNK N   1      28.612  16.103   6.424  0.00  0.00    -0.348 OA
HETATM   32  H   UNK N   1      27.892  15.522   6.571  0.00  0.00     0.219 HD
ENDBRANCH   1  31
TORSDOF 10
ENDMDL
