MODEL 1
REMARK VINA RESULT:      -6.5      0.000      0.000
REMARK  14 active torsions:
REMARK  status: ('A' for Active; 'I' for Inactive)
REMARK    1  A    between atoms: C_8  and  C_5 
REMARK    2  A    between atoms: C_9  and  C_5 
REMARK    3  A    between atoms: C_14  and  C_8 
REMARK    4  A    between atoms: N_22  and  C_9 
REMARK    5  A    between atoms: C_15  and  C_10 
REMARK    6  A    between atoms: C_13  and  C_11 
REMARK    7  A    between atoms: O_30  and  C_11 
REMARK    8  A    between atoms: C_15  and  C_12 
REMARK    9  A    between atoms: N_23  and  C_12 
REMARK   10  A    between atoms: C_16  and  C_14 
REMARK   11  A    between atoms: C_14  and  N_25 
REMARK   12  A    between atoms: C_16  and  O_28 
REMARK       I    between atoms: N_20  and  C_17 
REMARK       I    between atoms: N_21  and  C_17 
REMARK       I    between atoms: N_22  and  C_17 
REMARK   13  A    between atoms: C_18  and  O_29 
REMARK   14  A    between atoms: O_30  and  C_18 
ROOT
HETATM    1  C   UNK N   1      36.560  15.228  10.607  0.00  0.00     0.160 C 
ENDROOT
BRANCH   1   2
HETATM    2  C   UNK N   1      36.957  14.327   9.434  0.00  0.00     0.035 C 
BRANCH   2   3
HETATM    3  C   UNK N   1      36.595  12.861   9.591  0.00  0.00     0.022 C 
BRANCH   3   4
HETATM    4  C   UNK N   1      35.512  12.540   8.572  0.00  0.00     0.117 C 
BRANCH   4   5
HETATM    5  N   UNK N   1      34.197  12.582   9.189  0.00  0.00    -0.387 N 
HETATM    6  C   UNK N   1      33.855  11.221   9.571  0.00  0.00     0.270 C 
HETATM    7  N   UNK N   1      32.645  10.816   8.881  0.00  0.00    -0.396 N 
HETATM    8  N   UNK N   1      33.641  11.153  11.005  0.00  0.00    -0.396 N 
HETATM    9  H   UNK N   1      31.738  10.596   9.293  0.00  0.00     0.153 HD
HETATM   10  H   UNK N   1      32.709  10.741   7.865  0.00  0.00     0.153 HD
HETATM   11  H   UNK N   1      34.156  11.775  11.628  0.00  0.00     0.153 HD
HETATM   12  H   UNK N   1      32.973  10.485  11.390  0.00  0.00     0.153 HD
HETATM   13  H   UNK N   1      33.621  13.412   9.329  0.00  0.00     0.157 HD
ENDBRANCH   4   5
ENDBRANCH   3   4
ENDBRANCH   2   3
ENDBRANCH   1   2
BRANCH   1  14
HETATM   14  C   UNK N   1      35.441  16.180  10.239  0.00  0.00     0.135 C 
HETATM   15  N   UNK N   1      34.807  16.093   9.115  0.00  0.00    -0.362 N 
ATOM     16  HN  UNK N   1      35.070  15.368   8.447  1.00  0.00     0.162 HD
BRANCH  15  17
HETATM   17  C   UNK N   1      33.724  17.011   8.785  0.00  0.00     0.151 C 
HETATM   18  C   UNK N   1      34.010  17.675   7.451  0.00  0.00     0.040 C 
BRANCH  17  19
HETATM   19  C   UNK N   1      32.387  16.304   8.724  0.00  0.00     0.177 C 
HETATM   20  O   UNK N   1      32.293  15.123   9.027  0.00  0.00    -0.293 OA
BRANCH  19  21
HETATM   21  C   UNK N   1      31.161  17.049   8.309  0.00  0.00     0.302 C 
HETATM   22  F   UNK N   1      31.085  18.240   9.012  0.00  0.00    -0.247 F 
ENDBRANCH  19  21
ENDBRANCH  17  19
ENDBRANCH  15  17
BRANCH  14  23
HETATM   23  O   UNK N   1      35.121  17.152  11.123  0.00  0.00    -0.348 OA
HETATM   24  H   UNK N   1      34.511  17.856  11.217  0.00  0.00     0.219 HD
ENDBRANCH  14  23
ENDBRANCH   1  14
BRANCH   1  25
HETATM   25  N   UNK N   1      36.331  14.479  11.838  0.00  0.00    -0.338 N 
HETATM   26  C   UNK N   1      35.154  14.121  12.230  0.00  0.00     0.259 C 
ATOM     27  HN  UNK N   1      37.135  14.226  12.414  1.00  0.00     0.164 HD
BRANCH  26  28
HETATM   28  O   UNK N   1      34.076  14.345  11.438  0.00  0.00    -0.327 OA
HETATM   29  H   UNK N   1      34.063  14.412  10.503  0.00  0.00     0.221 HD
ENDBRANCH  26  28
BRANCH  26  30
HETATM   30  O   UNK N   1      34.973  13.568  13.453  0.00  0.00    -0.312 OA
BRANCH  30  31
HETATM   31  C   UNK N   1      36.067  13.138  14.177  0.00  0.00     0.218 C 
BRANCH  31  32
HETATM   32  C   UNK N   1      36.255  13.843  15.483  0.00  0.00    -0.034 A 
HETATM   33  C   UNK N   1      35.486  13.518  16.609  0.00  0.00     0.009 A 
HETATM   34  C   UNK N   1      35.617  14.264  17.786  0.00  0.00     0.001 A 
HETATM   35  C   UNK N   1      36.505  15.344  17.837  0.00  0.00     0.000 A 
HETATM   36  C   UNK N   1      37.270  15.673  16.715  0.00  0.00     0.001 A 
HETATM   37  C   UNK N   1      37.141  14.926  15.540  0.00  0.00     0.009 A 
ENDBRANCH  31  32
ENDBRANCH  30  31
ENDBRANCH  26  30
ENDBRANCH   1  25
TORSDOF 14
ENDMDL
MODEL 2
REMARK VINA RESULT:      -6.4      2.503      6.950
REMARK  14 active torsions:
REMARK  status: ('A' for Active; 'I' for Inactive)
REMARK    1  A    between atoms: C_8  and  C_5 
REMARK    2  A    between atoms: C_9  and  C_5 
REMARK    3  A    between atoms: C_14  and  C_8 
REMARK    4  A    between atoms: N_22  and  C_9 
REMARK    5  A    between atoms: C_15  and  C_10 
REMARK    6  A    between atoms: C_13  and  C_11 
REMARK    7  A    between atoms: O_30  and  C_11 
REMARK    8  A    between atoms: C_15  and  C_12 
REMARK    9  A    between atoms: N_23  and  C_12 
REMARK   10  A    between atoms: C_16  and  C_14 
REMARK   11  A    between atoms: C_14  and  N_25 
REMARK   12  A    between atoms: C_16  and  O_28 
REMARK       I    between atoms: N_20  and  C_17 
REMARK       I    between atoms: N_21  and  C_17 
REMARK       I    between atoms: N_22  and  C_17 
REMARK   13  A    between atoms: C_18  and  O_29 
REMARK   14  A    between atoms: O_30  and  C_18 
ROOT
HETATM    1  C   UNK N   1      36.011  13.851  10.598  0.00  0.00     0.160 C 
ENDROOT
BRANCH   1   2
HETATM    2  C   UNK N   1      36.865  13.172   9.524  0.00  0.00     0.035 C 
BRANCH   2   3
HETATM    3  C   UNK N   1      36.160  12.091   8.723  0.00  0.00     0.022 C 
BRANCH   3   4
HETATM    4  C   UNK N   1      35.394  12.774   7.600  0.00  0.00     0.117 C 
BRANCH   4   5
HETATM    5  N   UNK N   1      34.005  12.343   7.589  0.00  0.00    -0.387 N 
HETATM    6  C   UNK N   1      33.192  13.499   7.931  0.00  0.00     0.270 C 
HETATM    7  N   UNK N   1      32.442  13.220   9.140  0.00  0.00    -0.396 N 
HETATM    8  N   UNK N   1      32.272  13.789   6.846  0.00  0.00    -0.396 N 
HETATM    9  H   UNK N   1      31.429  13.141   9.240  0.00  0.00     0.153 HD
HETATM   10  H   UNK N   1      32.990  13.088   9.991  0.00  0.00     0.153 HD
HETATM   11  H   UNK N   1      32.537  13.581   5.883  0.00  0.00     0.153 HD
HETATM   12  H   UNK N   1      31.360  14.199   7.047  0.00  0.00     0.153 HD
HETATM   13  H   UNK N   1      33.665  11.405   7.380  0.00  0.00     0.157 HD
ENDBRANCH   4   5
ENDBRANCH   3   4
ENDBRANCH   2   3
ENDBRANCH   1   2
BRANCH   1  14
HETATM   14  C   UNK N   1      36.521  13.568  11.995  0.00  0.00     0.135 C 
HETATM   15  N   UNK N   1      35.804  13.792  13.047  0.00  0.00    -0.362 N 
ATOM     16  HN  UNK N   1      34.866  14.181  12.940  1.00  0.00     0.162 HD
BRANCH  15  17
HETATM   17  C   UNK N   1      36.309  13.501  14.384  0.00  0.00     0.151 C 
HETATM   18  C   UNK N   1      36.869  14.767  15.003  0.00  0.00     0.040 C 
BRANCH  17  19
HETATM   19  C   UNK N   1      35.229  12.932  15.280  0.00  0.00     0.177 C 
HETATM   20  O   UNK N   1      34.159  12.570  14.814  0.00  0.00    -0.293 OA
BRANCH  19  21
HETATM   21  C   UNK N   1      35.469  12.790  16.748  0.00  0.00     0.302 C 
HETATM   22  F   UNK N   1      34.714  13.728  17.431  0.00  0.00    -0.247 F 
ENDBRANCH  19  21
ENDBRANCH  17  19
ENDBRANCH  15  17
BRANCH  14  23
HETATM   23  O   UNK N   1      37.775  13.078  12.123  0.00  0.00    -0.348 OA
HETATM   24  H   UNK N   1      38.265  12.513  12.688  0.00  0.00     0.219 HD
ENDBRANCH  14  23
ENDBRANCH   1  14
BRANCH   1  25
HETATM   25  N   UNK N   1      35.778  15.265  10.320  0.00  0.00    -0.338 N 
HETATM   26  C   UNK N   1      34.640  15.840  10.525  0.00  0.00     0.259 C 
ATOM     27  HN  UNK N   1      36.547  15.824   9.949  1.00  0.00     0.164 HD
BRANCH  26  28
HETATM   28  O   UNK N   1      33.629  15.156  11.117  0.00  0.00    -0.327 OA
HETATM   29  H   UNK N   1      33.181  15.380  11.910  0.00  0.00     0.221 HD
ENDBRANCH  26  28
BRANCH  26  30
HETATM   30  O   UNK N   1      34.424  17.110  10.105  0.00  0.00    -0.312 OA
BRANCH  30  31
HETATM   31  C   UNK N   1      34.720  17.459   8.803  0.00  0.00     0.218 C 
BRANCH  31  32
HETATM   32  C   UNK N   1      33.544  17.438   7.878  0.00  0.00    -0.034 A 
HETATM   33  C   UNK N   1      32.232  17.364   8.364  0.00  0.00     0.009 A 
HETATM   34  C   UNK N   1      31.161  17.245   7.470  0.00  0.00     0.001 A 
HETATM   35  C   UNK N   1      31.398  17.184   6.093  0.00  0.00     0.000 A 
HETATM   36  C   UNK N   1      32.706  17.252   5.606  0.00  0.00     0.001 A 
HETATM   37  C   UNK N   1      33.776  17.375   6.498  0.00  0.00     0.009 A 
ENDBRANCH  31  32
ENDBRANCH  30  31
ENDBRANCH  26  30
ENDBRANCH   1  25
TORSDOF 14
ENDMDL
MODEL 3
REMARK VINA RESULT:      -6.3      1.951      2.778
REMARK  14 active torsions:
REMARK  status: ('A' for Active; 'I' for Inactive)
REMARK    1  A    between atoms: C_8  and  C_5 
REMARK    2  A    between atoms: C_9  and  C_5 
REMARK    3  A    between atoms: C_14  and  C_8 
REMARK    4  A    between atoms: N_22  and  C_9 
REMARK    5  A    between atoms: C_15  and  C_10 
REMARK    6  A    between atoms: C_13  and  C_11 
REMARK    7  A    between atoms: O_30  and  C_11 
REMARK    8  A    between atoms: C_15  and  C_12 
REMARK    9  A    between atoms: N_23  and  C_12 
REMARK   10  A    between atoms: C_16  and  C_14 
REMARK   11  A    between atoms: C_14  and  N_25 
REMARK   12  A    between atoms: C_16  and  O_28 
REMARK       I    between atoms: N_20  and  C_17 
REMARK       I    between atoms: N_21  and  C_17 
REMARK       I    between atoms: N_22  and  C_17 
REMARK   13  A    between atoms: C_18  and  O_29 
REMARK   14  A    between atoms: O_30  and  C_18 
ROOT
HETATM    1  C   UNK N   1      34.953  14.501  10.569  0.00  0.00     0.160 C 
ENDROOT
BRANCH   1   2
HETATM    2  C   UNK N   1      34.512  13.441   9.556  0.00  0.00     0.035 C 
BRANCH   2   3
HETATM    3  C   UNK N   1      35.378  12.195   9.503  0.00  0.00     0.022 C 
BRANCH   3   4
HETATM    4  C   UNK N   1      36.360  12.362   8.352  0.00  0.00     0.117 C 
BRANCH   4   5
HETATM    5  N   UNK N   1      37.726  12.418   8.846  0.00  0.00    -0.387 N 
HETATM    6  C   UNK N   1      38.159  13.805   8.758  0.00  0.00     0.270 C 
HETATM    7  N   UNK N   1      39.312  13.895   7.883  0.00  0.00    -0.396 N 
HETATM    8  N   UNK N   1      38.514  14.291  10.078  0.00  0.00    -0.396 N 
HETATM    9  H   UNK N   1      40.263  14.166   8.133  0.00  0.00     0.153 HD
HETATM   10  H   UNK N   1      39.153  13.661   6.902  0.00  0.00     0.153 HD
HETATM   11  H   UNK N   1      38.036  13.926  10.902  0.00  0.00     0.153 HD
HETATM   12  H   UNK N   1      39.243  14.997  10.183  0.00  0.00     0.153 HD
HETATM   13  H   UNK N   1      38.278  11.633   9.189  0.00  0.00     0.157 HD
ENDBRANCH   4   5
ENDBRANCH   3   4
ENDBRANCH   2   3
ENDBRANCH   1   2
BRANCH   1  14
HETATM   14  C   UNK N   1      34.521  15.893  10.160  0.00  0.00     0.135 C 
HETATM   15  N   UNK N   1      33.806  16.108   9.104  0.00  0.00    -0.362 N 
ATOM     16  HN  UNK N   1      33.528  15.319   8.519  1.00  0.00     0.162 HD
BRANCH  15  17
HETATM   17  C   UNK N   1      33.390  17.455   8.733  0.00  0.00     0.151 C 
HETATM   18  C   UNK N   1      34.458  18.098   7.870  0.00  0.00     0.040 C 
BRANCH  17  19
HETATM   19  C   UNK N   1      32.071  17.450   7.990  0.00  0.00     0.177 C 
HETATM   20  O   UNK N   1      32.033  17.217   6.791  0.00  0.00    -0.293 OA
BRANCH  19  21
HETATM   21  C   UNK N   1      30.795  17.713   8.721  0.00  0.00     0.302 C 
HETATM   22  F   UNK N   1      30.725  19.055   9.057  0.00  0.00    -0.247 F 
ENDBRANCH  19  21
ENDBRANCH  17  19
ENDBRANCH  15  17
BRANCH  14  23
HETATM   23  O   UNK N   1      34.919  16.932  10.930  0.00  0.00    -0.348 OA
HETATM   24  H   UNK N   1      35.454  17.098  11.681  0.00  0.00     0.219 HD
ENDBRANCH  14  23
ENDBRANCH   1  14
BRANCH   1  25
HETATM   25  N   UNK N   1      34.608  14.144  11.942  0.00  0.00    -0.338 N 
HETATM   26  C   UNK N   1      35.498  13.920  12.850  0.00  0.00     0.259 C 
ATOM     27  HN  UNK N   1      33.622  14.071  12.195  1.00  0.00     0.164 HD
BRANCH  26  28
HETATM   28  O   UNK N   1      36.812  14.114  12.579  0.00  0.00    -0.327 OA
HETATM   29  H   UNK N   1      37.434  13.472  12.299  0.00  0.00     0.221 HD
ENDBRANCH  26  28
BRANCH  26  30
HETATM   30  O   UNK N   1      35.136  13.438  14.064  0.00  0.00    -0.312 OA
BRANCH  30  31
HETATM   31  C   UNK N   1      35.934  12.505  14.695  0.00  0.00     0.218 C 
BRANCH  31  32
HETATM   32  C   UNK N   1      35.760  12.450  16.180  0.00  0.00    -0.034 A 
HETATM   33  C   UNK N   1      35.767  11.232  16.873  0.00  0.00     0.009 A 
HETATM   34  C   UNK N   1      35.501  11.208  18.248  0.00  0.00     0.001 A 
HETATM   35  C   UNK N   1      35.213  12.396  18.928  0.00  0.00     0.000 A 
HETATM   36  C   UNK N   1      35.200  13.610  18.238  0.00  0.00     0.001 A 
HETATM   37  C   UNK N   1      35.469  13.636  16.866  0.00  0.00     0.009 A 
ENDBRANCH  31  32
ENDBRANCH  30  31
ENDBRANCH  26  30
ENDBRANCH   1  25
TORSDOF 14
ENDMDL
MODEL 4
REMARK VINA RESULT:      -6.3     10.892     14.955
REMARK  14 active torsions:
REMARK  status: ('A' for Active; 'I' for Inactive)
REMARK    1  A    between atoms: C_8  and  C_5 
REMARK    2  A    between atoms: C_9  and  C_5 
REMARK    3  A    between atoms: C_14  and  C_8 
REMARK    4  A    between atoms: N_22  and  C_9 
REMARK    5  A    between atoms: C_15  and  C_10 
REMARK    6  A    between atoms: C_13  and  C_11 
REMARK    7  A    between atoms: O_30  and  C_11 
REMARK    8  A    between atoms: C_15  and  C_12 
REMARK    9  A    between atoms: N_23  and  C_12 
REMARK   10  A    between atoms: C_16  and  C_14 
REMARK   11  A    between atoms: C_14  and  N_25 
REMARK   12  A    between atoms: C_16  and  O_28 
REMARK       I    between atoms: N_20  and  C_17 
REMARK       I    between atoms: N_21  and  C_17 
REMARK       I    between atoms: N_22  and  C_17 
REMARK   13  A    between atoms: C_18  and  O_29 
REMARK   14  A    between atoms: O_30  and  C_18 
ROOT
HETATM    1  C   UNK N   1      21.656  17.730   5.185  0.00  0.00     0.160 C 
ENDROOT
BRANCH   1   2
HETATM    2  C   UNK N   1      20.867  16.867   4.195  0.00  0.00     0.035 C 
BRANCH   2   3
HETATM    3  C   UNK N   1      19.631  17.524   3.606  0.00  0.00     0.022 C 
BRANCH   3   4
HETATM    4  C   UNK N   1      19.997  18.044   2.224  0.00  0.00     0.117 C 
BRANCH   4   5
HETATM    5  N   UNK N   1      19.579  19.427   2.067  0.00  0.00    -0.387 N 
HETATM    6  C   UNK N   1      20.746  20.184   1.641  0.00  0.00     0.270 C 
HETATM    7  N   UNK N   1      21.038  21.213   2.620  0.00  0.00    -0.396 N 
HETATM    8  N   UNK N   1      20.485  20.801   0.353  0.00  0.00    -0.396 N 
HETATM    9  H   UNK N   1      20.991  22.224   2.493  0.00  0.00     0.153 HD
HETATM   10  H   UNK N   1      21.324  20.888   3.544  0.00  0.00     0.153 HD
HETATM   11  H   UNK N   1      19.864  20.345  -0.315  0.00  0.00     0.153 HD
HETATM   12  H   UNK N   1      20.922  21.692   0.116  0.00  0.00     0.153 HD
HETATM   13  H   UNK N   1      18.643  19.798   2.227  0.00  0.00     0.157 HD
ENDBRANCH   4   5
ENDBRANCH   3   4
ENDBRANCH   2   3
ENDBRANCH   1   2
BRANCH   1  14
HETATM   14  C   UNK N   1      21.110  17.624   6.593  0.00  0.00     0.135 C 
HETATM   15  N   UNK N   1      20.761  16.491   7.110  0.00  0.00    -0.362 N 
ATOM     16  HN  UNK N   1      20.845  15.639   6.554  1.00  0.00     0.162 HD
BRANCH  15  17
HETATM   17  C   UNK N   1      20.249  16.407   8.473  0.00  0.00     0.151 C 
HETATM   18  C   UNK N   1      18.804  16.866   8.502  0.00  0.00     0.040 C 
BRANCH  17  19
HETATM   19  C   UNK N   1      20.346  15.000   9.024  0.00  0.00     0.177 C 
HETATM   20  O   UNK N   1      19.386  14.478   9.571  0.00  0.00    -0.293 OA
BRANCH  19  21
HETATM   21  C   UNK N   1      21.616  14.225   8.887  0.00  0.00     0.302 C 
HETATM   22  F   UNK N   1      22.093  13.897  10.144  0.00  0.00    -0.247 F 
ENDBRANCH  19  21
ENDBRANCH  17  19
ENDBRANCH  15  17
BRANCH  14  23
HETATM   23  O   UNK N   1      20.979  18.763   7.309  0.00  0.00    -0.348 OA
HETATM   24  H   UNK N   1      20.598  19.060   8.112  0.00  0.00     0.219 HD
ENDBRANCH  14  23
ENDBRANCH   1  14
BRANCH   1  25
HETATM   25  N   UNK N   1      23.098  17.526   5.083  0.00  0.00    -0.338 N 
HETATM   26  C   UNK N   1      23.859  18.272   4.355  0.00  0.00     0.259 C 
ATOM     27  HN  UNK N   1      23.522  16.762   5.610  1.00  0.00     0.164 HD
BRANCH  26  28
HETATM   28  O   UNK N   1      23.347  19.360   3.728  0.00  0.00    -0.327 OA
HETATM   29  H   UNK N   1      23.513  20.261   3.928  0.00  0.00     0.221 HD
ENDBRANCH  26  28
BRANCH  26  30
HETATM   30  O   UNK N   1      25.162  17.950   4.165  0.00  0.00    -0.312 OA
BRANCH  30  31
HETATM   31  C   UNK N   1      26.144  18.871   4.468  0.00  0.00     0.218 C 
BRANCH  31  32
HETATM   32  C   UNK N   1      26.916  18.561   5.712  0.00  0.00    -0.034 A 
HETATM   33  C   UNK N   1      27.479  19.576   6.496  0.00  0.00     0.009 A 
HETATM   34  C   UNK N   1      28.279  19.247   7.598  0.00  0.00     0.001 A 
HETATM   35  C   UNK N   1      28.529  17.906   7.908  0.00  0.00     0.000 A 
HETATM   36  C   UNK N   1      27.973  16.892   7.124  0.00  0.00     0.001 A 
HETATM   37  C   UNK N   1      27.171  17.220   6.026  0.00  0.00     0.009 A 
ENDBRANCH  31  32
ENDBRANCH  30  31
ENDBRANCH  26  30
ENDBRANCH   1  25
TORSDOF 14
ENDMDL
MODEL 5
REMARK VINA RESULT:      -6.2      2.523      3.447
REMARK  14 active torsions:
REMARK  status: ('A' for Active; 'I' for Inactive)
REMARK    1  A    between atoms: C_8  and  C_5 
REMARK    2  A    between atoms: C_9  and  C_5 
REMARK    3  A    between atoms: C_14  and  C_8 
REMARK    4  A    between atoms: N_22  and  C_9 
REMARK    5  A    between atoms: C_15  and  C_10 
REMARK    6  A    between atoms: C_13  and  C_11 
REMARK    7  A    between atoms: O_30  and  C_11 
REMARK    8  A    between atoms: C_15  and  C_12 
REMARK    9  A    between atoms: N_23  and  C_12 
REMARK   10  A    between atoms: C_16  and  C_14 
REMARK   11  A    between atoms: C_14  and  N_25 
REMARK   12  A    between atoms: C_16  and  O_28 
REMARK       I    between atoms: N_20  and  C_17 
REMARK       I    between atoms: N_21  and  C_17 
REMARK       I    between atoms: N_22  and  C_17 
REMARK   13  A    between atoms: C_18  and  O_29 
REMARK   14  A    between atoms: O_30  and  C_18 
ROOT
HETATM    1  C   UNK N   1      36.648  13.585  11.512  0.00  0.00     0.160 C 
ENDROOT
BRANCH   1   2
HETATM    2  C   UNK N   1      37.003  12.272  10.807  0.00  0.00     0.035 C 
BRANCH   2   3
HETATM    3  C   UNK N   1      36.079  11.105  11.105  0.00  0.00     0.022 C 
BRANCH   3   4
HETATM    4  C   UNK N   1      36.892  10.044  11.832  0.00  0.00     0.117 C 
BRANCH   4   5
HETATM    5  N   UNK N   1      36.821  10.238  13.271  0.00  0.00    -0.387 N 
HETATM    6  C   UNK N   1      38.181  10.435  13.747  0.00  0.00     0.270 C 
HETATM    7  N   UNK N   1      38.513   9.395  14.701  0.00  0.00    -0.396 N 
HETATM    8  N   UNK N   1      38.293  11.733  14.387  0.00  0.00    -0.396 N 
HETATM    9  H   UNK N   1      38.712   9.504  15.696  0.00  0.00     0.153 HD
HETATM   10  H   UNK N   1      38.554   8.443  14.335  0.00  0.00     0.153 HD
HETATM   11  H   UNK N   1      37.715  12.511  14.068  0.00  0.00     0.153 HD
HETATM   12  H   UNK N   1      38.949  11.868  15.157  0.00  0.00     0.153 HD
HETATM   13  H   UNK N   1      35.975  10.236  13.840  0.00  0.00     0.157 HD
ENDBRANCH   4   5
ENDBRANCH   3   4
ENDBRANCH   2   3
ENDBRANCH   1   2
BRANCH   1  14
HETATM   14  C   UNK N   1      36.381  14.704  10.529  0.00  0.00     0.135 C 
HETATM   15  N   UNK N   1      35.573  14.562   9.528  0.00  0.00    -0.362 N 
ATOM     16  HN  UNK N   1      35.105  13.667   9.387  1.00  0.00     0.162 HD
BRANCH  15  17
HETATM   17  C   UNK N   1      35.320  15.656   8.599  0.00  0.00     0.151 C 
HETATM   18  C   UNK N   1      35.178  15.106   7.192  0.00  0.00     0.040 C 
BRANCH  17  19
HETATM   19  C   UNK N   1      34.073  16.431   8.970  0.00  0.00     0.177 C 
HETATM   20  O   UNK N   1      34.148  17.599   9.322  0.00  0.00    -0.293 OA
BRANCH  19  21
HETATM   21  C   UNK N   1      32.731  15.779   8.890  0.00  0.00     0.302 C 
HETATM   22  F   UNK N   1      31.745  16.750   8.916  0.00  0.00    -0.247 F 
ENDBRANCH  19  21
ENDBRANCH  17  19
ENDBRANCH  15  17
BRANCH  14  23
HETATM   23  O   UNK N   1      37.029  15.877  10.713  0.00  0.00    -0.348 OA
HETATM   24  H   UNK N   1      37.012  16.758  10.395  0.00  0.00     0.219 HD
ENDBRANCH  14  23
ENDBRANCH   1  14
BRANCH   1  25
HETATM   25  N   UNK N   1      35.610  13.415  12.525  0.00  0.00    -0.338 N 
HETATM   26  C   UNK N   1      35.745  13.832  13.739  0.00  0.00     0.259 C 
ATOM     27  HN  UNK N   1      34.741  12.949  12.262  1.00  0.00     0.164 HD
BRANCH  26  28
HETATM   28  O   UNK N   1      36.839  14.551  14.095  0.00  0.00    -0.327 OA
HETATM   29  H   UNK N   1      37.416  14.386  14.815  0.00  0.00     0.221 HD
ENDBRANCH  26  28
BRANCH  26  30
HETATM   30  O   UNK N   1      34.826  13.514  14.683  0.00  0.00    -0.312 OA
BRANCH  30  31
HETATM   31  C   UNK N   1      34.835  12.255  15.249  0.00  0.00     0.218 C 
BRANCH  31  32
HETATM   32  C   UNK N   1      35.095  12.246  16.722  0.00  0.00    -0.034 A 
HETATM   33  C   UNK N   1      35.284  11.048  17.425  0.00  0.00     0.009 A 
HETATM   34  C   UNK N   1      35.426  11.069  18.818  0.00  0.00     0.001 A 
HETATM   35  C   UNK N   1      35.364  12.282  19.512  0.00  0.00     0.000 A 
HETATM   36  C   UNK N   1      35.170  13.477  18.814  0.00  0.00     0.001 A 
HETATM   37  C   UNK N   1      35.032  13.457  17.423  0.00  0.00     0.009 A 
ENDBRANCH  31  32
ENDBRANCH  30  31
ENDBRANCH  26  30
ENDBRANCH   1  25
TORSDOF 14
ENDMDL
MODEL 6
REMARK VINA RESULT:      -6.2      1.873      2.452
REMARK  14 active torsions:
REMARK  status: ('A' for Active; 'I' for Inactive)
REMARK    1  A    between atoms: C_8  and  C_5 
REMARK    2  A    between atoms: C_9  and  C_5 
REMARK    3  A    between atoms: C_14  and  C_8 
REMARK    4  A    between atoms: N_22  and  C_9 
REMARK    5  A    between atoms: C_15  and  C_10 
REMARK    6  A    between atoms: C_13  and  C_11 
REMARK    7  A    between atoms: O_30  and  C_11 
REMARK    8  A    between atoms: C_15  and  C_12 
REMARK    9  A    between atoms: N_23  and  C_12 
REMARK   10  A    between atoms: C_16  and  C_14 
REMARK   11  A    between atoms: C_14  and  N_25 
REMARK   12  A    between atoms: C_16  and  O_28 
REMARK       I    between atoms: N_20  and  C_17 
REMARK       I    between atoms: N_21  and  C_17 
REMARK       I    between atoms: N_22  and  C_17 
REMARK   13  A    between atoms: C_18  and  O_29 
REMARK   14  A    between atoms: O_30  and  C_18 
ROOT
HETATM    1  C   UNK N   1      35.871  14.235  11.239  0.00  0.00     0.160 C 
ENDROOT
BRANCH   1   2
HETATM    2  C   UNK N   1      36.582  13.383  10.184  0.00  0.00     0.035 C 
BRANCH   2   3
HETATM    3  C   UNK N   1      36.237  11.904  10.204  0.00  0.00     0.022 C 
BRANCH   3   4
HETATM    4  C   UNK N   1      35.845  11.502   8.790  0.00  0.00     0.117 C 
BRANCH   4   5
HETATM    5  N   UNK N   1      34.768  12.344   8.296  0.00  0.00    -0.387 N 
HETATM    6  C   UNK N   1      33.521  11.637   8.541  0.00  0.00     0.270 C 
HETATM    7  N   UNK N   1      32.846  11.398   7.279  0.00  0.00    -0.396 N 
HETATM    8  N   UNK N   1      32.667  12.434   9.403  0.00  0.00    -0.396 N 
HETATM    9  H   UNK N   1      31.954  11.782   6.968  0.00  0.00     0.153 HD
HETATM   10  H   UNK N   1      33.319  10.772   6.626  0.00  0.00     0.153 HD
HETATM   11  H   UNK N   1      33.081  13.055  10.098  0.00  0.00     0.153 HD
HETATM   12  H   UNK N   1      31.653  12.375   9.312  0.00  0.00     0.153 HD
HETATM   13  H   UNK N   1      34.868  13.260   7.859  0.00  0.00     0.157 HD
ENDBRANCH   4   5
ENDBRANCH   3   4
ENDBRANCH   2   3
ENDBRANCH   1   2
BRANCH   1  14
HETATM   14  C   UNK N   1      34.741  15.049  10.646  0.00  0.00     0.135 C 
HETATM   15  N   UNK N   1      34.921  15.842   9.641  0.00  0.00    -0.362 N 
ATOM     16  HN  UNK N   1      35.853  15.934   9.236  1.00  0.00     0.162 HD
BRANCH  15  17
HETATM   17  C   UNK N   1      33.817  16.610   9.076  0.00  0.00     0.151 C 
HETATM   18  C   UNK N   1      34.342  17.918   8.516  0.00  0.00     0.040 C 
BRANCH  17  19
HETATM   19  C   UNK N   1      33.100  15.842   7.986  0.00  0.00     0.177 C 
HETATM   20  O   UNK N   1      32.289  14.972   8.268  0.00  0.00    -0.293 OA
BRANCH  19  21
HETATM   21  C   UNK N   1      33.363  16.153   6.548  0.00  0.00     0.302 C 
HETATM   22  F   UNK N   1      34.534  15.531   6.149  0.00  0.00    -0.247 F 
ENDBRANCH  19  21
ENDBRANCH  17  19
ENDBRANCH  15  17
BRANCH  14  23
HETATM   23  O   UNK N   1      33.517  14.938  11.210  0.00  0.00    -0.348 OA
HETATM   24  H   UNK N   1      32.753  14.398  11.154  0.00  0.00     0.219 HD
ENDBRANCH  14  23
ENDBRANCH   1  14
BRANCH   1  25
HETATM   25  N   UNK N   1      35.500  13.467  12.424  0.00  0.00    -0.338 N 
HETATM   26  C   UNK N   1      35.993  13.705  13.594  0.00  0.00     0.259 C 
ATOM     27  HN  UNK N   1      34.822  12.711  12.324  1.00  0.00     0.164 HD
BRANCH  26  28
HETATM   28  O   UNK N   1      36.812  14.768  13.783  0.00  0.00    -0.327 OA
HETATM   29  H   UNK N   1      37.420  15.133  13.170  0.00  0.00     0.221 HD
ENDBRANCH  26  28
BRANCH  26  30
HETATM   30  O   UNK N   1      35.742  12.869  14.630  0.00  0.00    -0.312 OA
BRANCH  30  31
HETATM   31  C   UNK N   1      34.955  13.299  15.680  0.00  0.00     0.218 C 
BRANCH  31  32
HETATM   32  C   UNK N   1      35.205  12.582  16.969  0.00  0.00    -0.034 A 
HETATM   33  C   UNK N   1      35.355  11.189  17.015  0.00  0.00     0.009 A 
HETATM   34  C   UNK N   1      35.488  10.540  18.248  0.00  0.00     0.001 A 
HETATM   35  C   UNK N   1      35.455  11.277  19.437  0.00  0.00     0.000 A 
HETATM   36  C   UNK N   1      35.299  12.665  19.394  0.00  0.00     0.001 A 
HETATM   37  C   UNK N   1      35.171  13.314  18.162  0.00  0.00     0.009 A 
ENDBRANCH  31  32
ENDBRANCH  30  31
ENDBRANCH  26  30
ENDBRANCH   1  25
TORSDOF 14
ENDMDL
MODEL 7
REMARK VINA RESULT:      -6.2      1.938      2.693
REMARK  14 active torsions:
REMARK  status: ('A' for Active; 'I' for Inactive)
REMARK    1  A    between atoms: C_8  and  C_5 
REMARK    2  A    between atoms: C_9  and  C_5 
REMARK    3  A    between atoms: C_14  and  C_8 
REMARK    4  A    between atoms: N_22  and  C_9 
REMARK    5  A    between atoms: C_15  and  C_10 
REMARK    6  A    between atoms: C_13  and  C_11 
REMARK    7  A    between atoms: O_30  and  C_11 
REMARK    8  A    between atoms: C_15  and  C_12 
REMARK    9  A    between atoms: N_23  and  C_12 
REMARK   10  A    between atoms: C_16  and  C_14 
REMARK   11  A    between atoms: C_14  and  N_25 
REMARK   12  A    between atoms: C_16  and  O_28 
REMARK       I    between atoms: N_20  and  C_17 
REMARK       I    between atoms: N_21  and  C_17 
REMARK       I    between atoms: N_22  and  C_17 
REMARK   13  A    between atoms: C_18  and  O_29 
REMARK   14  A    between atoms: O_30  and  C_18 
ROOT
HETATM    1  C   UNK N   1      36.573  13.887  11.316  0.00  0.00     0.160 C 
ENDROOT
BRANCH   1   2
HETATM    2  C   UNK N   1      37.583  12.799  10.939  0.00  0.00     0.035 C 
BRANCH   2   3
HETATM    3  C   UNK N   1      37.265  11.410  11.464  0.00  0.00     0.022 C 
BRANCH   3   4
HETATM    4  C   UNK N   1      36.570  10.642  10.350  0.00  0.00     0.117 C 
BRANCH   4   5
HETATM    5  N   UNK N   1      35.155  10.482  10.641  0.00  0.00    -0.387 N 
HETATM    6  C   UNK N   1      34.424  10.816   9.428  0.00  0.00     0.270 C 
HETATM    7  N   UNK N   1      33.540  11.936   9.690  0.00  0.00    -0.396 N 
HETATM    8  N   UNK N   1      33.642   9.672   8.997  0.00  0.00    -0.396 N 
HETATM    9  H   UNK N   1      32.520  11.939   9.674  0.00  0.00     0.153 HD
HETATM   10  H   UNK N   1      33.991  12.823   9.916  0.00  0.00     0.153 HD
HETATM   11  H   UNK N   1      33.976   8.726   9.183  0.00  0.00     0.153 HD
HETATM   12  H   UNK N   1      32.757   9.813   8.509  0.00  0.00     0.153 HD
HETATM   13  H   UNK N   1      34.749  10.190  11.530  0.00  0.00     0.157 HD
ENDBRANCH   4   5
ENDBRANCH   3   4
ENDBRANCH   2   3
ENDBRANCH   1   2
BRANCH   1  14
HETATM   14  C   UNK N   1      35.846  14.431  10.105  0.00  0.00     0.135 C 
HETATM   15  N   UNK N   1      34.981  15.389  10.196  0.00  0.00    -0.362 N 
ATOM     16  HN  UNK N   1      34.772  15.789  11.111  1.00  0.00     0.162 HD
BRANCH  15  17
HETATM   17  C   UNK N   1      34.300  15.909   9.017  0.00  0.00     0.151 C 
HETATM   18  C   UNK N   1      32.834  15.523   9.065  0.00  0.00     0.040 C 
BRANCH  17  19
HETATM   19  C   UNK N   1      34.425  17.414   8.912  0.00  0.00     0.177 C 
HETATM   20  O   UNK N   1      35.323  18.005   9.494  0.00  0.00    -0.293 OA
BRANCH  19  21
HETATM   21  C   UNK N   1      33.461  18.193   8.079  0.00  0.00     0.302 C 
HETATM   22  F   UNK N   1      33.805  18.072   6.743  0.00  0.00    -0.247 F 
ENDBRANCH  19  21
ENDBRANCH  17  19
ENDBRANCH  15  17
BRANCH  14  23
HETATM   23  O   UNK N   1      36.113  13.874   8.902  0.00  0.00    -0.348 OA
HETATM   24  H   UNK N   1      35.659  13.578   8.137  0.00  0.00     0.219 HD
ENDBRANCH  14  23
ENDBRANCH   1  14
BRANCH   1  25
HETATM   25  N   UNK N   1      35.697  13.485  12.412  0.00  0.00    -0.338 N 
HETATM   26  C   UNK N   1      35.826  13.941  13.613  0.00  0.00     0.259 C 
ATOM     27  HN  UNK N   1      34.950  12.817  12.221  1.00  0.00     0.164 HD
BRANCH  26  28
HETATM   28  O   UNK N   1      36.737  14.910  13.878  0.00  0.00    -0.327 OA
HETATM   29  H   UNK N   1      37.591  14.800  14.248  0.00  0.00     0.221 HD
ENDBRANCH  26  28
BRANCH  26  30
HETATM   30  O   UNK N   1      35.095  13.423  14.629  0.00  0.00    -0.312 OA
BRANCH  30  31
HETATM   31  C   UNK N   1      35.534  12.285  15.276  0.00  0.00     0.218 C 
BRANCH  31  32
HETATM   32  C   UNK N   1      35.376  12.324  16.763  0.00  0.00    -0.034 A 
HETATM   33  C   UNK N   1      35.178  13.531  17.447  0.00  0.00     0.009 A 
HETATM   34  C   UNK N   1      35.135  13.543  18.847  0.00  0.00     0.001 A 
HETATM   35  C   UNK N   1      35.303  12.354  19.565  0.00  0.00     0.000 A 
HETATM   36  C   UNK N   1      35.505  11.150  18.885  0.00  0.00     0.001 A 
HETATM   37  C   UNK N   1      35.545  11.137  17.487  0.00  0.00     0.009 A 
ENDBRANCH  31  32
ENDBRANCH  30  31
ENDBRANCH  26  30
ENDBRANCH   1  25
TORSDOF 14
ENDMDL
MODEL 8
REMARK VINA RESULT:      -6.1      4.037      9.020
REMARK  14 active torsions:
REMARK  status: ('A' for Active; 'I' for Inactive)
REMARK    1  A    between atoms: C_8  and  C_5 
REMARK    2  A    between atoms: C_9  and  C_5 
REMARK    3  A    between atoms: C_14  and  C_8 
REMARK    4  A    between atoms: N_22  and  C_9 
REMARK    5  A    between atoms: C_15  and  C_10 
REMARK    6  A    between atoms: C_13  and  C_11 
REMARK    7  A    between atoms: O_30  and  C_11 
REMARK    8  A    between atoms: C_15  and  C_12 
REMARK    9  A    between atoms: N_23  and  C_12 
REMARK   10  A    between atoms: C_16  and  C_14 
REMARK   11  A    between atoms: C_14  and  N_25 
REMARK   12  A    between atoms: C_16  and  O_28 
REMARK       I    between atoms: N_20  and  C_17 
REMARK       I    between atoms: N_21  and  C_17 
REMARK       I    between atoms: N_22  and  C_17 
REMARK   13  A    between atoms: C_18  and  O_29 
REMARK   14  A    between atoms: O_30  and  C_18 
ROOT
HETATM    1  C   UNK N   1      33.129  16.913   8.146  0.00  0.00     0.160 C 
ENDROOT
BRANCH   1   2
HETATM    2  C   UNK N   1      33.984  17.652   7.113  0.00  0.00     0.035 C 
BRANCH   2   3
HETATM    3  C   UNK N   1      33.523  17.514   5.672  0.00  0.00     0.022 C 
BRANCH   3   4
HETATM    4  C   UNK N   1      33.871  16.107   5.208  0.00  0.00     0.117 C 
BRANCH   4   5
HETATM    5  N   UNK N   1      32.969  15.677   4.152  0.00  0.00    -0.387 N 
HETATM    6  C   UNK N   1      31.901  16.661   4.070  0.00  0.00     0.270 C 
HETATM    7  N   UNK N   1      30.629  16.015   4.332  0.00  0.00    -0.396 N 
HETATM    8  N   UNK N   1      31.881  17.251   2.744  0.00  0.00    -0.396 N 
HETATM    9  H   UNK N   1      29.849  15.892   3.686  0.00  0.00     0.153 HD
HETATM   10  H   UNK N   1      30.499  15.641   5.273  0.00  0.00     0.153 HD
HETATM   11  H   UNK N   1      32.747  17.350   2.216  0.00  0.00     0.153 HD
HETATM   12  H   UNK N   1      30.998  17.565   2.339  0.00  0.00     0.153 HD
HETATM   13  H   UNK N   1      33.067  14.841   3.577  0.00  0.00     0.157 HD
ENDBRANCH   4   5
ENDBRANCH   3   4
ENDBRANCH   2   3
ENDBRANCH   1   2
BRANCH   1  14
HETATM   14  C   UNK N   1      33.963  16.350   9.277  0.00  0.00     0.135 C 
HETATM   15  N   UNK N   1      34.289  15.100   9.335  0.00  0.00    -0.362 N 
ATOM     16  HN  UNK N   1      33.969  14.466   8.602  1.00  0.00     0.162 HD
BRANCH  15  17
HETATM   17  C   UNK N   1      35.103  14.579  10.426  0.00  0.00     0.151 C 
HETATM   18  C   UNK N   1      34.995  13.067  10.465  0.00  0.00     0.040 C 
BRANCH  17  19
HETATM   19  C   UNK N   1      36.556  14.981  10.284  0.00  0.00     0.177 C 
HETATM   20  O   UNK N   1      36.952  16.051  10.724  0.00  0.00    -0.293 OA
BRANCH  19  21
HETATM   21  C   UNK N   1      37.528  14.063   9.618  0.00  0.00     0.302 C 
HETATM   22  F   UNK N   1      38.401  13.551  10.564  0.00  0.00    -0.247 F 
ENDBRANCH  19  21
ENDBRANCH  17  19
ENDBRANCH  15  17
BRANCH  14  23
HETATM   23  O   UNK N   1      34.357  17.197  10.255  0.00  0.00    -0.348 OA
HETATM   24  H   UNK N   1      34.912  17.943  10.371  0.00  0.00     0.219 HD
ENDBRANCH  14  23
ENDBRANCH   1  14
BRANCH   1  25
HETATM   25  N   UNK N   1      31.975  17.693   8.582  0.00  0.00    -0.338 N 
HETATM   26  C   UNK N   1      30.779  17.475   8.146  0.00  0.00     0.259 C 
ATOM     27  HN  UNK N   1      32.118  18.442   9.260  1.00  0.00     0.164 HD
BRANCH  26  28
HETATM   28  O   UNK N   1      30.534  16.421   7.329  0.00  0.00    -0.327 OA
HETATM   29  H   UNK N   1      29.910  16.377   6.631  0.00  0.00     0.221 HD
ENDBRANCH  26  28
BRANCH  26  30
HETATM   30  O   UNK N   1      29.768  18.322   8.455  0.00  0.00    -0.312 OA
BRANCH  30  31
HETATM   31  C   UNK N   1      28.500  18.080   7.966  0.00  0.00     0.218 C 
BRANCH  31  32
HETATM   32  C   UNK N   1      28.108  18.956   6.817  0.00  0.00    -0.034 A 
HETATM   33  C   UNK N   1      27.518  20.211   7.021  0.00  0.00     0.009 A 
HETATM   34  C   UNK N   1      27.072  20.961   5.926  0.00  0.00     0.001 A 
HETATM   35  C   UNK N   1      27.199  20.453   4.629  0.00  0.00     0.000 A 
HETATM   36  C   UNK N   1      27.782  19.200   4.423  0.00  0.00     0.001 A 
HETATM   37  C   UNK N   1      28.231  18.452   5.516  0.00  0.00     0.009 A 
ENDBRANCH  31  32
ENDBRANCH  30  31
ENDBRANCH  26  30
ENDBRANCH   1  25
TORSDOF 14
ENDMDL
MODEL 9
REMARK VINA RESULT:      -6.0      1.512      2.092
REMARK  14 active torsions:
REMARK  status: ('A' for Active; 'I' for Inactive)
REMARK    1  A    between atoms: C_8  and  C_5 
REMARK    2  A    between atoms: C_9  and  C_5 
REMARK    3  A    between atoms: C_14  and  C_8 
REMARK    4  A    between atoms: N_22  and  C_9 
REMARK    5  A    between atoms: C_15  and  C_10 
REMARK    6  A    between atoms: C_13  and  C_11 
REMARK    7  A    between atoms: O_30  and  C_11 
REMARK    8  A    between atoms: C_15  and  C_12 
REMARK    9  A    between atoms: N_23  and  C_12 
REMARK   10  A    between atoms: C_16  and  C_14 
REMARK   11  A    between atoms: C_14  and  N_25 
REMARK   12  A    between atoms: C_16  and  O_28 
REMARK       I    between atoms: N_20  and  C_17 
REMARK       I    between atoms: N_21  and  C_17 
REMARK       I    between atoms: N_22  and  C_17 
REMARK   13  A    between atoms: C_18  and  O_29 
REMARK   14  A    between atoms: O_30  and  C_18 
ROOT
HETATM    1  C   UNK N   1      35.803  14.798  10.613  0.00  0.00     0.160 C 
ENDROOT
BRANCH   1   2
HETATM    2  C   UNK N   1      36.129  13.890   9.423  0.00  0.00     0.035 C 
BRANCH   2   3
HETATM    3  C   UNK N   1      35.308  12.616   9.335  0.00  0.00     0.022 C 
BRANCH   3   4
HETATM    4  C   UNK N   1      36.193  11.463   9.784  0.00  0.00     0.117 C 
BRANCH   4   5
HETATM    5  N   UNK N   1      35.387  10.356  10.272  0.00  0.00    -0.387 N 
HETATM    6  C   UNK N   1      35.252  10.522  11.711  0.00  0.00     0.270 C 
HETATM    7  N   UNK N   1      35.818   9.370  12.385  0.00  0.00    -0.396 N 
HETATM    8  N   UNK N   1      33.848  10.646  12.059  0.00  0.00    -0.396 N 
HETATM    9  H   UNK N   1      35.327   8.677  12.951  0.00  0.00     0.153 HD
HETATM   10  H   UNK N   1      36.824   9.237  12.282  0.00  0.00     0.153 HD
HETATM   11  H   UNK N   1      33.195  11.073  11.402  0.00  0.00     0.153 HD
HETATM   12  H   UNK N   1      33.514  10.304  12.960  0.00  0.00     0.153 HD
HETATM   13  H   UNK N   1      34.991   9.603   9.710  0.00  0.00     0.157 HD
ENDBRANCH   4   5
ENDBRANCH   3   4
ENDBRANCH   2   3
ENDBRANCH   1   2
BRANCH   1  14
HETATM   14  C   UNK N   1      34.995  16.009  10.199  0.00  0.00     0.135 C 
HETATM   15  N   UNK N   1      34.297  16.030   9.110  0.00  0.00    -0.362 N 
ATOM     16  HN  UNK N   1      34.295  15.211   8.502  1.00  0.00     0.162 HD
BRANCH  15  17
HETATM   17  C   UNK N   1      33.515  17.202   8.734  0.00  0.00     0.151 C 
HETATM   18  C   UNK N   1      34.077  17.801   7.459  0.00  0.00     0.040 C 
BRANCH  17  19
HETATM   19  C   UNK N   1      32.054  16.861   8.534  0.00  0.00     0.177 C 
HETATM   20  O   UNK N   1      31.659  15.712   8.665  0.00  0.00    -0.293 OA
BRANCH  19  21
HETATM   21  C   UNK N   1      31.072  17.934   8.192  0.00  0.00     0.302 C 
HETATM   22  F   UNK N   1      30.863  18.738   9.300  0.00  0.00    -0.247 F 
ENDBRANCH  19  21
ENDBRANCH  17  19
ENDBRANCH  15  17
BRANCH  14  23
HETATM   23  O   UNK N   1      35.029  17.097  11.001  0.00  0.00    -0.348 OA
HETATM   24  H   UNK N   1      35.498  17.904  11.088  0.00  0.00     0.219 HD
ENDBRANCH  14  23
ENDBRANCH   1  14
BRANCH   1  25
HETATM   25  N   UNK N   1      35.247  14.063  11.744  0.00  0.00    -0.338 N 
HETATM   26  C   UNK N   1      35.645  14.243  12.959  0.00  0.00     0.259 C 
ATOM     27  HN  UNK N   1      34.511  13.378  11.568  1.00  0.00     0.164 HD
BRANCH  26  28
HETATM   28  O   UNK N   1      36.543  15.220  13.242  0.00  0.00    -0.327 OA
HETATM   29  H   UNK N   1      37.096  15.280  13.996  0.00  0.00     0.221 HD
ENDBRANCH  26  28
BRANCH  26  30
HETATM   30  O   UNK N   1      35.215  13.430  13.953  0.00  0.00    -0.312 OA
BRANCH  30  31
HETATM   31  C   UNK N   1      36.132  12.703  14.686  0.00  0.00     0.218 C 
BRANCH  31  32
HETATM   32  C   UNK N   1      35.754  12.506  16.120  0.00  0.00    -0.034 A 
HETATM   33  C   UNK N   1      35.379  13.584  16.934  0.00  0.00     0.009 A 
HETATM   34  C   UNK N   1      35.129  13.379  18.296  0.00  0.00     0.001 A 
HETATM   35  C   UNK N   1      35.268  12.102  18.851  0.00  0.00     0.000 A 
HETATM   36  C   UNK N   1      35.647  11.027  18.044  0.00  0.00     0.001 A 
HETATM   37  C   UNK N   1      35.893  11.230  16.682  0.00  0.00     0.009 A 
ENDBRANCH  31  32
ENDBRANCH  30  31
ENDBRANCH  26  30
ENDBRANCH   1  25
TORSDOF 14
ENDMDL
