REMARK  16 active torsions:
REMARK  status: ('A' for Active; 'I' for Inactive)
REMARK    1  A    between atoms: C_22  and  C_19 
REMARK    2  A    between atoms: C_28  and  C_19 
REMARK    3  A    between atoms: C_23  and  C_20 
REMARK    4  A    between atoms: N_38  and  C_20 
REMARK    5  A    between atoms: N_34  and  C_21 
REMARK    6  A    between atoms: O_39  and  C_21 
REMARK    7  A    between atoms: C_25  and  C_24 
REMARK    8  A    between atoms: C_31  and  C_26 
REMARK    9  A    between atoms: C_27  and  N_36 
REMARK   10  A    between atoms: C_29  and  C_28 
REMARK   11  A    between atoms: C_28  and  N_34 
REMARK   12  A    between atoms: N_36  and  C_29 
REMARK   13  A    between atoms: C_29  and  O_40 
REMARK   14  A    between atoms: P_45  and  C_31 
REMARK   15  A    between atoms: P_45  and  O_42 
REMARK   16  A    between atoms: P_45  and  O_43 
ROOT
HETATM    1  C   UNK N   1       1.636   4.534   0.797  0.00  0.00     0.135 C 
ENDROOT
BRANCH   1   2
HETATM    2  C   UNK N   1       2.063   5.961   0.782  0.00  0.00     0.162 C 
BRANCH   2   3
HETATM    3  C   UNK N   1       3.575   5.795   0.601  0.00  0.00     0.072 C 
BRANCH   3   4
HETATM    4  C   UNK N   1       4.443   6.955   0.328  0.00  0.00    -0.056 A 
HETATM    5  C   UNK N   1       5.756   6.701  -0.082  0.00  0.00     0.008 A 
HETATM    6  C   UNK N   1       6.591   7.755  -0.444  0.00  0.00     0.014 A 
HETATM    7  C   UNK N   1       6.109   9.069  -0.402  0.00  0.00     0.025 A 
HETATM    8  C   UNK N   1       4.798   9.314   0.032  0.00  0.00     0.014 A 
HETATM    9  C   UNK N   1       3.969   8.262   0.402  0.00  0.00     0.008 A 
BRANCH   7  10
HETATM   10  C   UNK N   1       6.944  10.207  -0.900  0.00  0.00     0.364 C 
HETATM   11  F   UNK N   1       8.208   9.775  -1.270  0.00  0.00    -0.187 F 
HETATM   12  F   UNK N   1       6.318  10.743  -2.010  0.00  0.00    -0.187 F 
BRANCH  10  13
HETATM   13  P   UNK N   1       7.107  11.542   0.390  0.00  0.00     0.315 P 
HETATM   14  O   UNK N   1       5.704  12.046   0.824  0.00  0.00    -0.649 OA
BRANCH  13  15
HETATM   15  O   UNK N   1       7.900  12.976  -0.177  0.00  0.00    -0.325 OA
HETATM   16  H   UNK N   1       8.816  12.993  -0.495  0.00  0.00     0.220 HD
ENDBRANCH  13  15
BRANCH  13  17
HETATM   17  O   UNK N   1       7.874  11.079   1.876  0.00  0.00    -0.325 OA
HETATM   18  H   UNK N   1       7.864  10.578   2.707  0.00  0.00     0.220 HD
ENDBRANCH  13  17
ENDBRANCH  10  13
ENDBRANCH   7  10
ENDBRANCH   3   4
ENDBRANCH   2   3
BRANCH   2  19
HETATM   19  N   UNK N   1       1.481   6.695  -0.328  0.00  0.00    -0.362 N 
ATOM     20  HN  UNK N   1       2.106   7.049  -1.052  1.00  0.00     0.162 HD
BRANCH  19  21
HETATM   21  C   UNK N   1       0.218   6.923  -0.448  0.00  0.00     0.107 C 
HETATM   22  C   UNK N   1      -0.276   7.706  -1.614  0.00  0.00     0.097 C 
BRANCH  21  23
HETATM   23  O   UNK N   1      -0.661   6.464   0.465  0.00  0.00    -0.350 OA
HETATM   24  H   UNK N   1      -1.243   6.833   1.100  0.00  0.00     0.219 HD
ENDBRANCH  21  23
ENDBRANCH  19  21
ENDBRANCH   2  19
ENDBRANCH   1   2
BRANCH   1  25
HETATM   25  N   UNK N   1       1.752   3.854  -0.300  0.00  0.00    -0.359 N 
ATOM     26  HN  UNK N   1       1.732   4.373  -1.178  1.00  0.00     0.162 HD
BRANCH  25  27
HETATM   27  C   UNK N   1       1.908   2.417  -0.379  0.00  0.00     0.175 C 
HETATM   28  C   UNK N   1       0.952   1.684   0.584  0.00  0.00     0.035 C 
HETATM   29  C   UNK N   1       0.855   0.181   0.370  0.00  0.00     0.004 C 
HETATM   30  C   UNK N   1       2.173  -0.502   0.651  0.00  0.00     0.020 C 
HETATM   31  C   UNK N   1       3.097  -0.241  -0.518  0.00  0.00     0.126 C 
HETATM   32  N   UNK N   1       3.951   0.910  -0.269  0.00  0.00    -0.346 N 
HETATM   33  C   UNK N   1       3.406   2.147  -0.163  0.00  0.00     0.242 C 
HETATM   34  O   UNK N   1       4.153   3.094   0.059  0.00  0.00    -0.271 OA
BRANCH  32  35
HETATM   35  C   UNK N   1       5.415   0.775  -0.180  0.00  0.00     0.164 C 
BRANCH  35  36
HETATM   36  C   UNK N   1       5.842  -0.641  -0.280  0.00  0.00    -0.040 A 
HETATM   37  C   UNK N   1       5.526  -1.356  -1.436  0.00  0.00     0.009 A 
HETATM   38  C   UNK N   1       5.520  -2.740  -1.405  0.00  0.00     0.013 A 
HETATM   39  C   UNK N   1       5.873  -3.418  -0.231  0.00  0.00    -0.026 A 
HETATM   40  C   UNK N   1       6.325  -2.692   0.883  0.00  0.00     0.013 A 
HETATM   41  C   UNK N   1       6.289  -1.300   0.865  0.00  0.00     0.009 A 
BRANCH  39  42
HETATM   42  C   UNK N   1       5.556  -4.847  -0.096  0.00  0.00    -0.026 A 
HETATM   43  C   UNK N   1       5.989  -5.577   1.019  0.00  0.00     0.012 A 
HETATM   44  C   UNK N   1       5.557  -6.892   1.208  0.00  0.00     0.001 A 
HETATM   45  C   UNK N   1       4.659  -7.470   0.307  0.00  0.00     0.000 A 
HETATM   46  C   UNK N   1       4.212  -6.745  -0.799  0.00  0.00     0.001 A 
HETATM   47  C   UNK N   1       4.662  -5.442  -1.003  0.00  0.00     0.012 A 
ENDBRANCH  39  42
ENDBRANCH  35  36
ENDBRANCH  32  35
ENDBRANCH  25  27
ENDBRANCH   1  25
BRANCH   1  48
HETATM   48  O   UNK N   1       1.405   3.934   1.984  0.00  0.00    -0.348 OA
HETATM   49  H   UNK N   1       0.964   3.864   2.808  0.00  0.00     0.219 HD
ENDBRANCH   1  48
TORSDOF 16
