MODEL 1
REMARK VINA RESULT:      -7.8      0.000      0.000
REMARK  15 active torsions:
REMARK  status: ('A' for Active; 'I' for Inactive)
REMARK    1  A    between atoms: C_7  and  C_3 
REMARK    2  A    between atoms: O_31  and  C_3 
REMARK    3  A    between atoms: C_8  and  C_4 
REMARK    4  A    between atoms: O_39  and  C_4 
REMARK    5  A    between atoms: O_32  and  C_9 
REMARK    6  A    between atoms: C_11  and  O_33 
REMARK    7  A    between atoms: C_12  and  O_34 
REMARK    8  A    between atoms: C_13  and  O_35 
REMARK    9  A    between atoms: C_14  and  O_42 
REMARK   10  A    between atoms: N_20  and  C_15 
REMARK   11  A    between atoms: C_17  and  N_30 
REMARK   12  A    between atoms: C_18  and  N_29 
REMARK   13  A    between atoms: P_43  and  O_37 
REMARK   14  A    between atoms: P_43  and  O_39 
REMARK   15  A    between atoms: P_43  and  O_42 
ROOT
HETATM    1  O   UNK N   1      32.734  13.390   7.927  0.00  0.00    -0.294 OA
ENDROOT
BRANCH   1   2
HETATM    2  C   UNK N   1      33.971  12.897   8.369  0.00  0.00     0.215 C 
BRANCH   2   3
HETATM    3  C   UNK N   1      34.152  13.148   9.854  0.00  0.00     0.180 C 
HETATM    4  C   UNK N   1      34.200  14.651  10.187  0.00  0.00     0.182 C 
HETATM    5  C   UNK N   1      35.616  14.799  10.662  0.00  0.00     0.198 C 
HETATM    6  C   UNK N   1      35.948  13.415  11.199  0.00  0.00     0.262 C 
HETATM    7  O   UNK N   1      35.366  12.538  10.266  0.00  0.00    -0.353 OA
BRANCH   4   8
HETATM    8  O   UNK N   1      33.307  14.934  11.224  0.00  0.00    -0.390 OA
HETATM    9  H   UNK N   1      32.644  15.541  11.590  0.00  0.00     0.210 HD
ENDBRANCH   4   8
BRANCH   5  10
HETATM   10  O   UNK N   1      35.819  15.857  11.550  0.00  0.00    -0.388 OA
HETATM   11  H   UNK N   1      36.331  15.799  12.371  0.00  0.00     0.210 HD
ENDBRANCH   5  10
BRANCH   6  12
HETATM   12  N   UNK N   1      35.486  13.063  12.556  0.00  0.00    -0.297 N 
HETATM   13  C   UNK N   1      34.670  12.022  12.878  0.00  0.00     0.188 A 
HETATM   14  N   UNK N   1      34.567  11.864  14.228  0.00  0.00    -0.346 N 
HETATM   15  C   UNK N   1      35.344  12.835  14.733  0.00  0.00     0.122 A 
ATOM     16  HN  UNK N   1      34.023  11.168  14.737  1.00  0.00     0.167 HD
HETATM   17  C   UNK N   1      35.663  13.120  16.052  0.00  0.00     0.131 A 
HETATM   18  C   UNK N   1      35.884  13.564  13.734  0.00  0.00     0.142 A 
HETATM   19  N   UNK N   1      36.508  14.164  16.295  0.00  0.00    -0.337 N 
HETATM   20  C   UNK N   1      37.034  14.903  15.261  0.00  0.00     0.183 A 
ATOM     21  HN  UNK N   1      36.753  14.400  17.256  1.00  0.00     0.168 HD
HETATM   22  N   UNK N   1      36.735  14.592  13.961  0.00  0.00    -0.336 N 
ATOM     23  HN  UNK N   1      37.141  15.118  13.188  1.00  0.00     0.168 HD
BRANCH  17  24
HETATM   24  N   UNK N   1      35.163  12.336  17.113  0.00  0.00    -0.383 N 
HETATM   25  H   UNK N   1      35.498  11.427  17.290  0.00  0.00     0.157 HD
HETATM   26  H   UNK N   1      34.459  12.708  17.692  0.00  0.00     0.157 HD
ENDBRANCH  17  24
ENDBRANCH   6  12
ENDBRANCH   2   3
ENDBRANCH   1   2
BRANCH   1  27
HETATM   27  P   UNK N   1      32.903  13.497   6.192  0.00  0.00     0.393 P 
HETATM   28  O   UNK N   1      31.513  13.376   5.512  0.00  0.00    -0.631 OA
BRANCH  27  29
HETATM   29  O   UNK N   1      32.371  11.900   6.619  0.00  0.00    -0.307 OA
HETATM   30  H   UNK N   1      31.915  11.131   6.245  0.00  0.00     0.222 HD
ENDBRANCH  27  29
BRANCH  27  31
HETATM   31  O   UNK N   1      32.064  14.947   6.731  0.00  0.00    -0.284 OA
BRANCH  31  32
HETATM   32  C   UNK N   1      32.592  16.087   6.062  0.00  0.00     0.214 C 
HETATM   33  C   UNK N   1      33.919  16.421   6.690  0.00  0.00     0.183 C 
HETATM   34  C   UNK N   1      33.416  17.078   7.968  0.00  0.00     0.179 C 
HETATM   35  O   UNK N   1      32.369  17.934   7.583  0.00  0.00    -0.353 OA
HETATM   36  C   UNK N   1      31.793  17.364   6.410  0.00  0.00     0.264 C 
BRANCH  33  37
HETATM   37  O   UNK N   1      34.598  17.347   5.889  0.00  0.00    -0.390 OA
HETATM   38  H   UNK N   1      35.207  18.074   5.689  0.00  0.00     0.210 HD
ENDBRANCH  33  37
BRANCH  34  39
HETATM   39  C   UNK N   1      34.491  17.815   8.766  0.00  0.00     0.198 C 
BRANCH  39  40
HETATM   40  O   UNK N   1      34.777  19.064   8.214  0.00  0.00    -0.398 OA
HETATM   41  H   UNK N   1      35.151  19.707   7.592  0.00  0.00     0.209 HD
ENDBRANCH  39  40
ENDBRANCH  34  39
BRANCH  36  42
HETATM   42  N   UNK N   1      30.359  17.079   6.616  0.00  0.00    -0.280 N 
HETATM   43  C   UNK N   1      29.812  17.324   7.841  0.00  0.00     0.103 A 
HETATM   44  C   UNK N   1      28.479  17.032   8.102  0.00  0.00     0.073 A 
HETATM   45  C   UNK N   1      27.704  16.485   7.089  0.00  0.00     0.144 A 
HETATM   46  N   UNK N   1      28.248  16.260   5.866  0.00  0.00    -0.289 N 
HETATM   47  C   UNK N   1      29.564  16.552   5.612  0.00  0.00     0.330 A 
ATOM     48  HN  UNK N   1      27.668  15.866   5.124  1.00  0.00     0.172 HD
HETATM   49  O   UNK N   1      30.021  16.339   4.503  0.00  0.00    -0.246 OA
BRANCH  45  50
HETATM   50  O   UNK N   1      26.419  16.180   7.323  0.00  0.00    -0.346 OA
HETATM   51  H   UNK N   1      26.048  16.005   8.165  0.00  0.00     0.219 HD
ENDBRANCH  45  50
ENDBRANCH  36  42
ENDBRANCH  31  32
ENDBRANCH  27  31
ENDBRANCH   1  27
TORSDOF 15
ENDMDL
MODEL 2
REMARK VINA RESULT:      -7.7      1.904      3.212
REMARK  15 active torsions:
REMARK  status: ('A' for Active; 'I' for Inactive)
REMARK    1  A    between atoms: C_7  and  C_3 
REMARK    2  A    between atoms: O_31  and  C_3 
REMARK    3  A    between atoms: C_8  and  C_4 
REMARK    4  A    between atoms: O_39  and  C_4 
REMARK    5  A    between atoms: O_32  and  C_9 
REMARK    6  A    between atoms: C_11  and  O_33 
REMARK    7  A    between atoms: C_12  and  O_34 
REMARK    8  A    between atoms: C_13  and  O_35 
REMARK    9  A    between atoms: C_14  and  O_42 
REMARK   10  A    between atoms: N_20  and  C_15 
REMARK   11  A    between atoms: C_17  and  N_30 
REMARK   12  A    between atoms: C_18  and  N_29 
REMARK   13  A    between atoms: P_43  and  O_37 
REMARK   14  A    between atoms: P_43  and  O_39 
REMARK   15  A    between atoms: P_43  and  O_42 
ROOT
HETATM    1  O   UNK N   1      32.199  13.932   7.842  0.00  0.00    -0.294 OA
ENDROOT
BRANCH   1   2
HETATM    2  C   UNK N   1      33.441  13.301   8.016  0.00  0.00     0.215 C 
BRANCH   2   3
HETATM    3  C   UNK N   1      34.083  13.725   9.323  0.00  0.00     0.180 C 
HETATM    4  C   UNK N   1      33.544  15.079   9.822  0.00  0.00     0.182 C 
HETATM    5  C   UNK N   1      34.767  15.941   9.705  0.00  0.00     0.198 C 
HETATM    6  C   UNK N   1      35.907  14.947   9.857  0.00  0.00     0.262 C 
HETATM    7  O   UNK N   1      35.484  13.826   9.120  0.00  0.00    -0.353 OA
BRANCH   4   8
HETATM    8  O   UNK N   1      33.153  14.967  11.160  0.00  0.00    -0.390 OA
HETATM    9  H   UNK N   1      33.123  14.420  11.960  0.00  0.00     0.210 HD
ENDBRANCH   4   8
BRANCH   5  10
HETATM   10  O   UNK N   1      34.792  17.028  10.580  0.00  0.00    -0.388 OA
HETATM   11  H   UNK N   1      34.041  17.322  11.117  0.00  0.00     0.210 HD
ENDBRANCH   5  10
BRANCH   6  12
HETATM   12  N   UNK N   1      36.287  14.522  11.218  0.00  0.00    -0.297 N 
HETATM   13  C   UNK N   1      36.143  15.257  12.356  0.00  0.00     0.188 A 
HETATM   14  N   UNK N   1      36.430  14.523  13.467  0.00  0.00    -0.346 N 
HETATM   15  C   UNK N   1      36.751  13.311  12.988  0.00  0.00     0.122 A 
ATOM     16  HN  UNK N   1      36.405  14.826  14.441  1.00  0.00     0.167 HD
HETATM   17  C   UNK N   1      37.075  12.147  13.667  0.00  0.00     0.131 A 
HETATM   18  C   UNK N   1      36.681  13.312  11.641  0.00  0.00     0.142 A 
HETATM   19  N   UNK N   1      37.342  11.029  12.929  0.00  0.00    -0.337 N 
HETATM   20  C   UNK N   1      37.279  11.057  11.556  0.00  0.00     0.183 A 
ATOM     21  HN  UNK N   1      37.590  10.161  13.403  1.00  0.00     0.168 HD
HETATM   22  N   UNK N   1      36.927  12.207  10.899  0.00  0.00    -0.336 N 
ATOM     23  HN  UNK N   1      36.854  12.230   9.882  1.00  0.00     0.168 HD
BRANCH  17  24
HETATM   24  N   UNK N   1      37.095  12.101  15.077  0.00  0.00    -0.383 N 
HETATM   25  H   UNK N   1      36.767  11.318  15.575  0.00  0.00     0.157 HD
HETATM   26  H   UNK N   1      37.447  12.873  15.575  0.00  0.00     0.157 HD
ENDBRANCH  17  24
ENDBRANCH   6  12
ENDBRANCH   2   3
ENDBRANCH   1   2
BRANCH   1  27
HETATM   27  P   UNK N   1      32.140  14.315   6.140  0.00  0.00     0.393 P 
HETATM   28  O   UNK N   1      30.836  13.752   5.512  0.00  0.00    -0.631 OA
BRANCH  27  29
HETATM   29  O   UNK N   1      32.293  12.596   6.337  0.00  0.00    -0.307 OA
HETATM   30  H   UNK N   1      32.204  11.902   7.008  0.00  0.00     0.222 HD
ENDBRANCH  27  29
BRANCH  27  31
HETATM   31  O   UNK N   1      30.876  15.246   6.935  0.00  0.00    -0.284 OA
BRANCH  31  32
HETATM   32  C   UNK N   1      31.307  16.592   7.110  0.00  0.00     0.214 C 
HETATM   33  C   UNK N   1      30.991  16.999   8.525  0.00  0.00     0.183 C 
HETATM   34  C   UNK N   1      29.492  17.222   8.377  0.00  0.00     0.179 C 
HETATM   35  O   UNK N   1      29.318  17.940   7.181  0.00  0.00    -0.353 OA
HETATM   36  C   UNK N   1      30.405  17.577   6.332  0.00  0.00     0.264 C 
BRANCH  33  37
HETATM   37  O   UNK N   1      31.646  18.201   8.823  0.00  0.00    -0.390 OA
HETATM   38  H   UNK N   1      31.840  19.149   8.758  0.00  0.00     0.210 HD
ENDBRANCH  33  37
BRANCH  34  39
HETATM   39  C   UNK N   1      28.838  17.926   9.566  0.00  0.00     0.198 C 
BRANCH  39  40
HETATM   40  O   UNK N   1      27.461  18.062   9.390  0.00  0.00    -0.398 OA
HETATM   41  H   UNK N   1      26.598  18.503   9.366  0.00  0.00     0.209 HD
ENDBRANCH  39  40
ENDBRANCH  34  39
BRANCH  36  42
HETATM   42  N   UNK N   1      29.910  16.993   5.069  0.00  0.00    -0.280 N 
HETATM   43  C   UNK N   1      28.679  16.405   5.057  0.00  0.00     0.103 A 
HETATM   44  C   UNK N   1      28.183  15.802   3.908  0.00  0.00     0.073 A 
HETATM   45  C   UNK N   1      28.965  15.806   2.762  0.00  0.00     0.144 A 
HETATM   46  N   UNK N   1      30.183  16.407   2.773  0.00  0.00    -0.289 N 
HETATM   47  C   UNK N   1      30.666  17.005   3.909  0.00  0.00     0.330 A 
ATOM     48  HN  UNK N   1      30.747  16.413   1.922  1.00  0.00     0.172 HD
HETATM   49  O   UNK N   1      31.761  17.537   3.885  0.00  0.00    -0.246 OA
BRANCH  45  50
HETATM   50  O   UNK N   1      28.515  15.214   1.645  0.00  0.00    -0.346 OA
HETATM   51  H   UNK N   1      28.311  14.304   1.558  0.00  0.00     0.219 HD
ENDBRANCH  45  50
ENDBRANCH  36  42
ENDBRANCH  31  32
ENDBRANCH  27  31
ENDBRANCH   1  27
TORSDOF 15
ENDMDL
MODEL 3
REMARK VINA RESULT:      -7.5      9.870     15.078
REMARK  15 active torsions:
REMARK  status: ('A' for Active; 'I' for Inactive)
REMARK    1  A    between atoms: C_7  and  C_3 
REMARK    2  A    between atoms: O_31  and  C_3 
REMARK    3  A    between atoms: C_8  and  C_4 
REMARK    4  A    between atoms: O_39  and  C_4 
REMARK    5  A    between atoms: O_32  and  C_9 
REMARK    6  A    between atoms: C_11  and  O_33 
REMARK    7  A    between atoms: C_12  and  O_34 
REMARK    8  A    between atoms: C_13  and  O_35 
REMARK    9  A    between atoms: C_14  and  O_42 
REMARK   10  A    between atoms: N_20  and  C_15 
REMARK   11  A    between atoms: C_17  and  N_30 
REMARK   12  A    between atoms: C_18  and  N_29 
REMARK   13  A    between atoms: P_43  and  O_37 
REMARK   14  A    between atoms: P_43  and  O_39 
REMARK   15  A    between atoms: P_43  and  O_42 
ROOT
HETATM    1  O   UNK N   1      20.331  14.623   7.369  0.00  0.00    -0.294 OA
ENDROOT
BRANCH   1   2
HETATM    2  C   UNK N   1      20.607  15.974   7.110  0.00  0.00     0.215 C 
BRANCH   2   3
HETATM    3  C   UNK N   1      20.288  16.324   5.670  0.00  0.00     0.180 C 
HETATM    4  C   UNK N   1      19.102  15.507   5.123  0.00  0.00     0.182 C 
HETATM    5  C   UNK N   1      19.781  14.672   4.077  0.00  0.00     0.198 C 
HETATM    6  C   UNK N   1      20.969  15.527   3.668  0.00  0.00     0.262 C 
HETATM    7  O   UNK N   1      21.439  16.062   4.881  0.00  0.00    -0.353 OA
BRANCH   4   8
HETATM    8  O   UNK N   1      18.170  16.365   4.532  0.00  0.00    -0.390 OA
HETATM    9  H   UNK N   1      17.448  17.001   4.658  0.00  0.00     0.210 HD
ENDBRANCH   4   8
BRANCH   5  10
HETATM   10  O   UNK N   1      18.946  14.260   3.037  0.00  0.00    -0.388 OA
HETATM   11  H   UNK N   1      18.385  14.851   2.512  0.00  0.00     0.210 HD
ENDBRANCH   5  10
BRANCH   6  12
HETATM   12  N   UNK N   1      20.743  16.623   2.705  0.00  0.00    -0.297 N 
HETATM   13  C   UNK N   1      19.840  16.618   1.685  0.00  0.00     0.188 A 
HETATM   14  N   UNK N   1      19.757  17.838   1.084  0.00  0.00    -0.346 N 
HETATM   15  C   UNK N   1      20.629  18.600   1.762  0.00  0.00     0.122 A 
ATOM     16  HN  UNK N   1      19.166  18.110   0.298  1.00  0.00     0.167 HD
HETATM   17  C   UNK N   1      20.922  19.948   1.626  0.00  0.00     0.131 A 
HETATM   18  C   UNK N   1      21.233  17.871   2.723  0.00  0.00     0.142 A 
HETATM   19  N   UNK N   1      21.848  20.491   2.470  0.00  0.00    -0.337 N 
HETATM   20  C   UNK N   1      22.461  19.724   3.432  0.00  0.00     0.183 A 
ATOM     21  HN  UNK N   1      22.087  21.478   2.386  1.00  0.00     0.168 HD
HETATM   22  N   UNK N   1      22.140  18.400   3.577  0.00  0.00    -0.336 N 
ATOM     23  HN  UNK N   1      22.571  17.831   4.304  1.00  0.00     0.168 HD
BRANCH  17  24
HETATM   24  N   UNK N   1      20.262  20.749   0.670  0.00  0.00    -0.383 N 
HETATM   25  H   UNK N   1      20.418  20.639  -0.296  0.00  0.00     0.157 HD
HETATM   26  H   UNK N   1      19.629  21.437   0.978  0.00  0.00     0.157 HD
ENDBRANCH  17  24
ENDBRANCH   6  12
ENDBRANCH   2   3
ENDBRANCH   1   2
BRANCH   1  27
HETATM   27  P   UNK N   1      20.934  14.357   8.986  0.00  0.00     0.393 P 
HETATM   28  O   UNK N   1      19.978  13.411   9.762  0.00  0.00    -0.631 OA
BRANCH  27  29
HETATM   29  O   UNK N   1      19.444  15.247   9.067  0.00  0.00    -0.307 OA
HETATM   30  H   UNK N   1      18.672  15.478   8.528  0.00  0.00     0.222 HD
ENDBRANCH  27  29
BRANCH  27  31
HETATM   31  O   UNK N   1      21.077  12.836   8.113  0.00  0.00    -0.284 OA
BRANCH  31  32
HETATM   32  C   UNK N   1      22.074  12.953   7.103  0.00  0.00     0.214 C 
HETATM   33  C   UNK N   1      21.607  12.179   5.898  0.00  0.00     0.183 C 
HETATM   34  C   UNK N   1      21.901  10.770   6.395  0.00  0.00     0.179 C 
HETATM   35  O   UNK N   1      23.176  10.820   6.985  0.00  0.00    -0.353 OA
HETATM   36  C   UNK N   1      23.343  12.150   7.470  0.00  0.00     0.264 C 
BRANCH  33  37
HETATM   37  O   UNK N   1      22.411  12.496   4.797  0.00  0.00    -0.390 OA
HETATM   38  H   UNK N   1      22.692  12.993   4.013  0.00  0.00     0.210 HD
ENDBRANCH  33  37
BRANCH  34  39
HETATM   39  C   UNK N   1      21.813   9.689   5.318  0.00  0.00     0.198 C 
BRANCH  39  40
HETATM   40  O   UNK N   1      20.881  10.019   4.333  0.00  0.00    -0.398 OA
HETATM   41  H   UNK N   1      20.069  10.388   3.952  0.00  0.00     0.209 HD
ENDBRANCH  39  40
ENDBRANCH  34  39
BRANCH  36  42
HETATM   42  N   UNK N   1      23.593  12.150   8.926  0.00  0.00    -0.280 N 
HETATM   43  C   UNK N   1      22.843  11.331   9.719  0.00  0.00     0.103 A 
HETATM   44  C   UNK N   1      23.006  11.323  11.099  0.00  0.00     0.073 A 
HETATM   45  C   UNK N   1      23.953  12.166  11.664  0.00  0.00     0.144 A 
HETATM   46  N   UNK N   1      24.709  12.966  10.870  0.00  0.00    -0.289 N 
HETATM   47  C   UNK N   1      24.547  12.967   9.507  0.00  0.00     0.330 A 
ATOM     48  HN  UNK N   1      25.410  13.575  11.293  1.00  0.00     0.172 HD
HETATM   49  O   UNK N   1      25.243  13.696   8.823  0.00  0.00    -0.246 OA
BRANCH  45  50
HETATM   50  O   UNK N   1      24.116  12.188  12.995  0.00  0.00    -0.346 OA
HETATM   51  H   UNK N   1      24.771  12.678  13.452  0.00  0.00     0.219 HD
ENDBRANCH  45  50
ENDBRANCH  36  42
ENDBRANCH  31  32
ENDBRANCH  27  31
ENDBRANCH   1  27
TORSDOF 15
ENDMDL
MODEL 4
REMARK VINA RESULT:      -7.3      7.987     12.014
REMARK  15 active torsions:
REMARK  status: ('A' for Active; 'I' for Inactive)
REMARK    1  A    between atoms: C_7  and  C_3 
REMARK    2  A    between atoms: O_31  and  C_3 
REMARK    3  A    between atoms: C_8  and  C_4 
REMARK    4  A    between atoms: O_39  and  C_4 
REMARK    5  A    between atoms: O_32  and  C_9 
REMARK    6  A    between atoms: C_11  and  O_33 
REMARK    7  A    between atoms: C_12  and  O_34 
REMARK    8  A    between atoms: C_13  and  O_35 
REMARK    9  A    between atoms: C_14  and  O_42 
REMARK   10  A    between atoms: N_20  and  C_15 
REMARK   11  A    between atoms: C_17  and  N_30 
REMARK   12  A    between atoms: C_18  and  N_29 
REMARK   13  A    between atoms: P_43  and  O_37 
REMARK   14  A    between atoms: P_43  and  O_39 
REMARK   15  A    between atoms: P_43  and  O_42 
ROOT
HETATM    1  O   UNK N   1      23.567  15.240   3.661  0.00  0.00    -0.294 OA
ENDROOT
BRANCH   1   2
HETATM    2  C   UNK N   1      24.671  15.899   3.099  0.00  0.00     0.215 C 
BRANCH   2   3
HETATM    3  C   UNK N   1      25.192  16.973   4.036  0.00  0.00     0.180 C 
HETATM    4  C   UNK N   1      24.278  18.212   4.064  0.00  0.00     0.182 C 
HETATM    5  C   UNK N   1      25.171  19.247   3.446  0.00  0.00     0.198 C 
HETATM    6  C   UNK N   1      26.567  18.749   3.786  0.00  0.00     0.262 C 
HETATM    7  O   UNK N   1      26.487  17.357   3.599  0.00  0.00    -0.353 OA
BRANCH   4   8
HETATM    8  O   UNK N   1      23.982  18.551   5.387  0.00  0.00    -0.390 OA
HETATM    9  H   UNK N   1      23.334  18.907   6.016  0.00  0.00     0.210 HD
ENDBRANCH   4   8
BRANCH   5  10
HETATM   10  O   UNK N   1      24.887  20.558   3.832  0.00  0.00    -0.388 OA
HETATM   11  H   UNK N   1      24.764  20.850   4.748  0.00  0.00     0.210 HD
ENDBRANCH   5  10
BRANCH   6  12
HETATM   12  N   UNK N   1      27.101  19.032   5.132  0.00  0.00    -0.297 N 
HETATM   13  C   UNK N   1      26.699  20.037   5.958  0.00  0.00     0.188 A 
HETATM   14  N   UNK N   1      27.264  19.929   7.193  0.00  0.00    -0.346 N 
HETATM   15  C   UNK N   1      28.025  18.826   7.112  0.00  0.00     0.122 A 
ATOM     16  HN  UNK N   1      27.138  20.545   7.996  1.00  0.00     0.167 HD
HETATM   17  C   UNK N   1      28.786  18.199   8.086  0.00  0.00     0.131 A 
HETATM   18  C   UNK N   1      27.941  18.295   5.874  0.00  0.00     0.142 A 
HETATM   19  N   UNK N   1      29.456  17.061   7.741  0.00  0.00    -0.337 N 
HETATM   20  C   UNK N   1      29.368  16.547   6.469  0.00  0.00     0.183 A 
ATOM     21  HN  UNK N   1      30.030  16.585   8.437  1.00  0.00     0.168 HD
HETATM   22  N   UNK N   1      28.587  17.159   5.524  0.00  0.00    -0.336 N 
ATOM     23  HN  UNK N   1      28.496  16.770   4.586  1.00  0.00     0.168 HD
BRANCH  17  24
HETATM   24  N   UNK N   1      28.843  18.697   9.405  0.00  0.00    -0.383 N 
HETATM   25  H   UNK N   1      28.030  18.951   9.899  0.00  0.00     0.157 HD
HETATM   26  H   UNK N   1      29.719  18.794   9.842  0.00  0.00     0.157 HD
ENDBRANCH  17  24
ENDBRANCH   6  12
ENDBRANCH   2   3
ENDBRANCH   1   2
BRANCH   1  27
HETATM   27  P   UNK N   1      22.587  14.786   2.289  0.00  0.00     0.393 P 
HETATM   28  O   UNK N   1      21.259  14.145   2.772  0.00  0.00    -0.631 OA
BRANCH  27  29
HETATM   29  O   UNK N   1      23.098  13.354   3.129  0.00  0.00    -0.307 OA
HETATM   30  H   UNK N   1      22.979  12.889   3.972  0.00  0.00     0.222 HD
ENDBRANCH  27  29
BRANCH  27  31
HETATM   31  O   UNK N   1      21.772  16.115   3.103  0.00  0.00    -0.284 OA
BRANCH  31  32
HETATM   32  C   UNK N   1      20.462  16.277   2.568  0.00  0.00     0.214 C 
HETATM   33  C   UNK N   1      20.535  17.295   1.461  0.00  0.00     0.183 C 
HETATM   34  C   UNK N   1      20.628  18.557   2.308  0.00  0.00     0.179 C 
HETATM   35  O   UNK N   1      19.674  18.416   3.331  0.00  0.00    -0.353 OA
HETATM   36  C   UNK N   1      19.537  17.015   3.561  0.00  0.00     0.264 C 
BRANCH  33  37
HETATM   37  O   UNK N   1      19.342  17.276   0.728  0.00  0.00    -0.390 OA
HETATM   38  H   UNK N   1      18.566  16.882   0.300  0.00  0.00     0.210 HD
ENDBRANCH  33  37
BRANCH  34  39
HETATM   39  C   UNK N   1      20.440  19.857   1.527  0.00  0.00     0.198 C 
BRANCH  39  40
HETATM   40  O   UNK N   1      20.619  19.665   0.156  0.00  0.00    -0.398 OA
HETATM   41  H   UNK N   1      20.379  19.465  -0.762  0.00  0.00     0.209 HD
ENDBRANCH  39  40
ENDBRANCH  34  39
BRANCH  36  42
HETATM   42  N   UNK N   1      19.855  16.682   4.965  0.00  0.00    -0.280 N 
HETATM   43  C   UNK N   1      20.783  17.436   5.622  0.00  0.00     0.103 A 
HETATM   44  C   UNK N   1      21.152  17.139   6.928  0.00  0.00     0.073 A 
HETATM   45  C   UNK N   1      20.557  16.057   7.561  0.00  0.00     0.144 A 
HETATM   46  N   UNK N   1      19.621  15.321   6.909  0.00  0.00    -0.289 N 
HETATM   47  C   UNK N   1      19.257  15.620   5.621  0.00  0.00     0.330 A 
ATOM     48  HN  UNK N   1      19.182  14.532   7.386  1.00  0.00     0.172 HD
HETATM   49  O   UNK N   1      18.413  14.940   5.065  0.00  0.00    -0.246 OA
BRANCH  45  50
HETATM   50  O   UNK N   1      20.910  15.741   8.816  0.00  0.00    -0.346 OA
HETATM   51  H   UNK N   1      20.974  14.871   9.158  0.00  0.00     0.219 HD
ENDBRANCH  45  50
ENDBRANCH  36  42
ENDBRANCH  31  32
ENDBRANCH  27  31
ENDBRANCH   1  27
TORSDOF 15
ENDMDL
MODEL 5
REMARK VINA RESULT:      -7.2      8.084     12.077
REMARK  15 active torsions:
REMARK  status: ('A' for Active; 'I' for Inactive)
REMARK    1  A    between atoms: C_7  and  C_3 
REMARK    2  A    between atoms: O_31  and  C_3 
REMARK    3  A    between atoms: C_8  and  C_4 
REMARK    4  A    between atoms: O_39  and  C_4 
REMARK    5  A    between atoms: O_32  and  C_9 
REMARK    6  A    between atoms: C_11  and  O_33 
REMARK    7  A    between atoms: C_12  and  O_34 
REMARK    8  A    between atoms: C_13  and  O_35 
REMARK    9  A    between atoms: C_14  and  O_42 
REMARK   10  A    between atoms: N_20  and  C_15 
REMARK   11  A    between atoms: C_17  and  N_30 
REMARK   12  A    between atoms: C_18  and  N_29 
REMARK   13  A    between atoms: P_43  and  O_37 
REMARK   14  A    between atoms: P_43  and  O_39 
REMARK   15  A    between atoms: P_43  and  O_42 
ROOT
HETATM    1  O   UNK N   1      23.324  14.895   3.326  0.00  0.00    -0.294 OA
ENDROOT
BRANCH   1   2
HETATM    2  C   UNK N   1      24.521  15.282   2.703  0.00  0.00     0.215 C 
BRANCH   2   3
HETATM    3  C   UNK N   1      25.399  16.065   3.660  0.00  0.00     0.180 C 
HETATM    4  C   UNK N   1      24.583  16.725   4.788  0.00  0.00     0.182 C 
HETATM    5  C   UNK N   1      24.770  18.180   4.469  0.00  0.00     0.198 C 
HETATM    6  C   UNK N   1      26.110  18.208   3.750  0.00  0.00     0.262 C 
HETATM    7  O   UNK N   1      26.077  17.071   2.923  0.00  0.00    -0.353 OA
BRANCH   4   8
HETATM    8  O   UNK N   1      25.156  16.421   6.026  0.00  0.00    -0.390 OA
HETATM    9  H   UNK N   1      25.854  16.611   6.674  0.00  0.00     0.210 HD
ENDBRANCH   4   8
BRANCH   5  10
HETATM   10  O   UNK N   1      24.657  19.030   5.570  0.00  0.00    -0.388 OA
HETATM   11  H   UNK N   1      23.820  19.369   5.923  0.00  0.00     0.210 HD
ENDBRANCH   5  10
BRANCH   6  12
HETATM   12  N   UNK N   1      27.340  18.186   4.564  0.00  0.00    -0.297 N 
HETATM   13  C   UNK N   1      27.458  18.622   5.849  0.00  0.00     0.188 A 
HETATM   14  N   UNK N   1      28.675  18.313   6.375  0.00  0.00    -0.346 N 
HETATM   15  C   UNK N   1      29.309  17.668   5.382  0.00  0.00     0.122 A 
ATOM     16  HN  UNK N   1      29.026  18.522   7.310  1.00  0.00     0.167 HD
HETATM   17  C   UNK N   1      30.560  17.073   5.368  0.00  0.00     0.131 A 
HETATM   18  C   UNK N   1      28.517  17.605   4.292  0.00  0.00     0.142 A 
HETATM   19  N   UNK N   1      30.962  16.455   4.219  0.00  0.00    -0.337 N 
HETATM   20  C   UNK N   1      30.144  16.416   3.114  0.00  0.00     0.183 A 
ATOM     21  HN  UNK N   1      31.882  16.015   4.179  1.00  0.00     0.168 HD
HETATM   22  N   UNK N   1      28.897  16.982   3.152  0.00  0.00    -0.336 N 
ATOM     23  HN  UNK N   1      28.274  16.935   2.346  1.00  0.00     0.168 HD
BRANCH  17  24
HETATM   24  N   UNK N   1      31.384  17.070   6.513  0.00  0.00    -0.383 N 
HETATM   25  H   UNK N   1      31.392  17.822   7.148  0.00  0.00     0.157 HD
HETATM   26  H   UNK N   1      31.968  16.295   6.681  0.00  0.00     0.157 HD
ENDBRANCH  17  24
ENDBRANCH   6  12
ENDBRANCH   2   3
ENDBRANCH   1   2
BRANCH   1  27
HETATM   27  P   UNK N   1      22.215  14.621   2.006  0.00  0.00     0.393 P 
HETATM   28  O   UNK N   1      20.844  14.142   2.553  0.00  0.00    -0.631 OA
BRANCH  27  29
HETATM   29  O   UNK N   1      22.581  13.106   2.772  0.00  0.00    -0.307 OA
HETATM   30  H   UNK N   1      23.319  12.621   3.173  0.00  0.00     0.222 HD
ENDBRANCH  27  29
BRANCH  27  31
HETATM   31  O   UNK N   1      21.631  16.016   2.906  0.00  0.00    -0.284 OA
BRANCH  31  32
HETATM   32  C   UNK N   1      20.303  16.331   2.499  0.00  0.00     0.214 C 
HETATM   33  C   UNK N   1      20.386  17.354   1.397  0.00  0.00     0.183 C 
HETATM   34  C   UNK N   1      20.699  18.583   2.240  0.00  0.00     0.179 C 
HETATM   35  O   UNK N   1      19.834  18.530   3.348  0.00  0.00    -0.353 OA
HETATM   36  C   UNK N   1      19.562  17.149   3.580  0.00  0.00     0.264 C 
BRANCH  33  37
HETATM   37  O   UNK N   1      19.136  17.480   0.780  0.00  0.00    -0.390 OA
HETATM   38  H   UNK N   1      18.394  17.939   0.356  0.00  0.00     0.210 HD
ENDBRANCH  33  37
BRANCH  34  39
HETATM   39  C   UNK N   1      20.585  19.909   1.490  0.00  0.00     0.198 C 
BRANCH  39  40
HETATM   40  O   UNK N   1      20.612  19.723   0.107  0.00  0.00    -0.398 OA
HETATM   41  H   UNK N   1      20.528  19.951  -0.831  0.00  0.00     0.209 HD
ENDBRANCH  39  40
ENDBRANCH  34  39
BRANCH  36  42
HETATM   42  N   UNK N   1      19.970  16.758   4.945  0.00  0.00    -0.280 N 
HETATM   43  C   UNK N   1      20.983  17.445   5.548  0.00  0.00     0.103 A 
HETATM   44  C   UNK N   1      21.437  17.091   6.812  0.00  0.00     0.073 A 
HETATM   45  C   UNK N   1      20.838  16.020   7.460  0.00  0.00     0.144 A 
HETATM   46  N   UNK N   1      19.818  15.351   6.864  0.00  0.00    -0.289 N 
HETATM   47  C   UNK N   1      19.372  15.707   5.617  0.00  0.00     0.330 A 
ATOM     48  HN  UNK N   1      19.377  14.571   7.353  1.00  0.00     0.172 HD
HETATM   49  O   UNK N   1      18.453  15.086   5.111  0.00  0.00    -0.246 OA
BRANCH  45  50
HETATM   50  O   UNK N   1      21.270  15.649   8.675  0.00  0.00    -0.346 OA
HETATM   51  H   UNK N   1      21.411  14.765   8.953  0.00  0.00     0.219 HD
ENDBRANCH  45  50
ENDBRANCH  36  42
ENDBRANCH  31  32
ENDBRANCH  27  31
ENDBRANCH   1  27
TORSDOF 15
ENDMDL
MODEL 6
REMARK VINA RESULT:      -7.2      2.467      8.974
REMARK  15 active torsions:
REMARK  status: ('A' for Active; 'I' for Inactive)
REMARK    1  A    between atoms: C_7  and  C_3 
REMARK    2  A    between atoms: O_31  and  C_3 
REMARK    3  A    between atoms: C_8  and  C_4 
REMARK    4  A    between atoms: O_39  and  C_4 
REMARK    5  A    between atoms: O_32  and  C_9 
REMARK    6  A    between atoms: C_11  and  O_33 
REMARK    7  A    between atoms: C_12  and  O_34 
REMARK    8  A    between atoms: C_13  and  O_35 
REMARK    9  A    between atoms: C_14  and  O_42 
REMARK   10  A    between atoms: N_20  and  C_15 
REMARK   11  A    between atoms: C_17  and  N_30 
REMARK   12  A    between atoms: C_18  and  N_29 
REMARK   13  A    between atoms: P_43  and  O_37 
REMARK   14  A    between atoms: P_43  and  O_39 
REMARK   15  A    between atoms: P_43  and  O_42 
ROOT
HETATM    1  O   UNK N   1      36.151  14.533  10.235  0.00  0.00    -0.294 OA
ENDROOT
BRANCH   1   2
HETATM    2  C   UNK N   1      35.838  15.115   8.996  0.00  0.00     0.215 C 
BRANCH   2   3
HETATM    3  C   UNK N   1      34.352  15.401   8.895  0.00  0.00     0.180 C 
HETATM    4  C   UNK N   1      33.536  14.130   8.596  0.00  0.00     0.182 C 
HETATM    5  C   UNK N   1      33.016  14.434   7.221  0.00  0.00     0.198 C 
HETATM    6  C   UNK N   1      32.967  15.953   7.197  0.00  0.00     0.262 C 
HETATM    7  O   UNK N   1      34.148  16.344   7.854  0.00  0.00    -0.353 OA
BRANCH   4   8
HETATM    8  O   UNK N   1      32.478  14.023   9.503  0.00  0.00    -0.390 OA
HETATM    9  H   UNK N   1      32.146  14.200  10.398  0.00  0.00     0.210 HD
ENDBRANCH   4   8
BRANCH   5  10
HETATM   10  O   UNK N   1      31.823  13.785   6.899  0.00  0.00    -0.388 OA
HETATM   11  H   UNK N   1      31.024  14.227   6.572  0.00  0.00     0.210 HD
ENDBRANCH   5  10
BRANCH   6  12
HETATM   12  N   UNK N   1      31.813  16.625   7.827  0.00  0.00    -0.297 N 
HETATM   13  C   UNK N   1      31.862  17.466   8.896  0.00  0.00     0.188 A 
HETATM   14  N   UNK N   1      30.655  18.052   9.131  0.00  0.00    -0.346 N 
HETATM   15  C   UNK N   1      29.855  17.553   8.174  0.00  0.00     0.122 A 
ATOM     16  HN  UNK N   1      30.413  18.717   9.865  1.00  0.00     0.167 HD
HETATM   17  C   UNK N   1      28.530  17.838   7.888  0.00  0.00     0.131 A 
HETATM   18  C   UNK N   1      30.543  16.687   7.401  0.00  0.00     0.142 A 
HETATM   19  N   UNK N   1      27.951  17.199   6.830  0.00  0.00    -0.337 N 
HETATM   20  C   UNK N   1      28.667  16.307   6.065  0.00  0.00     0.183 A 
ATOM     21  HN  UNK N   1      26.974  17.384   6.603  1.00  0.00     0.168 HD
HETATM   22  N   UNK N   1      29.986  16.058   6.340  0.00  0.00    -0.336 N 
ATOM     23  HN  UNK N   1      30.531  15.419   5.762  1.00  0.00     0.168 HD
BRANCH  17  24
HETATM   24  N   UNK N   1      27.805  18.785   8.641  0.00  0.00    -0.383 N 
HETATM   25  H   UNK N   1      27.276  19.496   8.211  0.00  0.00     0.157 HD
HETATM   26  H   UNK N   1      27.828  18.735   9.624  0.00  0.00     0.157 HD
ENDBRANCH  17  24
ENDBRANCH   6  12
ENDBRANCH   2   3
ENDBRANCH   1   2
BRANCH   1  27
HETATM   27  P   UNK N   1      37.371  13.342   9.859  0.00  0.00     0.393 P 
HETATM   28  O   UNK N   1      38.297  13.122  11.086  0.00  0.00    -0.631 OA
BRANCH  27  29
HETATM   29  O   UNK N   1      38.130  14.887  10.089  0.00  0.00    -0.307 OA
HETATM   30  H   UNK N   1      38.546  15.606   9.589  0.00  0.00     0.222 HD
ENDBRANCH  27  29
BRANCH  27  31
HETATM   31  O   UNK N   1      36.292  12.634  11.055  0.00  0.00    -0.284 OA
BRANCH  31  32
HETATM   32  C   UNK N   1      36.385  11.214  11.008  0.00  0.00     0.214 C 
HETATM   33  C   UNK N   1      35.524  10.730   9.870  0.00  0.00     0.183 C 
HETATM   34  C   UNK N   1      34.159  10.881  10.529  0.00  0.00     0.179 C 
HETATM   35  O   UNK N   1      34.291  10.367  11.831  0.00  0.00    -0.353 OA
HETATM   36  C   UNK N   1      35.654  10.562  12.203  0.00  0.00     0.264 C 
BRANCH  33  37
HETATM   37  O   UNK N   1      35.805   9.384   9.610  0.00  0.00    -0.390 OA
HETATM   38  H   UNK N   1      35.643   8.489   9.272  0.00  0.00     0.210 HD
ENDBRANCH  33  37
BRANCH  34  39
HETATM   39  C   UNK N   1      33.013  10.216   9.766  0.00  0.00     0.198 C 
BRANCH  39  40
HETATM   40  O   UNK N   1      31.941  11.090   9.584  0.00  0.00    -0.398 OA
HETATM   41  H   UNK N   1      31.020  11.392   9.581  0.00  0.00     0.209 HD
ENDBRANCH  39  40
ENDBRANCH  34  39
BRANCH  36  42
HETATM   42  N   UNK N   1      35.749  11.387  13.425  0.00  0.00    -0.280 N 
HETATM   43  C   UNK N   1      34.622  11.997  13.893  0.00  0.00     0.103 A 
HETATM   44  C   UNK N   1      34.664  12.819  15.012  0.00  0.00     0.073 A 
HETATM   45  C   UNK N   1      35.879  13.012  15.654  0.00  0.00     0.144 A 
HETATM   46  N   UNK N   1      36.995  12.389  15.195  0.00  0.00    -0.289 N 
HETATM   47  C   UNK N   1      36.948  11.575  14.092  0.00  0.00     0.330 A 
ATOM     48  HN  UNK N   1      37.882  12.529  15.680  1.00  0.00     0.172 HD
HETATM   49  O   UNK N   1      37.967  11.029  13.707  0.00  0.00    -0.246 OA
BRANCH  45  50
HETATM   50  O   UNK N   1      35.947  13.815  16.726  0.00  0.00    -0.346 OA
HETATM   51  H   UNK N   1      35.225  14.279  17.102  0.00  0.00     0.219 HD
ENDBRANCH  45  50
ENDBRANCH  36  42
ENDBRANCH  31  32
ENDBRANCH  27  31
ENDBRANCH   1  27
TORSDOF 15
ENDMDL
MODEL 7
REMARK VINA RESULT:      -7.1      3.188      8.106
REMARK  15 active torsions:
REMARK  status: ('A' for Active; 'I' for Inactive)
REMARK    1  A    between atoms: C_7  and  C_3 
REMARK    2  A    between atoms: O_31  and  C_3 
REMARK    3  A    between atoms: C_8  and  C_4 
REMARK    4  A    between atoms: O_39  and  C_4 
REMARK    5  A    between atoms: O_32  and  C_9 
REMARK    6  A    between atoms: C_11  and  O_33 
REMARK    7  A    between atoms: C_12  and  O_34 
REMARK    8  A    between atoms: C_13  and  O_35 
REMARK    9  A    between atoms: C_14  and  O_42 
REMARK   10  A    between atoms: N_20  and  C_15 
REMARK   11  A    between atoms: C_17  and  N_30 
REMARK   12  A    between atoms: C_18  and  N_29 
REMARK   13  A    between atoms: P_43  and  O_37 
REMARK   14  A    between atoms: P_43  and  O_39 
REMARK   15  A    between atoms: P_43  and  O_42 
ROOT
HETATM    1  O   UNK N   1      36.264  12.868   7.846  0.00  0.00    -0.294 OA
ENDROOT
BRANCH   1   2
HETATM    2  C   UNK N   1      35.884  14.139   7.387  0.00  0.00     0.215 C 
BRANCH   2   3
HETATM    3  C   UNK N   1      34.691  14.041   6.455  0.00  0.00     0.180 C 
HETATM    4  C   UNK N   1      34.073  12.631   6.450  0.00  0.00     0.182 C 
HETATM    5  C   UNK N   1      34.368  12.187   5.047  0.00  0.00     0.198 C 
HETATM    6  C   UNK N   1      34.435  13.497   4.277  0.00  0.00     0.262 C 
HETATM    7  O   UNK N   1      35.122  14.367   5.142  0.00  0.00    -0.353 OA
BRANCH   4   8
HETATM    8  O   UNK N   1      32.692  12.719   6.652  0.00  0.00    -0.390 OA
HETATM    9  H   UNK N   1      31.818  12.892   6.266  0.00  0.00     0.210 HD
ENDBRANCH   4   8
BRANCH   5  10
HETATM   10  O   UNK N   1      33.480  11.235   4.544  0.00  0.00    -0.388 OA
HETATM   11  H   UNK N   1      32.859  10.720   5.082  0.00  0.00     0.210 HD
ENDBRANCH   5  10
BRANCH   6  12
HETATM   12  N   UNK N   1      33.168  14.125   3.855  0.00  0.00    -0.297 N 
HETATM   13  C   UNK N   1      32.048  13.469   3.443  0.00  0.00     0.188 A 
HETATM   14  N   UNK N   1      30.997  14.321   3.285  0.00  0.00    -0.346 N 
HETATM   15  C   UNK N   1      31.495  15.524   3.615  0.00  0.00     0.122 A 
ATOM     16  HN  UNK N   1      30.048  14.097   2.984  1.00  0.00     0.167 HD
HETATM   17  C   UNK N   1      30.863  16.755   3.693  0.00  0.00     0.131 A 
HETATM   18  C   UNK N   1      32.799  15.411   3.942  0.00  0.00     0.142 A 
HETATM   19  N   UNK N   1      31.605  17.832   4.082  0.00  0.00    -0.337 N 
HETATM   20  C   UNK N   1      32.937  17.696   4.396  0.00  0.00     0.183 A 
ATOM     21  HN  UNK N   1      31.167  18.751   4.140  1.00  0.00     0.168 HD
HETATM   22  N   UNK N   1      33.542  16.468   4.344  0.00  0.00    -0.336 N 
ATOM     23  HN  UNK N   1      34.523  16.354   4.600  1.00  0.00     0.168 HD
BRANCH  17  24
HETATM   24  N   UNK N   1      29.486  16.891   3.416  0.00  0.00    -0.383 N 
HETATM   25  H   UNK N   1      29.083  16.521   2.598  0.00  0.00     0.157 HD
HETATM   26  H   UNK N   1      28.914  17.368   4.059  0.00  0.00     0.157 HD
ENDBRANCH  17  24
ENDBRANCH   6  12
ENDBRANCH   2   3
ENDBRANCH   1   2
BRANCH   1  27
HETATM   27  P   UNK N   1      37.589  13.179   8.940  0.00  0.00     0.393 P 
HETATM   28  O   UNK N   1      37.736  14.706   9.178  0.00  0.00    -0.631 OA
BRANCH  27  29
HETATM   29  O   UNK N   1      37.981  13.809   7.369  0.00  0.00    -0.307 OA
HETATM   30  H   UNK N   1      38.722  13.884   6.749  0.00  0.00     0.222 HD
ENDBRANCH  27  29
BRANCH  27  31
HETATM   31  O   UNK N   1      36.102  13.600   9.780  0.00  0.00    -0.284 OA
BRANCH  31  32
HETATM   32  C   UNK N   1      36.409  14.267  11.000  0.00  0.00     0.214 C 
HETATM   33  C   UNK N   1      36.542  13.223  12.078  0.00  0.00     0.183 C 
HETATM   34  C   UNK N   1      35.065  12.931  12.306  0.00  0.00     0.179 C 
HETATM   35  O   UNK N   1      34.419  14.179  12.344  0.00  0.00    -0.353 OA
HETATM   36  C   UNK N   1      35.192  15.058  11.530  0.00  0.00     0.264 C 
BRANCH  33  37
HETATM   37  O   UNK N   1      37.117  13.799  13.218  0.00  0.00    -0.390 OA
HETATM   38  H   UNK N   1      37.831  14.111  13.795  0.00  0.00     0.210 HD
ENDBRANCH  33  37
BRANCH  34  39
HETATM   39  C   UNK N   1      34.772  12.097  13.552  0.00  0.00     0.198 C 
BRANCH  39  40
HETATM   40  O   UNK N   1      34.484  12.902  14.655  0.00  0.00    -0.398 OA
HETATM   41  H   UNK N   1      34.506  13.206  15.575  0.00  0.00     0.209 HD
ENDBRANCH  39  40
ENDBRANCH  34  39
BRANCH  36  42
HETATM   42  N   UNK N   1      34.373  15.612  10.434  0.00  0.00    -0.280 N 
HETATM   43  C   UNK N   1      33.277  14.913  10.017  0.00  0.00     0.103 A 
HETATM   44  C   UNK N   1      32.497  15.366   8.960  0.00  0.00     0.073 A 
HETATM   45  C   UNK N   1      32.851  16.551   8.330  0.00  0.00     0.144 A 
HETATM   46  N   UNK N   1      33.931  17.252   8.759  0.00  0.00    -0.289 N 
HETATM   47  C   UNK N   1      34.696  16.802   9.805  0.00  0.00     0.330 A 
ATOM     48  HN  UNK N   1      34.177  18.127   8.295  1.00  0.00     0.172 HD
HETATM   49  O   UNK N   1      35.658  17.456  10.167  0.00  0.00    -0.246 OA
BRANCH  45  50
HETATM   50  O   UNK N   1      32.122  16.999   7.296  0.00  0.00    -0.346 OA
HETATM   51  H   UNK N   1      31.186  17.026   7.264  0.00  0.00     0.219 HD
ENDBRANCH  45  50
ENDBRANCH  36  42
ENDBRANCH  31  32
ENDBRANCH  27  31
ENDBRANCH   1  27
TORSDOF 15
ENDMDL
MODEL 8
REMARK VINA RESULT:      -7.1     10.388     14.744
REMARK  15 active torsions:
REMARK  status: ('A' for Active; 'I' for Inactive)
REMARK    1  A    between atoms: C_7  and  C_3 
REMARK    2  A    between atoms: O_31  and  C_3 
REMARK    3  A    between atoms: C_8  and  C_4 
REMARK    4  A    between atoms: O_39  and  C_4 
REMARK    5  A    between atoms: O_32  and  C_9 
REMARK    6  A    between atoms: C_11  and  O_33 
REMARK    7  A    between atoms: C_12  and  O_34 
REMARK    8  A    between atoms: C_13  and  O_35 
REMARK    9  A    between atoms: C_14  and  O_42 
REMARK   10  A    between atoms: N_20  and  C_15 
REMARK   11  A    between atoms: C_17  and  N_30 
REMARK   12  A    between atoms: C_18  and  N_29 
REMARK   13  A    between atoms: P_43  and  O_37 
REMARK   14  A    between atoms: P_43  and  O_39 
REMARK   15  A    between atoms: P_43  and  O_42 
ROOT
HETATM    1  O   UNK N   1      21.423  15.715   7.496  0.00  0.00    -0.294 OA
ENDROOT
BRANCH   1   2
HETATM    2  C   UNK N   1      21.106  14.765   6.513  0.00  0.00     0.215 C 
BRANCH   2   3
HETATM    3  C   UNK N   1      20.641  15.442   5.238  0.00  0.00     0.180 C 
HETATM    4  C   UNK N   1      19.288  14.893   4.749  0.00  0.00     0.182 C 
HETATM    5  C   UNK N   1      19.690  14.227   3.466  0.00  0.00     0.198 C 
HETATM    6  C   UNK N   1      20.918  15.014   3.036  0.00  0.00     0.262 C 
HETATM    7  O   UNK N   1      21.622  15.228   4.235  0.00  0.00    -0.353 OA
BRANCH   4   8
HETATM    8  O   UNK N   1      18.412  15.952   4.494  0.00  0.00    -0.390 OA
HETATM    9  H   UNK N   1      18.298  16.859   4.168  0.00  0.00     0.210 HD
ENDBRANCH   4   8
BRANCH   5  10
HETATM   10  O   UNK N   1      18.668  14.136   2.519  0.00  0.00    -0.388 OA
HETATM   11  H   UNK N   1      18.801  14.153   1.559  0.00  0.00     0.210 HD
ENDBRANCH   5  10
BRANCH   6  12
HETATM   12  N   UNK N   1      20.715  16.305   2.351  0.00  0.00    -0.297 N 
HETATM   13  C   UNK N   1      19.816  16.552   1.358  0.00  0.00     0.188 A 
HETATM   14  N   UNK N   1      19.757  17.879   1.053  0.00  0.00    -0.346 N 
HETATM   15  C   UNK N   1      20.642  18.449   1.886  0.00  0.00     0.122 A 
ATOM     16  HN  UNK N   1      19.173  18.335   0.351  1.00  0.00     0.167 HD
HETATM   17  C   UNK N   1      20.960  19.786   2.063  0.00  0.00     0.131 A 
HETATM   18  C   UNK N   1      21.228  17.506   2.654  0.00  0.00     0.142 A 
HETATM   19  N   UNK N   1      21.893  20.103   3.008  0.00  0.00    -0.337 N 
HETATM   20  C   UNK N   1      22.489  19.124   3.768  0.00  0.00     0.183 A 
ATOM     21  HN  UNK N   1      22.151  21.078   3.152  1.00  0.00     0.168 HD
HETATM   22  N   UNK N   1      22.142  17.809   3.605  0.00  0.00    -0.336 N 
ATOM     23  HN  UNK N   1      22.560  17.080   4.182  1.00  0.00     0.168 HD
BRANCH  17  24
HETATM   24  N   UNK N   1      20.318  20.797   1.317  0.00  0.00    -0.383 N 
HETATM   25  H   UNK N   1      19.813  21.522   1.753  0.00  0.00     0.157 HD
HETATM   26  H   UNK N   1      20.376  20.777   0.335  0.00  0.00     0.157 HD
ENDBRANCH  17  24
ENDBRANCH   6  12
ENDBRANCH   2   3
ENDBRANCH   1   2
BRANCH   1  27
HETATM   27  P   UNK N   1      20.884  14.992   8.991  0.00  0.00     0.393 P 
HETATM   28  O   UNK N   1      19.975  13.770   8.693  0.00  0.00    -0.631 OA
BRANCH  27  29
HETATM   29  O   UNK N   1      19.521  15.680   8.160  0.00  0.00    -0.307 OA
HETATM   30  H   UNK N   1      19.306  16.253   7.409  0.00  0.00     0.222 HD
ENDBRANCH  27  29
BRANCH  27  31
HETATM   31  O   UNK N   1      21.981  13.854   8.219  0.00  0.00    -0.284 OA
BRANCH  31  32
HETATM   32  C   UNK N   1      21.845  12.570   8.821  0.00  0.00     0.214 C 
HETATM   33  C   UNK N   1      22.428  12.644  10.208  0.00  0.00     0.183 C 
HETATM   34  C   UNK N   1      23.906  12.607   9.845  0.00  0.00     0.179 C 
HETATM   35  O   UNK N   1      24.046  11.604   8.869  0.00  0.00    -0.353 OA
HETATM   36  C   UNK N   1      22.802  11.542   8.175  0.00  0.00     0.264 C 
BRANCH  33  37
HETATM   37  O   UNK N   1      22.064  11.501  10.930  0.00  0.00    -0.390 OA
HETATM   38  H   UNK N   1      21.889  10.558  11.077  0.00  0.00     0.210 HD
ENDBRANCH  33  37
BRANCH  34  39
HETATM   39  C   UNK N   1      24.843  12.384  11.031  0.00  0.00     0.198 C 
BRANCH  39  40
HETATM   40  O   UNK N   1      25.832  13.366  11.099  0.00  0.00    -0.398 OA
HETATM   41  H   UNK N   1      26.549  13.893  11.483  0.00  0.00     0.209 HD
ENDBRANCH  39  40
ENDBRANCH  34  39
BRANCH  36  42
HETATM   42  N   UNK N   1      22.993  11.796   6.733  0.00  0.00    -0.280 N 
HETATM   43  C   UNK N   1      24.150  12.391   6.321  0.00  0.00     0.103 A 
HETATM   44  C   UNK N   1      24.363  12.694   4.982  0.00  0.00     0.073 A 
HETATM   45  C   UNK N   1      23.374  12.378   4.061  0.00  0.00     0.144 A 
HETATM   46  N   UNK N   1      22.232  11.770   4.473  0.00  0.00    -0.289 N 
HETATM   47  C   UNK N   1      22.028  11.470   5.796  0.00  0.00     0.330 A 
ATOM     48  HN  UNK N   1      21.515  11.533   3.787  1.00  0.00     0.172 HD
HETATM   49  O   UNK N   1      20.993  10.923   6.132  0.00  0.00    -0.246 OA
BRANCH  45  50
HETATM   50  O   UNK N   1      23.550  12.675   2.765  0.00  0.00    -0.346 OA
HETATM   51  H   UNK N   1      23.210  12.182   2.044  0.00  0.00     0.219 HD
ENDBRANCH  45  50
ENDBRANCH  36  42
ENDBRANCH  31  32
ENDBRANCH  27  31
ENDBRANCH   1  27
TORSDOF 15
ENDMDL
MODEL 9
REMARK VINA RESULT:      -7.1      3.141      5.523
REMARK  15 active torsions:
REMARK  status: ('A' for Active; 'I' for Inactive)
REMARK    1  A    between atoms: C_7  and  C_3 
REMARK    2  A    between atoms: O_31  and  C_3 
REMARK    3  A    between atoms: C_8  and  C_4 
REMARK    4  A    between atoms: O_39  and  C_4 
REMARK    5  A    between atoms: O_32  and  C_9 
REMARK    6  A    between atoms: C_11  and  O_33 
REMARK    7  A    between atoms: C_12  and  O_34 
REMARK    8  A    between atoms: C_13  and  O_35 
REMARK    9  A    between atoms: C_14  and  O_42 
REMARK   10  A    between atoms: N_20  and  C_15 
REMARK   11  A    between atoms: C_17  and  N_30 
REMARK   12  A    between atoms: C_18  and  N_29 
REMARK   13  A    between atoms: P_43  and  O_37 
REMARK   14  A    between atoms: P_43  and  O_39 
REMARK   15  A    between atoms: P_43  and  O_42 
ROOT
HETATM    1  O   UNK N   1      30.145  16.182   5.885  0.00  0.00    -0.294 OA
ENDROOT
BRANCH   1   2
HETATM    2  C   UNK N   1      31.263  16.940   5.502  0.00  0.00     0.215 C 
BRANCH   2   3
HETATM    3  C   UNK N   1      32.407  16.744   6.478  0.00  0.00     0.180 C 
HETATM    4  C   UNK N   1      33.778  16.994   5.822  0.00  0.00     0.182 C 
HETATM    5  C   UNK N   1      34.377  15.618   5.866  0.00  0.00     0.198 C 
HETATM    6  C   UNK N   1      33.692  14.981   7.065  0.00  0.00     0.262 C 
HETATM    7  O   UNK N   1      32.357  15.412   6.964  0.00  0.00    -0.353 OA
BRANCH   4   8
HETATM    8  O   UNK N   1      34.525  17.875   6.608  0.00  0.00    -0.390 OA
HETATM    9  H   UNK N   1      34.577  18.742   7.041  0.00  0.00     0.210 HD
ENDBRANCH   4   8
BRANCH   5  10
HETATM   10  O   UNK N   1      35.772  15.597   5.886  0.00  0.00    -0.388 OA
HETATM   11  H   UNK N   1      36.339  15.791   5.124  0.00  0.00     0.210 HD
ENDBRANCH   5  10
BRANCH   6  12
HETATM   12  N   UNK N   1      34.206  15.293   8.412  0.00  0.00    -0.297 N 
HETATM   13  C   UNK N   1      33.513  15.906   9.412  0.00  0.00     0.188 A 
HETATM   14  N   UNK N   1      34.209  15.898  10.583  0.00  0.00    -0.346 N 
HETATM   15  C   UNK N   1      35.352  15.260  10.283  0.00  0.00     0.122 A 
ATOM     16  HN  UNK N   1      33.927  16.289  11.482  1.00  0.00     0.167 HD
HETATM   17  C   UNK N   1      36.414  14.911  11.102  0.00  0.00     0.131 A 
HETATM   18  C   UNK N   1      35.359  14.910   8.980  0.00  0.00     0.142 A 
HETATM   19  N   UNK N   1      37.459  14.235  10.542  0.00  0.00    -0.337 N 
HETATM   20  C   UNK N   1      37.452  13.903   9.208  0.00  0.00     0.183 A 
ATOM     21  HN  UNK N   1      38.257  13.973  11.121  1.00  0.00     0.168 HD
HETATM   22  N   UNK N   1      36.382  14.227   8.416  0.00  0.00    -0.336 N 
ATOM     23  HN  UNK N   1      36.357  13.961   7.432  1.00  0.00     0.168 HD
BRANCH  17  24
HETATM   24  N   UNK N   1      36.405  15.209  12.481  0.00  0.00    -0.383 N 
HETATM   25  H   UNK N   1      37.129  14.915  13.081  0.00  0.00     0.157 HD
HETATM   26  H   UNK N   1      35.655  15.726  12.854  0.00  0.00     0.157 HD
ENDBRANCH  17  24
ENDBRANCH   6  12
ENDBRANCH   2   3
ENDBRANCH   1   2
BRANCH   1  27
HETATM   27  P   UNK N   1      29.514  15.550   4.385  0.00  0.00     0.393 P 
HETATM   28  O   UNK N   1      28.376  14.534   4.672  0.00  0.00    -0.631 OA
BRANCH  27  29
HETATM   29  O   UNK N   1      30.307  14.275   5.257  0.00  0.00    -0.307 OA
HETATM   30  H   UNK N   1      31.186  14.001   5.562  0.00  0.00     0.222 HD
ENDBRANCH  27  29
BRANCH  27  31
HETATM   31  O   UNK N   1      28.257  16.546   5.108  0.00  0.00    -0.284 OA
BRANCH  31  32
HETATM   32  C   UNK N   1      27.910  17.604   4.220  0.00  0.00     0.214 C 
HETATM   33  C   UNK N   1      28.334  18.902   4.856  0.00  0.00     0.183 C 
HETATM   34  C   UNK N   1      27.212  19.040   5.877  0.00  0.00     0.179 C 
HETATM   35  O   UNK N   1      26.022  18.724   5.199  0.00  0.00    -0.353 OA
HETATM   36  C   UNK N   1      26.379  17.812   4.163  0.00  0.00     0.264 C 
BRANCH  33  37
HETATM   37  O   UNK N   1      28.272  19.930   3.908  0.00  0.00    -0.390 OA
HETATM   38  H   UNK N   1      28.607  20.653   3.354  0.00  0.00     0.210 HD
ENDBRANCH  33  37
BRANCH  34  39
HETATM   39  C   UNK N   1      27.138  20.409   6.552  0.00  0.00     0.198 C 
BRANCH  39  40
HETATM   40  O   UNK N   1      26.444  21.333   5.769  0.00  0.00    -0.398 OA
HETATM   41  H   UNK N   1      26.089  22.193   5.499  0.00  0.00     0.209 HD
ENDBRANCH  39  40
ENDBRANCH  34  39
BRANCH  36  42
HETATM   42  N   UNK N   1      25.644  16.539   4.309  0.00  0.00    -0.280 N 
HETATM   43  C   UNK N   1      25.141  16.211   5.534  0.00  0.00     0.103 A 
HETATM   44  C   UNK N   1      24.479  15.006   5.738  0.00  0.00     0.073 A 
HETATM   45  C   UNK N   1      24.335  14.135   4.668  0.00  0.00     0.144 A 
HETATM   46  N   UNK N   1      24.822  14.473   3.446  0.00  0.00    -0.289 N 
HETATM   47  C   UNK N   1      25.471  15.665   3.249  0.00  0.00     0.330 A 
ATOM     48  HN  UNK N   1      24.703  13.830   2.663  1.00  0.00     0.172 HD
HETATM   49  O   UNK N   1      25.895  15.940   2.141  0.00  0.00    -0.246 OA
BRANCH  45  50
HETATM   50  O   UNK N   1      23.715  12.958   4.844  0.00  0.00    -0.346 OA
HETATM   51  H   UNK N   1      22.831  12.769   4.597  0.00  0.00     0.219 HD
ENDBRANCH  45  50
ENDBRANCH  36  42
ENDBRANCH  31  32
ENDBRANCH  27  31
ENDBRANCH   1  27
TORSDOF 15
ENDMDL
