MODEL 1
REMARK VINA RESULT:      -6.6      0.000      0.000
REMARK  10 active torsions:
REMARK  status: ('A' for Active; 'I' for Inactive)
REMARK    1  A    between atoms: C_7  and  C_6 
REMARK    2  A    between atoms: C_12  and  C_6 
REMARK    3  A    between atoms: S_25  and  C_7 
REMARK    4  A    between atoms: C_10  and  C_8 
REMARK    5  A    between atoms: C_14  and  C_9 
REMARK    6  A    between atoms: N_20  and  C_9 
REMARK    7  A    between atoms: O_21  and  C_11 
REMARK    8  A    between atoms: C_15  and  C_12 
REMARK    9  A    between atoms: C_12  and  N_17 
REMARK   10  A    between atoms: O_23  and  C_14 
ROOT
HETATM    1  C   UNK N   1      26.573  20.013   4.514  0.00  0.00     0.046 C 
HETATM    2  C   UNK N   1      25.286  19.632   4.402  0.00  0.00     0.103 A 
HETATM    3  C   UNK N   1      23.468  18.453   4.711  0.00  0.00     0.110 A 
HETATM    4  C   UNK N   1      24.300  20.079   3.436  0.00  0.00     0.276 A 
HETATM    5  N   UNK N   1      24.658  18.628   5.175  0.00  0.00    -0.340 N 
ATOM      6  HN  UNK N   1      25.075  18.128   5.960  1.00  0.00     0.167 HD
HETATM    7  N   UNK N   1      23.192  19.336   3.619  0.00  0.00    -0.290 N 
HETATM    8  O   UNK N   1      24.444  20.924   2.566  0.00  0.00    -0.265 OA
ENDROOT
BRANCH   1   9
HETATM    9  C   UNK N   1      27.535  19.375   5.455  0.00  0.00    -0.034 A 
HETATM   10  C   UNK N   1      27.592  19.731   6.814  0.00  0.00     0.014 A 
HETATM   11  C   UNK N   1      28.438  19.056   7.694  0.00  0.00     0.037 A 
HETATM   12  C   UNK N   1      29.233  18.009   7.228  0.00  0.00     0.065 A 
HETATM   13  C   UNK N   1      29.194  17.650   5.877  0.00  0.00     0.037 A 
HETATM   14  C   UNK N   1      28.347  18.330   4.994  0.00  0.00     0.014 A 
BRANCH  12  15
HETATM   15  O   UNK N   1      30.032  17.345   8.078  0.00  0.00    -0.361 OA
HETATM   16  H   UNK N   1      30.710  17.791   8.547  0.00  0.00     0.217 HD
ENDBRANCH  12  15
ENDBRANCH   1   9
BRANCH   7  17
HETATM   17  C   UNK N   1      21.984  19.389   2.820  0.00  0.00     0.243 C 
BRANCH  17  18
HETATM   18  C   UNK N   1      21.173  20.614   3.104  0.00  0.00     0.158 C 
HETATM   19  O   UNK N   1      20.230  20.548   3.875  0.00  0.00    -0.649 OA
BRANCH  18  20
HETATM   20  O   UNK N   1      21.447  21.775   2.482  0.00  0.00    -0.775 OA
HETATM   21  H   UNK N   1      21.136  21.926   1.611  0.00  0.00     0.167 HD
ENDBRANCH  18  20
ENDBRANCH  17  18
ENDBRANCH   7  17
BRANCH   3  22
HETATM   22  C   UNK N   1      22.533  17.421   5.315  0.00  0.00     0.143 C 
BRANCH  22  23
HETATM   23  C   UNK N   1      21.477  18.074   6.211  0.00  0.00     0.042 C 
BRANCH  23  24
HETATM   24  C   UNK N   1      20.419  17.056   6.633  0.00  0.00     0.076 C 
BRANCH  24  25
HETATM   25  S   UNK N   1      19.996  17.254   8.384  0.00  0.00    -0.173 SA
HETATM   26  C   UNK N   1      20.681  15.631   8.815  0.00  0.00     0.089 C 
ENDBRANCH  24  25
ENDBRANCH  23  24
ENDBRANCH  22  23
BRANCH  22  27
HETATM   27  N   UNK N   1      23.253  16.428   6.089  0.00  0.00    -0.420 N 
HETATM   28  H   UNK N   1      23.642  15.572   5.691  0.00  0.00     0.150 HD
HETATM   29  H   UNK N   1      23.377  16.593   7.088  0.00  0.00     0.150 HD
ENDBRANCH  22  27
ENDBRANCH   3  22
TORSDOF 10
ENDMDL
MODEL 2
REMARK VINA RESULT:      -6.2      1.272      1.381
REMARK  10 active torsions:
REMARK  status: ('A' for Active; 'I' for Inactive)
REMARK    1  A    between atoms: C_7  and  C_6 
REMARK    2  A    between atoms: C_12  and  C_6 
REMARK    3  A    between atoms: S_25  and  C_7 
REMARK    4  A    between atoms: C_10  and  C_8 
REMARK    5  A    between atoms: C_14  and  C_9 
REMARK    6  A    between atoms: N_20  and  C_9 
REMARK    7  A    between atoms: O_21  and  C_11 
REMARK    8  A    between atoms: C_15  and  C_12 
REMARK    9  A    between atoms: C_12  and  N_17 
REMARK   10  A    between atoms: O_23  and  C_14 
ROOT
HETATM    1  C   UNK N   1      26.488  20.124   4.386  0.00  0.00     0.046 C 
HETATM    2  C   UNK N   1      25.193  19.769   4.275  0.00  0.00     0.103 A 
HETATM    3  C   UNK N   1      23.340  18.658   4.622  0.00  0.00     0.110 A 
HETATM    4  C   UNK N   1      24.234  20.184   3.268  0.00  0.00     0.276 A 
HETATM    5  N   UNK N   1      24.528  18.829   5.094  0.00  0.00    -0.340 N 
ATOM      6  HN  UNK N   1      24.920  18.366   5.915  1.00  0.00     0.167 HD
HETATM    7  N   UNK N   1      23.104  19.481   3.476  0.00  0.00    -0.290 N 
HETATM    8  O   UNK N   1      24.413  20.972   2.353  0.00  0.00    -0.265 OA
ENDROOT
BRANCH   1   9
HETATM    9  C   UNK N   1      27.418  19.519   5.378  0.00  0.00    -0.034 A 
HETATM   10  C   UNK N   1      27.451  19.939   6.719  0.00  0.00     0.014 A 
HETATM   11  C   UNK N   1      28.267  19.295   7.650  0.00  0.00     0.037 A 
HETATM   12  C   UNK N   1      29.056  18.216   7.253  0.00  0.00     0.065 A 
HETATM   13  C   UNK N   1      29.041  17.792   5.920  0.00  0.00     0.037 A 
HETATM   14  C   UNK N   1      28.224  18.441   4.987  0.00  0.00     0.014 A 
BRANCH  12  15
HETATM   15  O   UNK N   1      29.825  17.582   8.152  0.00  0.00    -0.361 OA
HETATM   16  H   UNK N   1      29.447  17.000   8.783  0.00  0.00     0.217 HD
ENDBRANCH  12  15
ENDBRANCH   1   9
BRANCH   7  17
HETATM   17  C   UNK N   1      21.911  19.517   2.656  0.00  0.00     0.243 C 
BRANCH  17  18
HETATM   18  C   UNK N   1      21.050  20.704   2.963  0.00  0.00     0.158 C 
HETATM   19  O   UNK N   1      20.313  20.678   3.933  0.00  0.00    -0.649 OA
BRANCH  18  20
HETATM   20  O   UNK N   1      21.051  21.777   2.151  0.00  0.00    -0.775 OA
HETATM   21  H   UNK N   1      21.390  21.706   1.281  0.00  0.00     0.167 HD
ENDBRANCH  18  20
ENDBRANCH  17  18
ENDBRANCH   7  17
BRANCH   3  22
HETATM   22  C   UNK N   1      22.369  17.687   5.270  0.00  0.00     0.143 C 
BRANCH  22  23
HETATM   23  C   UNK N   1      21.947  16.581   4.298  0.00  0.00     0.042 C 
BRANCH  23  24
HETATM   24  C   UNK N   1      22.016  15.212   4.972  0.00  0.00     0.076 C 
BRANCH  24  25
HETATM   25  S   UNK N   1      23.144  15.249   6.391  0.00  0.00    -0.173 SA
HETATM   26  C   UNK N   1      21.828  14.789   7.551  0.00  0.00     0.089 C 
ENDBRANCH  24  25
ENDBRANCH  23  24
ENDBRANCH  22  23
BRANCH  22  27
HETATM   27  N   UNK N   1      21.180  18.358   5.758  0.00  0.00    -0.420 N 
HETATM   28  H   UNK N   1      20.865  19.269   5.423  0.00  0.00     0.150 HD
HETATM   29  H   UNK N   1      20.626  17.894   6.479  0.00  0.00     0.150 HD
ENDBRANCH  22  27
ENDBRANCH   3  22
TORSDOF 10
ENDMDL
MODEL 3
REMARK VINA RESULT:      -5.9      8.714     12.745
REMARK  10 active torsions:
REMARK  status: ('A' for Active; 'I' for Inactive)
REMARK    1  A    between atoms: C_7  and  C_6 
REMARK    2  A    between atoms: C_12  and  C_6 
REMARK    3  A    between atoms: S_25  and  C_7 
REMARK    4  A    between atoms: C_10  and  C_8 
REMARK    5  A    between atoms: C_14  and  C_9 
REMARK    6  A    between atoms: N_20  and  C_9 
REMARK    7  A    between atoms: O_21  and  C_11 
REMARK    8  A    between atoms: C_15  and  C_12 
REMARK    9  A    between atoms: C_12  and  N_17 
REMARK   10  A    between atoms: O_23  and  C_14 
ROOT
HETATM    1  C   UNK N   1      33.757  17.572   7.979  0.00  0.00     0.046 C 
HETATM    2  C   UNK N   1      34.449  16.561   8.539  0.00  0.00     0.103 A 
HETATM    3  C   UNK N   1      35.151  14.522   8.911  0.00  0.00     0.110 A 
HETATM    4  C   UNK N   1      35.211  16.574   9.775  0.00  0.00     0.276 A 
HETATM    5  N   UNK N   1      34.493  15.233   8.059  0.00  0.00    -0.340 N 
ATOM      6  HN  UNK N   1      34.076  14.895   7.191  1.00  0.00     0.167 HD
HETATM    7  N   UNK N   1      35.621  15.312  10.007  0.00  0.00    -0.290 N 
HETATM    8  O   UNK N   1      35.402  17.524  10.519  0.00  0.00    -0.265 OA
ENDROOT
BRANCH   1   9
HETATM    9  C   UNK N   1      32.890  17.402   6.781  0.00  0.00    -0.034 A 
HETATM   10  C   UNK N   1      31.505  17.185   6.890  0.00  0.00     0.014 A 
HETATM   11  C   UNK N   1      30.700  17.120   5.753  0.00  0.00     0.037 A 
HETATM   12  C   UNK N   1      31.269  17.279   4.489  0.00  0.00     0.065 A 
HETATM   13  C   UNK N   1      32.646  17.486   4.364  0.00  0.00     0.037 A 
HETATM   14  C   UNK N   1      33.453  17.549   5.506  0.00  0.00     0.014 A 
BRANCH  12  15
HETATM   15  O   UNK N   1      30.492  17.238   3.395  0.00  0.00    -0.361 OA
HETATM   16  H   UNK N   1      30.643  16.603   2.723  0.00  0.00     0.217 HD
ENDBRANCH  12  15
ENDBRANCH   1   9
BRANCH   7  17
HETATM   17  C   UNK N   1      36.346  14.849  11.172  0.00  0.00     0.243 C 
BRANCH  17  18
HETATM   18  C   UNK N   1      35.430  14.346  12.244  0.00  0.00     0.158 C 
HETATM   19  O   UNK N   1      35.862  14.163  13.369  0.00  0.00    -0.649 OA
BRANCH  18  20
HETATM   20  O   UNK N   1      34.147  14.053  11.964  0.00  0.00    -0.775 OA
HETATM   21  H   UNK N   1      33.574  13.758  12.644  0.00  0.00     0.167 HD
ENDBRANCH  18  20
ENDBRANCH  17  18
ENDBRANCH   7  17
BRANCH   3  22
HETATM   22  C   UNK N   1      35.363  13.034   8.695  0.00  0.00     0.143 C 
BRANCH  22  23
HETATM   23  C   UNK N   1      35.258  12.660   7.214  0.00  0.00     0.042 C 
BRANCH  23  24
HETATM   24  C   UNK N   1      36.646  12.509   6.594  0.00  0.00     0.076 C 
BRANCH  24  25
HETATM   25  S   UNK N   1      37.084  13.981   5.630  0.00  0.00    -0.173 SA
HETATM   26  C   UNK N   1      35.478  14.006   4.790  0.00  0.00     0.089 C 
ENDBRANCH  24  25
ENDBRANCH  23  24
ENDBRANCH  22  23
BRANCH  22  27
HETATM   27  N   UNK N   1      34.409  12.239   9.446  0.00  0.00    -0.420 N 
HETATM   28  H   UNK N   1      33.897  12.586  10.258  0.00  0.00     0.150 HD
HETATM   29  H   UNK N   1      34.241  11.278   9.146  0.00  0.00     0.150 HD
ENDBRANCH  22  27
ENDBRANCH   3  22
TORSDOF 10
ENDMDL
MODEL 4
REMARK VINA RESULT:      -5.9      2.004      2.551
REMARK  10 active torsions:
REMARK  status: ('A' for Active; 'I' for Inactive)
REMARK    1  A    between atoms: C_7  and  C_6 
REMARK    2  A    between atoms: C_12  and  C_6 
REMARK    3  A    between atoms: S_25  and  C_7 
REMARK    4  A    between atoms: C_10  and  C_8 
REMARK    5  A    between atoms: C_14  and  C_9 
REMARK    6  A    between atoms: N_20  and  C_9 
REMARK    7  A    between atoms: O_21  and  C_11 
REMARK    8  A    between atoms: C_15  and  C_12 
REMARK    9  A    between atoms: C_12  and  N_17 
REMARK   10  A    between atoms: O_23  and  C_14 
ROOT
HETATM    1  C   UNK N   1      24.610  20.360   3.334  0.00  0.00     0.046 C 
HETATM    2  C   UNK N   1      23.399  19.776   3.411  0.00  0.00     0.103 A 
HETATM    3  C   UNK N   1      21.842  18.369   4.032  0.00  0.00     0.110 A 
HETATM    4  C   UNK N   1      22.254  19.968   2.539  0.00  0.00     0.276 A 
HETATM    5  N   UNK N   1      23.031  18.769   4.332  0.00  0.00    -0.340 N 
ATOM      6  HN  UNK N   1      23.606  18.419   5.099  1.00  0.00     0.167 HD
HETATM    7  N   UNK N   1      21.309  19.086   2.915  0.00  0.00    -0.290 N 
HETATM    8  O   UNK N   1      22.164  20.735   1.592  0.00  0.00    -0.265 OA
ENDROOT
BRANCH   1   9
HETATM    9  C   UNK N   1      25.759  19.974   4.199  0.00  0.00    -0.034 A 
HETATM   10  C   UNK N   1      26.047  20.649   5.398  0.00  0.00     0.014 A 
HETATM   11  C   UNK N   1      27.073  20.212   6.235  0.00  0.00     0.037 A 
HETATM   12  C   UNK N   1      27.821  19.087   5.889  0.00  0.00     0.065 A 
HETATM   13  C   UNK N   1      27.552  18.410   4.695  0.00  0.00     0.037 A 
HETATM   14  C   UNK N   1      26.524  18.852   3.854  0.00  0.00     0.014 A 
BRANCH  12  15
HETATM   15  O   UNK N   1      28.794  18.653   6.705  0.00  0.00    -0.361 OA
HETATM   16  H   UNK N   1      28.949  17.736   6.822  0.00  0.00     0.217 HD
ENDBRANCH  12  15
ENDBRANCH   1   9
BRANCH   7  17
HETATM   17  C   UNK N   1      20.031  18.873   2.268  0.00  0.00     0.243 C 
BRANCH  17  18
HETATM   18  C   UNK N   1      20.044  17.672   1.373  0.00  0.00     0.158 C 
HETATM   19  O   UNK N   1      20.452  17.778   0.229  0.00  0.00    -0.649 OA
BRANCH  18  20
HETATM   20  O   UNK N   1      19.568  16.491   1.807  0.00  0.00    -0.775 OA
HETATM   21  H   UNK N   1      19.145  15.907   1.209  0.00  0.00     0.167 HD
ENDBRANCH  18  20
ENDBRANCH  17  18
ENDBRANCH   7  17
BRANCH   3  22
HETATM   22  C   UNK N   1      21.160  17.270   4.827  0.00  0.00     0.143 C 
BRANCH  22  23
HETATM   23  C   UNK N   1      21.499  17.360   6.318  0.00  0.00     0.042 C 
BRANCH  23  24
HETATM   24  C   UNK N   1      21.884  15.988   6.869  0.00  0.00     0.076 C 
BRANCH  24  25
HETATM   25  S   UNK N   1      20.839  15.546   8.283  0.00  0.00    -0.173 SA
HETATM   26  C   UNK N   1      20.032  17.170   8.296  0.00  0.00     0.089 C 
ENDBRANCH  24  25
ENDBRANCH  23  24
ENDBRANCH  22  23
BRANCH  22  27
HETATM   27  N   UNK N   1      21.522  15.950   4.345  0.00  0.00    -0.420 N 
HETATM   28  H   UNK N   1      21.569  15.123   4.940  0.00  0.00     0.150 HD
HETATM   29  H   UNK N   1      21.743  15.843   3.354  0.00  0.00     0.150 HD
ENDBRANCH  22  27
ENDBRANCH   3  22
TORSDOF 10
ENDMDL
MODEL 5
REMARK VINA RESULT:      -5.7      8.569     12.795
REMARK  10 active torsions:
REMARK  status: ('A' for Active; 'I' for Inactive)
REMARK    1  A    between atoms: C_7  and  C_6 
REMARK    2  A    between atoms: C_12  and  C_6 
REMARK    3  A    between atoms: S_25  and  C_7 
REMARK    4  A    between atoms: C_10  and  C_8 
REMARK    5  A    between atoms: C_14  and  C_9 
REMARK    6  A    between atoms: N_20  and  C_9 
REMARK    7  A    between atoms: O_21  and  C_11 
REMARK    8  A    between atoms: C_15  and  C_12 
REMARK    9  A    between atoms: C_12  and  N_17 
REMARK   10  A    between atoms: O_23  and  C_14 
ROOT
HETATM    1  C   UNK N   1      33.846  17.601   7.657  0.00  0.00     0.046 C 
HETATM    2  C   UNK N   1      34.182  16.533   8.406  0.00  0.00     0.103 A 
HETATM    3  C   UNK N   1      34.184  14.475   9.149  0.00  0.00     0.110 A 
HETATM    4  C   UNK N   1      34.938  16.511   9.645  0.00  0.00     0.276 A 
HETATM    5  N   UNK N   1      33.774  15.202   8.165  0.00  0.00    -0.340 N 
ATOM      6  HN  UNK N   1      33.246  14.874   7.356  1.00  0.00     0.167 HD
HETATM    7  N   UNK N   1      34.917  15.246  10.106  0.00  0.00    -0.290 N 
HETATM    8  O   UNK N   1      35.450  17.460  10.218  0.00  0.00    -0.265 OA
ENDROOT
BRANCH   1   9
HETATM    9  C   UNK N   1      32.940  17.518   6.478  0.00  0.00    -0.034 A 
HETATM   10  C   UNK N   1      33.428  17.561   5.160  0.00  0.00     0.014 A 
HETATM   11  C   UNK N   1      32.568  17.391   4.074  0.00  0.00     0.037 A 
HETATM   12  C   UNK N   1      31.209  17.168   4.293  0.00  0.00     0.065 A 
HETATM   13  C   UNK N   1      30.707  17.133   5.597  0.00  0.00     0.037 A 
HETATM   14  C   UNK N   1      31.570  17.306   6.686  0.00  0.00     0.014 A 
BRANCH  12  15
HETATM   15  O   UNK N   1      30.385  16.983   3.249  0.00  0.00    -0.361 OA
HETATM   16  H   UNK N   1      30.618  17.286   2.394  0.00  0.00     0.217 HD
ENDBRANCH  12  15
ENDBRANCH   1   9
BRANCH   7  17
HETATM   17  C   UNK N   1      35.480  14.781  11.357  0.00  0.00     0.243 C 
BRANCH  17  18
HETATM   18  C   UNK N   1      36.855  14.216  11.182  0.00  0.00     0.158 C 
HETATM   19  O   UNK N   1      37.465  14.422  10.147  0.00  0.00    -0.649 OA
BRANCH  18  20
HETATM   20  O   UNK N   1      37.404  13.445  12.139  0.00  0.00    -0.775 OA
HETATM   21  H   UNK N   1      38.288  13.592  12.410  0.00  0.00     0.167 HD
ENDBRANCH  18  20
ENDBRANCH  17  18
ENDBRANCH   7  17
BRANCH   3  22
HETATM   22  C   UNK N   1      33.889  12.987   9.202  0.00  0.00     0.143 C 
BRANCH  22  23
HETATM   23  C   UNK N   1      34.516  12.246   8.017  0.00  0.00     0.042 C 
BRANCH  23  24
HETATM   24  C   UNK N   1      35.940  11.804   8.347  0.00  0.00     0.076 C 
BRANCH  24  25
HETATM   25  S   UNK N   1      35.966  10.770   9.835  0.00  0.00    -0.173 SA
HETATM   26  C   UNK N   1      37.779  10.725   9.869  0.00  0.00     0.089 C 
ENDBRANCH  24  25
ENDBRANCH  23  24
ENDBRANCH  22  23
BRANCH  22  27
HETATM   27  N   UNK N   1      32.463  12.719   9.218  0.00  0.00    -0.420 N 
HETATM   28  H   UNK N   1      32.063  11.780   9.208  0.00  0.00     0.150 HD
HETATM   29  H   UNK N   1      31.824  13.515   9.241  0.00  0.00     0.150 HD
ENDBRANCH  22  27
ENDBRANCH   3  22
TORSDOF 10
ENDMDL
MODEL 6
REMARK VINA RESULT:      -5.7      8.874     12.529
REMARK  10 active torsions:
REMARK  status: ('A' for Active; 'I' for Inactive)
REMARK    1  A    between atoms: C_7  and  C_6 
REMARK    2  A    between atoms: C_12  and  C_6 
REMARK    3  A    between atoms: S_25  and  C_7 
REMARK    4  A    between atoms: C_10  and  C_8 
REMARK    5  A    between atoms: C_14  and  C_9 
REMARK    6  A    between atoms: N_20  and  C_9 
REMARK    7  A    between atoms: O_21  and  C_11 
REMARK    8  A    between atoms: C_15  and  C_12 
REMARK    9  A    between atoms: C_12  and  N_17 
REMARK   10  A    between atoms: O_23  and  C_14 
ROOT
HETATM    1  C   UNK N   1      35.706  14.727  12.582  0.00  0.00     0.046 C 
HETATM    2  C   UNK N   1      35.140  14.999  11.391  0.00  0.00     0.103 A 
HETATM    3  C   UNK N   1      33.923  14.720   9.593  0.00  0.00     0.110 A 
HETATM    4  C   UNK N   1      35.482  16.055  10.456  0.00  0.00     0.276 A 
HETATM    5  N   UNK N   1      34.132  14.228  10.767  0.00  0.00    -0.340 N 
ATOM      6  HN  UNK N   1      33.655  13.424  11.174  1.00  0.00     0.167 HD
HETATM    7  N   UNK N   1      34.745  15.864   9.346  0.00  0.00    -0.290 N 
HETATM    8  O   UNK N   1      36.326  16.927  10.599  0.00  0.00    -0.265 OA
ENDROOT
BRANCH   1   9
HETATM    9  C   UNK N   1      35.368  13.524  13.391  0.00  0.00    -0.034 A 
HETATM   10  C   UNK N   1      35.402  13.540  14.797  0.00  0.00     0.014 A 
HETATM   11  C   UNK N   1      34.994  12.427  15.534  0.00  0.00     0.037 A 
HETATM   12  C   UNK N   1      34.539  11.286  14.874  0.00  0.00     0.065 A 
HETATM   13  C   UNK N   1      34.509  11.252  13.476  0.00  0.00     0.037 A 
HETATM   14  C   UNK N   1      34.921  12.368  12.738  0.00  0.00     0.014 A 
BRANCH  12  15
HETATM   15  O   UNK N   1      34.126  10.223  15.582  0.00  0.00    -0.361 OA
HETATM   16  H   UNK N   1      33.954   9.403  15.162  0.00  0.00     0.217 HD
ENDBRANCH  12  15
ENDBRANCH   1   9
BRANCH   7  17
HETATM   17  C   UNK N   1      34.821  16.639   8.124  0.00  0.00     0.243 C 
BRANCH  17  18
HETATM   18  C   UNK N   1      34.343  18.045   8.315  0.00  0.00     0.158 C 
HETATM   19  O   UNK N   1      33.152  18.293   8.231  0.00  0.00    -0.649 OA
BRANCH  18  20
HETATM   20  O   UNK N   1      35.220  19.041   8.535  0.00  0.00    -0.775 OA
HETATM   21  H   UNK N   1      35.272  19.761   7.938  0.00  0.00     0.167 HD
ENDBRANCH  18  20
ENDBRANCH  17  18
ENDBRANCH   7  17
BRANCH   3  22
HETATM   22  C   UNK N   1      32.904  14.102   8.653  0.00  0.00     0.143 C 
BRANCH  22  23
HETATM   23  C   UNK N   1      31.796  15.096   8.292  0.00  0.00     0.042 C 
BRANCH  23  24
HETATM   24  C   UNK N   1      31.628  15.194   6.777  0.00  0.00     0.076 C 
BRANCH  24  25
HETATM   25  S   UNK N   1      30.266  16.311   6.350  0.00  0.00    -0.173 SA
HETATM   26  C   UNK N   1      31.306  17.275   5.219  0.00  0.00     0.089 C 
ENDBRANCH  24  25
ENDBRANCH  23  24
ENDBRANCH  22  23
BRANCH  22  27
HETATM   27  N   UNK N   1      32.297  12.913   9.221  0.00  0.00    -0.420 N 
HETATM   28  H   UNK N   1      32.439  12.609  10.185  0.00  0.00     0.150 HD
HETATM   29  H   UNK N   1      31.694  12.347   8.623  0.00  0.00     0.150 HD
ENDBRANCH  22  27
ENDBRANCH   3  22
TORSDOF 10
ENDMDL
MODEL 7
REMARK VINA RESULT:      -5.6     11.642     12.854
REMARK  10 active torsions:
REMARK  status: ('A' for Active; 'I' for Inactive)
REMARK    1  A    between atoms: C_7  and  C_6 
REMARK    2  A    between atoms: C_12  and  C_6 
REMARK    3  A    between atoms: S_25  and  C_7 
REMARK    4  A    between atoms: C_10  and  C_8 
REMARK    5  A    between atoms: C_14  and  C_9 
REMARK    6  A    between atoms: N_20  and  C_9 
REMARK    7  A    between atoms: O_21  and  C_11 
REMARK    8  A    between atoms: C_15  and  C_12 
REMARK    9  A    between atoms: C_12  and  N_17 
REMARK   10  A    between atoms: O_23  and  C_14 
ROOT
HETATM    1  C   UNK N   1      30.387  25.158  -3.551  0.00  0.00     0.046 C 
HETATM    2  C   UNK N   1      29.205  25.615  -4.007  0.00  0.00     0.103 A 
HETATM    3  C   UNK N   1      27.272  25.620  -5.033  0.00  0.00     0.110 A 
HETATM    4  C   UNK N   1      28.735  26.987  -4.060  0.00  0.00     0.276 A 
HETATM    5  N   UNK N   1      28.203  24.829  -4.620  0.00  0.00    -0.340 N 
ATOM      6  HN  UNK N   1      28.216  23.813  -4.719  1.00  0.00     0.167 HD
HETATM    7  N   UNK N   1      27.556  26.984  -4.710  0.00  0.00    -0.290 N 
HETATM    8  O   UNK N   1      29.313  27.985  -3.657  0.00  0.00    -0.265 OA
ENDROOT
BRANCH   1   9
HETATM    9  C   UNK N   1      30.820  23.739  -3.683  0.00  0.00    -0.034 A 
HETATM   10  C   UNK N   1      30.292  22.723  -2.867  0.00  0.00     0.014 A 
HETATM   11  C   UNK N   1      30.646  21.389  -3.069  0.00  0.00     0.037 A 
HETATM   12  C   UNK N   1      31.527  21.052  -4.097  0.00  0.00     0.065 A 
HETATM   13  C   UNK N   1      32.067  22.053  -4.911  0.00  0.00     0.037 A 
HETATM   14  C   UNK N   1      31.713  23.392  -4.705  0.00  0.00     0.014 A 
BRANCH  12  15
HETATM   15  O   UNK N   1      31.851  19.767  -4.307  0.00  0.00    -0.361 OA
HETATM   16  H   UNK N   1      32.699  19.442  -4.077  0.00  0.00     0.217 HD
ENDBRANCH  12  15
ENDBRANCH   1   9
BRANCH   7  17
HETATM   17  C   UNK N   1      26.768  28.148  -5.060  0.00  0.00     0.243 C 
BRANCH  17  18
HETATM   18  C   UNK N   1      26.018  28.696  -3.885  0.00  0.00     0.158 C 
HETATM   19  O   UNK N   1      25.414  27.937  -3.148  0.00  0.00    -0.649 OA
BRANCH  18  20
HETATM   20  O   UNK N   1      25.969  30.023  -3.665  0.00  0.00    -0.775 OA
HETATM   21  H   UNK N   1      26.594  30.427  -3.095  0.00  0.00     0.167 HD
ENDBRANCH  18  20
ENDBRANCH  17  18
ENDBRANCH   7  17
BRANCH   3  22
HETATM   22  C   UNK N   1      26.050  25.083  -5.758  0.00  0.00     0.143 C 
BRANCH  22  23
HETATM   23  C   UNK N   1      25.951  23.559  -5.642  0.00  0.00     0.042 C 
BRANCH  23  24
HETATM   24  C   UNK N   1      26.171  22.897  -7.000  0.00  0.00     0.076 C 
BRANCH  24  25
HETATM   25  S   UNK N   1      24.883  21.667  -7.334  0.00  0.00    -0.173 SA
HETATM   26  C   UNK N   1      25.682  21.132  -8.873  0.00  0.00     0.089 C 
ENDBRANCH  24  25
ENDBRANCH  23  24
ENDBRANCH  22  23
BRANCH  22  27
HETATM   27  N   UNK N   1      26.054  25.446  -7.162  0.00  0.00    -0.420 N 
HETATM   28  H   UNK N   1      26.778  26.019  -7.598  0.00  0.00     0.150 HD
HETATM   29  H   UNK N   1      25.290  25.109  -7.749  0.00  0.00     0.150 HD
ENDBRANCH  22  27
ENDBRANCH   3  22
TORSDOF 10
ENDMDL
MODEL 8
REMARK VINA RESULT:      -5.6     12.542     14.485
REMARK  10 active torsions:
REMARK  status: ('A' for Active; 'I' for Inactive)
REMARK    1  A    between atoms: C_7  and  C_6 
REMARK    2  A    between atoms: C_12  and  C_6 
REMARK    3  A    between atoms: S_25  and  C_7 
REMARK    4  A    between atoms: C_10  and  C_8 
REMARK    5  A    between atoms: C_14  and  C_9 
REMARK    6  A    between atoms: N_20  and  C_9 
REMARK    7  A    between atoms: O_21  and  C_11 
REMARK    8  A    between atoms: C_15  and  C_12 
REMARK    9  A    between atoms: C_12  and  N_17 
REMARK   10  A    between atoms: O_23  and  C_14 
ROOT
HETATM    1  C   UNK N   1      25.604  26.232  -7.096  0.00  0.00     0.046 C 
HETATM    2  C   UNK N   1      26.183  25.021  -7.211  0.00  0.00     0.103 A 
HETATM    3  C   UNK N   1      27.611  23.397  -6.877  0.00  0.00     0.110 A 
HETATM    4  C   UNK N   1      25.940  24.004  -8.217  0.00  0.00     0.276 A 
HETATM    5  N   UNK N   1      27.234  24.535  -6.400  0.00  0.00    -0.340 N 
ATOM      6  HN  UNK N   1      27.625  25.002  -5.582  1.00  0.00     0.167 HD
HETATM    7  N   UNK N   1      26.835  23.018  -8.017  0.00  0.00    -0.290 N 
HETATM    8  O   UNK N   1      25.126  24.041  -9.127  0.00  0.00    -0.265 OA
ENDROOT
BRANCH   1   9
HETATM    9  C   UNK N   1      26.040  27.255  -6.105  0.00  0.00    -0.034 A 
HETATM   10  C   UNK N   1      27.092  28.147  -6.373  0.00  0.00     0.014 A 
HETATM   11  C   UNK N   1      27.422  29.155  -5.467  0.00  0.00     0.037 A 
HETATM   12  C   UNK N   1      26.698  29.289  -4.282  0.00  0.00     0.065 A 
HETATM   13  C   UNK N   1      25.654  28.402  -3.998  0.00  0.00     0.037 A 
HETATM   14  C   UNK N   1      25.326  27.390  -4.907  0.00  0.00     0.014 A 
BRANCH  12  15
HETATM   15  O   UNK N   1      27.000  30.272  -3.420  0.00  0.00    -0.361 OA
HETATM   16  H   UNK N   1      26.329  30.811  -3.051  0.00  0.00     0.217 HD
ENDBRANCH  12  15
ENDBRANCH   1   9
BRANCH   7  17
HETATM   17  C   UNK N   1      27.007  21.838  -8.840  0.00  0.00     0.243 C 
BRANCH  17  18
HETATM   18  C   UNK N   1      25.754  21.023  -8.927  0.00  0.00     0.158 C 
HETATM   19  O   UNK N   1      25.431  20.313  -7.991  0.00  0.00    -0.649 OA
BRANCH  18  20
HETATM   20  O   UNK N   1      25.009  21.034 -10.047  0.00  0.00    -0.775 OA
HETATM   21  H   UNK N   1      25.421  21.124 -10.884  0.00  0.00     0.167 HD
ENDBRANCH  18  20
ENDBRANCH  17  18
ENDBRANCH   7  17
BRANCH   3  22
HETATM   22  C   UNK N   1      28.745  22.615  -6.238  0.00  0.00     0.143 C 
BRANCH  22  23
HETATM   23  C   UNK N   1      29.072  23.142  -4.837  0.00  0.00     0.042 C 
BRANCH  23  24
HETATM   24  C   UNK N   1      30.582  23.276  -4.648  0.00  0.00     0.076 C 
BRANCH  24  25
HETATM   25  S   UNK N   1      31.107  22.516  -3.088  0.00  0.00    -0.173 SA
HETATM   26  C   UNK N   1      30.921  20.839  -3.752  0.00  0.00     0.089 C 
ENDBRANCH  24  25
ENDBRANCH  23  24
ENDBRANCH  22  23
BRANCH  22  27
HETATM   27  N   UNK N   1      29.950  22.655  -7.045  0.00  0.00    -0.420 N 
HETATM   28  H   UNK N   1      29.989  23.051  -7.984  0.00  0.00     0.150 HD
HETATM   29  H   UNK N   1      30.806  22.263  -6.651  0.00  0.00     0.150 HD
ENDBRANCH  22  27
ENDBRANCH   3  22
TORSDOF 10
ENDMDL
MODEL 9
REMARK VINA RESULT:      -5.6      5.066      7.424
REMARK  10 active torsions:
REMARK  status: ('A' for Active; 'I' for Inactive)
REMARK    1  A    between atoms: C_7  and  C_6 
REMARK    2  A    between atoms: C_12  and  C_6 
REMARK    3  A    between atoms: S_25  and  C_7 
REMARK    4  A    between atoms: C_10  and  C_8 
REMARK    5  A    between atoms: C_14  and  C_9 
REMARK    6  A    between atoms: N_20  and  C_9 
REMARK    7  A    between atoms: O_21  and  C_11 
REMARK    8  A    between atoms: C_15  and  C_12 
REMARK    9  A    between atoms: C_12  and  N_17 
REMARK   10  A    between atoms: O_23  and  C_14 
ROOT
HETATM    1  C   UNK N   1      30.641  17.785   8.580  0.00  0.00     0.046 C 
HETATM    2  C   UNK N   1      29.786  17.661   7.547  0.00  0.00     0.103 A 
HETATM    3  C   UNK N   1      29.030  17.086   5.576  0.00  0.00     0.110 A 
HETATM    4  C   UNK N   1      28.535  18.364   7.331  0.00  0.00     0.276 A 
HETATM    5  N   UNK N   1      29.997  16.863   6.400  0.00  0.00    -0.340 N 
ATOM      6  HN  UNK N   1      30.778  16.224   6.249  1.00  0.00     0.167 HD
HETATM    7  N   UNK N   1      28.087  18.021   6.108  0.00  0.00    -0.290 N 
HETATM    8  O   UNK N   1      28.000  19.172   8.075  0.00  0.00    -0.265 OA
ENDROOT
BRANCH   1   9
HETATM    9  C   UNK N   1      31.972  17.117   8.624  0.00  0.00    -0.034 A 
HETATM   10  C   UNK N   1      33.160  17.809   8.332  0.00  0.00     0.014 A 
HETATM   11  C   UNK N   1      34.401  17.186   8.468  0.00  0.00     0.037 A 
HETATM   12  C   UNK N   1      34.470  15.863   8.905  0.00  0.00     0.065 A 
HETATM   13  C   UNK N   1      33.296  15.159   9.190  0.00  0.00     0.037 A 
HETATM   14  C   UNK N   1      32.051  15.785   9.051  0.00  0.00     0.014 A 
BRANCH  12  15
HETATM   15  O   UNK N   1      35.665  15.270   9.057  0.00  0.00    -0.361 OA
HETATM   16  H   UNK N   1      36.430  15.620   8.644  0.00  0.00     0.217 HD
ENDBRANCH  12  15
ENDBRANCH   1   9
BRANCH   7  17
HETATM   17  C   UNK N   1      26.910  18.548   5.449  0.00  0.00     0.243 C 
BRANCH  17  18
HETATM   18  C   UNK N   1      27.185  19.846   4.755  0.00  0.00     0.158 C 
HETATM   19  O   UNK N   1      26.840  20.893   5.276  0.00  0.00    -0.649 OA
BRANCH  18  20
HETATM   20  O   UNK N   1      27.767  19.862   3.542  0.00  0.00    -0.775 OA
HETATM   21  H   UNK N   1      27.887  20.674   3.090  0.00  0.00     0.167 HD
ENDBRANCH  18  20
ENDBRANCH  17  18
ENDBRANCH   7  17
BRANCH   3  22
HETATM   22  C   UNK N   1      28.972  16.392   4.227  0.00  0.00     0.143 C 
BRANCH  22  23
HETATM   23  C   UNK N   1      29.931  15.199   4.166  0.00  0.00     0.042 C 
BRANCH  23  24
HETATM   24  C   UNK N   1      31.116  15.504   3.252  0.00  0.00     0.076 C 
BRANCH  24  25
HETATM   25  S   UNK N   1      32.663  15.550   4.196  0.00  0.00    -0.173 SA
HETATM   26  C   UNK N   1      32.768  17.357   4.087  0.00  0.00     0.089 C 
ENDBRANCH  24  25
ENDBRANCH  23  24
ENDBRANCH  22  23
BRANCH  22  27
HETATM   27  N   UNK N   1      29.284  17.299   3.139  0.00  0.00    -0.420 N 
HETATM   28  H   UNK N   1      29.152  18.309   3.188  0.00  0.00     0.150 HD
HETATM   29  H   UNK N   1      29.656  16.904   2.274  0.00  0.00     0.150 HD
ENDBRANCH  22  27
ENDBRANCH   3  22
TORSDOF 10
ENDMDL
