MODEL 1
REMARK VINA RESULT:      -5.2      0.000      0.000
REMARK  5 active torsions:
REMARK  status: ('A' for Active; 'I' for Inactive)
REMARK    1  A    between atoms: C_3  and  C_2 
REMARK    2  A    between atoms: O_13  and  C_2 
REMARK    3  A    between atoms: C_5  and  O_14 
REMARK    4  A    between atoms: C_6  and  O_15 
REMARK    5  A    between atoms: N_9  and  C_8 
ROOT
HETATM    1  C   UNK N   1      23.028  12.560  11.490  0.00  0.00     0.072 C 
HETATM    2  C   UNK N   1      22.484  12.473   9.097  0.00  0.00     0.146 A 
HETATM    3  C   UNK N   1      24.244  12.199  10.631  0.00  0.00     0.157 C 
HETATM    4  C   UNK N   1      23.913  12.944   9.348  0.00  0.00     0.172 C 
HETATM    5  C   UNK N   1      21.855  12.368  10.507  0.00  0.00     0.166 A 
HETATM    6  C   UNK N   1      20.843  13.942   9.294  0.00  0.00     0.219 A 
HETATM    7  N   UNK N   1      21.682  13.475   8.457  0.00  0.00    -0.346 N 
ATOM      8  HN  UNK N   1      21.770  13.769   7.485  1.00  0.00     0.163 HD
HETATM    9  O   UNK N   1      20.918  13.388  10.516  0.00  0.00    -0.314 OA
ENDROOT
BRANCH   1  10
HETATM   10  C   UNK N   1      22.930  11.702  12.749  0.00  0.00     0.174 C 
BRANCH  10  11
HETATM   11  O   UNK N   1      23.740  12.216  13.762  0.00  0.00    -0.400 OA
HETATM   12  H   UNK N   1      23.908  13.165  13.870  0.00  0.00     0.209 HD
ENDBRANCH  10  11
ENDBRANCH   1  10
BRANCH   3  13
HETATM   13  O   UNK N   1      25.443  12.633  11.202  0.00  0.00    -0.392 OA
HETATM   14  H   UNK N   1      26.235  12.163  11.505  0.00  0.00     0.210 HD
ENDBRANCH   3  13
BRANCH   4  15
HETATM   15  O   UNK N   1      24.769  12.630   8.292  0.00  0.00    -0.391 OA
HETATM   16  H   UNK N   1      24.566  12.048   7.543  0.00  0.00     0.210 HD
ENDBRANCH   4  15
BRANCH   6  17
HETATM   17  N   UNK N   1      19.893  14.946   8.963  0.00  0.00    -0.342 N 
HETATM   18  C   UNK N   1      20.258  16.117   8.579  0.00  0.00     0.122 C 
ATOM     19  HN  UNK N   1      18.898  14.733   9.032  1.00  0.00     0.167 HD
ENDBRANCH   6  17
TORSDOF 5
ENDMDL
MODEL 2
REMARK VINA RESULT:      -5.2      8.804     10.195
REMARK  5 active torsions:
REMARK  status: ('A' for Active; 'I' for Inactive)
REMARK    1  A    between atoms: C_3  and  C_2 
REMARK    2  A    between atoms: O_13  and  C_2 
REMARK    3  A    between atoms: C_5  and  O_14 
REMARK    4  A    between atoms: C_6  and  O_15 
REMARK    5  A    between atoms: N_9  and  C_8 
ROOT
HETATM    1  C   UNK N   1      29.312  17.701   7.861  0.00  0.00     0.072 C 
HETATM    2  C   UNK N   1      31.421  16.647   7.176  0.00  0.00     0.146 A 
HETATM    3  C   UNK N   1      30.301  17.573   9.023  0.00  0.00     0.157 C 
HETATM    4  C   UNK N   1      31.623  17.680   8.280  0.00  0.00     0.172 C 
HETATM    5  C   UNK N   1      29.926  16.771   6.794  0.00  0.00     0.166 A 
HETATM    6  C   UNK N   1      31.238  17.361   5.090  0.00  0.00     0.219 A 
HETATM    7  N   UNK N   1      32.097  17.006   5.962  0.00  0.00    -0.346 N 
ATOM      8  HN  UNK N   1      33.105  16.981   5.819  1.00  0.00     0.163 HD
HETATM    9  O   UNK N   1      29.965  17.303   5.516  0.00  0.00    -0.314 OA
ENDROOT
BRANCH   1  10
HETATM   10  C   UNK N   1      27.888  17.325   8.266  0.00  0.00     0.174 C 
BRANCH  10  11
HETATM   11  O   UNK N   1      27.458  18.102   9.341  0.00  0.00    -0.400 OA
HETATM   12  H   UNK N   1      27.670  19.045   9.426  0.00  0.00     0.209 HD
ENDBRANCH  10  11
ENDBRANCH   1  10
BRANCH   3  13
HETATM   13  O   UNK N   1      30.141  18.588   9.970  0.00  0.00    -0.392 OA
HETATM   14  H   UNK N   1      29.388  18.873  10.509  0.00  0.00     0.210 HD
ENDBRANCH   3  13
BRANCH   4  15
HETATM   15  O   UNK N   1      32.730  17.393   9.080  0.00  0.00    -0.391 OA
HETATM   16  H   UNK N   1      33.581  17.857   9.069  0.00  0.00     0.210 HD
ENDBRANCH   4  15
BRANCH   6  17
HETATM   17  N   UNK N   1      31.590  17.765   3.774  0.00  0.00    -0.342 N 
HETATM   18  C   UNK N   1      32.319  17.027   3.016  0.00  0.00     0.122 C 
ATOM     19  HN  UNK N   1      31.256  18.661   3.422  1.00  0.00     0.167 HD
ENDBRANCH   6  17
TORSDOF 5
ENDMDL
MODEL 3
REMARK VINA RESULT:      -5.1     11.361     13.180
REMARK  5 active torsions:
REMARK  status: ('A' for Active; 'I' for Inactive)
REMARK    1  A    between atoms: C_3  and  C_2 
REMARK    2  A    between atoms: O_13  and  C_2 
REMARK    3  A    between atoms: C_5  and  O_14 
REMARK    4  A    between atoms: C_6  and  O_15 
REMARK    5  A    between atoms: N_9  and  C_8 
ROOT
HETATM    1  C   UNK N   1      34.120  17.238   9.149  0.00  0.00     0.072 C 
HETATM    2  C   UNK N   1      34.459  14.880   9.745  0.00  0.00     0.146 A 
HETATM    3  C   UNK N   1      32.940  16.358   8.728  0.00  0.00     0.157 C 
HETATM    4  C   UNK N   1      32.990  15.287   9.805  0.00  0.00     0.172 C 
HETATM    5  C   UNK N   1      35.217  16.201   9.463  0.00  0.00     0.166 A 
HETATM    6  C   UNK N   1      35.759  15.379  11.464  0.00  0.00     0.219 A 
HETATM    7  N   UNK N   1      34.969  14.480  11.025  0.00  0.00    -0.346 N 
ATOM      8  HN  UNK N   1      34.736  13.614  11.507  1.00  0.00     0.163 HD
HETATM    9  O   UNK N   1      35.911  16.429  10.639  0.00  0.00    -0.314 OA
ENDROOT
BRANCH   1  10
HETATM   10  C   UNK N   1      34.510  18.245   8.068  0.00  0.00     0.174 C 
BRANCH  10  11
HETATM   11  O   UNK N   1      35.323  19.247   8.596  0.00  0.00    -0.400 OA
HETATM   12  H   UNK N   1      36.292  19.202   8.578  0.00  0.00     0.209 HD
ENDBRANCH  10  11
ENDBRANCH   1  10
BRANCH   3  13
HETATM   13  O   UNK N   1      31.730  17.057   8.731  0.00  0.00    -0.392 OA
HETATM   14  H   UNK N   1      30.831  16.814   8.999  0.00  0.00     0.210 HD
ENDBRANCH   3  13
BRANCH   4  15
HETATM   15  O   UNK N   1      32.132  14.215   9.557  0.00  0.00    -0.391 OA
HETATM   16  H   UNK N   1      31.758  13.968   8.697  0.00  0.00     0.210 HD
ENDBRANCH   4  15
BRANCH   6  17
HETATM   17  N   UNK N   1      36.439  15.273  12.707  0.00  0.00    -0.342 N 
HETATM   18  C   UNK N   1      36.309  14.240  13.460  0.00  0.00     0.122 C 
ATOM     19  HN  UNK N   1      37.045  16.035  13.010  1.00  0.00     0.167 HD
ENDBRANCH   6  17
TORSDOF 5
ENDMDL
MODEL 4
REMARK VINA RESULT:      -5.1     12.368     13.538
REMARK  5 active torsions:
REMARK  status: ('A' for Active; 'I' for Inactive)
REMARK    1  A    between atoms: C_3  and  C_2 
REMARK    2  A    between atoms: O_13  and  C_2 
REMARK    3  A    between atoms: C_5  and  O_14 
REMARK    4  A    between atoms: C_6  and  O_15 
REMARK    5  A    between atoms: N_9  and  C_8 
ROOT
HETATM    1  C   UNK N   1      34.659  12.505  14.565  0.00  0.00     0.072 C 
HETATM    2  C   UNK N   1      36.520  13.657  13.451  0.00  0.00     0.146 A 
HETATM    3  C   UNK N   1      35.850  12.723  15.501  0.00  0.00     0.157 C 
HETATM    4  C   UNK N   1      36.425  14.010  14.932  0.00  0.00     0.172 C 
HETATM    5  C   UNK N   1      35.268  12.788  13.176  0.00  0.00     0.166 A 
HETATM    6  C   UNK N   1      35.181  14.701  12.033  0.00  0.00     0.219 A 
HETATM    7  N   UNK N   1      36.317  14.796  12.602  0.00  0.00    -0.346 N 
ATOM      8  HN  UNK N   1      36.977  15.561  12.476  1.00  0.00     0.163 HD
HETATM    9  O   UNK N   1      34.494  13.593  12.357  0.00  0.00    -0.314 OA
ENDROOT
BRANCH   1  10
HETATM   10  C   UNK N   1      34.056  11.109  14.705  0.00  0.00     0.174 C 
BRANCH  10  11
HETATM   11  O   UNK N   1      33.375  10.746  13.544  0.00  0.00    -0.400 OA
HETATM   12  H   UNK N   1      33.796  10.260  12.818  0.00  0.00     0.209 HD
ENDBRANCH  10  11
ENDBRANCH   1  10
BRANCH   3  13
HETATM   13  O   UNK N   1      35.458  12.863  16.835  0.00  0.00    -0.392 OA
HETATM   14  H   UNK N   1      35.898  13.234  17.615  0.00  0.00     0.210 HD
ENDBRANCH   3  13
BRANCH   4  15
HETATM   15  O   UNK N   1      37.664  14.350  15.476  0.00  0.00    -0.391 OA
HETATM   16  H   UNK N   1      38.048  13.994  16.292  0.00  0.00     0.210 HD
ENDBRANCH   4  15
BRANCH   6  17
HETATM   17  N   UNK N   1      34.689  15.670  11.118  0.00  0.00    -0.342 N 
HETATM   18  C   UNK N   1      35.412  16.660  10.732  0.00  0.00     0.122 C 
ATOM     19  HN  UNK N   1      33.739  15.579  10.757  1.00  0.00     0.167 HD
ENDBRANCH   6  17
TORSDOF 5
ENDMDL
MODEL 5
REMARK VINA RESULT:      -5.0     10.413     11.679
REMARK  5 active torsions:
REMARK  status: ('A' for Active; 'I' for Inactive)
REMARK    1  A    between atoms: C_3  and  C_2 
REMARK    2  A    between atoms: O_13  and  C_2 
REMARK    3  A    between atoms: C_5  and  O_14 
REMARK    4  A    between atoms: C_6  and  O_15 
REMARK    5  A    between atoms: N_9  and  C_8 
ROOT
HETATM    1  C   UNK N   1      33.747  15.841   9.289  0.00  0.00     0.072 C 
HETATM    2  C   UNK N   1      34.164  17.139   7.247  0.00  0.00     0.146 A 
HETATM    3  C   UNK N   1      34.862  16.873   9.476  0.00  0.00     0.157 C 
HETATM    4  C   UNK N   1      34.406  17.957   8.512  0.00  0.00     0.172 C 
HETATM    5  C   UNK N   1      33.584  15.797   7.756  0.00  0.00     0.166 A 
HETATM    6  C   UNK N   1      32.085  16.903   6.530  0.00  0.00     0.219 A 
HETATM    7  N   UNK N   1      33.099  17.671   6.448  0.00  0.00    -0.346 N 
ATOM      8  HN  UNK N   1      33.144  18.529   5.900  1.00  0.00     0.163 HD
HETATM    9  O   UNK N   1      32.273  15.826   7.312  0.00  0.00    -0.314 OA
ENDROOT
BRANCH   1  10
HETATM   10  C   UNK N   1      34.094  14.491   9.915  0.00  0.00     0.174 C 
BRANCH  10  11
HETATM   11  O   UNK N   1      33.840  14.502  11.286  0.00  0.00    -0.400 OA
HETATM   12  H   UNK N   1      33.042  14.112  11.676  0.00  0.00     0.209 HD
ENDBRANCH  10  11
ENDBRANCH   1  10
BRANCH   3  13
HETATM   13  O   UNK N   1      34.943  17.335  10.792  0.00  0.00    -0.392 OA
HETATM   14  H   UNK N   1      35.127  18.207  11.174  0.00  0.00     0.210 HD
ENDBRANCH   3  13
BRANCH   4  15
HETATM   15  O   UNK N   1      35.357  18.961   8.321  0.00  0.00    -0.391 OA
HETATM   16  H   UNK N   1      35.753  19.513   9.012  0.00  0.00     0.210 HD
ENDBRANCH   4  15
BRANCH   6  17
HETATM   17  N   UNK N   1      30.867  17.149   5.840  0.00  0.00    -0.342 N 
HETATM   18  C   UNK N   1      29.734  17.124   6.445  0.00  0.00     0.122 C 
ATOM     19  HN  UNK N   1      30.893  17.351   4.841  1.00  0.00     0.167 HD
ENDBRANCH   6  17
TORSDOF 5
ENDMDL
MODEL 6
REMARK VINA RESULT:      -5.0      8.509     10.178
REMARK  5 active torsions:
REMARK  status: ('A' for Active; 'I' for Inactive)
REMARK    1  A    between atoms: C_3  and  C_2 
REMARK    2  A    between atoms: O_13  and  C_2 
REMARK    3  A    between atoms: C_5  and  O_14 
REMARK    4  A    between atoms: C_6  and  O_15 
REMARK    5  A    between atoms: N_9  and  C_8 
ROOT
HETATM    1  C   UNK N   1      28.822  17.631   7.260  0.00  0.00     0.072 C 
HETATM    2  C   UNK N   1      30.603  17.273   8.913  0.00  0.00     0.146 A 
HETATM    3  C   UNK N   1      28.404  18.068   8.667  0.00  0.00     0.157 C 
HETATM    4  C   UNK N   1      29.747  18.492   9.240  0.00  0.00     0.172 C 
HETATM    5  C   UNK N   1      30.091  16.797   7.531  0.00  0.00     0.166 A 
HETATM    6  C   UNK N   1      32.208  17.488   7.406  0.00  0.00     0.219 A 
HETATM    7  N   UNK N   1      31.970  17.618   8.652  0.00  0.00    -0.346 N 
ATOM      8  HN  UNK N   1      32.646  17.921   9.352  1.00  0.00     0.163 HD
HETATM    9  O   UNK N   1      31.154  17.068   6.686  0.00  0.00    -0.314 OA
ENDROOT
BRANCH   1  10
HETATM   10  C   UNK N   1      27.718  16.862   6.538  0.00  0.00     0.174 C 
BRANCH  10  11
HETATM   11  O   UNK N   1      26.735  16.447   7.436  0.00  0.00    -0.400 OA
HETATM   12  H   UNK N   1      26.824  15.648   7.979  0.00  0.00     0.209 HD
ENDBRANCH  10  11
ENDBRANCH   1  10
BRANCH   3  13
HETATM   13  O   UNK N   1      27.482  19.117   8.644  0.00  0.00    -0.392 OA
HETATM   14  H   UNK N   1      27.384  19.919   9.181  0.00  0.00     0.210 HD
ENDBRANCH   3  13
BRANCH   4  15
HETATM   15  O   UNK N   1      29.703  18.758  10.609  0.00  0.00    -0.391 OA
HETATM   16  H   UNK N   1      30.067  18.199  11.313  0.00  0.00     0.210 HD
ENDBRANCH   4  15
BRANCH   6  17
HETATM   17  N   UNK N   1      33.481  17.744   6.829  0.00  0.00    -0.342 N 
HETATM   18  C   UNK N   1      33.858  17.163   5.747  0.00  0.00     0.122 C 
ATOM     19  HN  UNK N   1      34.111  18.405   7.284  1.00  0.00     0.167 HD
ENDBRANCH   6  17
TORSDOF 5
ENDMDL
MODEL 7
REMARK VINA RESULT:      -5.0     10.736     11.998
REMARK  5 active torsions:
REMARK  status: ('A' for Active; 'I' for Inactive)
REMARK    1  A    between atoms: C_3  and  C_2 
REMARK    2  A    between atoms: O_13  and  C_2 
REMARK    3  A    between atoms: C_5  and  O_14 
REMARK    4  A    between atoms: C_6  and  O_15 
REMARK    5  A    between atoms: N_9  and  C_8 
ROOT
HETATM    1  C   UNK N   1      34.179  16.964   8.348  0.00  0.00     0.072 C 
HETATM    2  C   UNK N   1      32.625  15.272   9.216  0.00  0.00     0.146 A 
HETATM    3  C   UNK N   1      34.296  16.792   9.865  0.00  0.00     0.157 C 
HETATM    4  C   UNK N   1      33.926  15.325  10.012  0.00  0.00     0.172 C 
HETATM    5  C   UNK N   1      32.854  16.241   8.030  0.00  0.00     0.166 A 
HETATM    6  C   UNK N   1      32.602  14.145   7.313  0.00  0.00     0.219 A 
HETATM    7  N   UNK N   1      32.431  14.007   8.568  0.00  0.00    -0.346 N 
ATOM      8  HN  UNK N   1      32.195  13.134   9.038  1.00  0.00     0.163 HD
HETATM    9  O   UNK N   1      32.902  15.398   6.933  0.00  0.00    -0.314 OA
ENDROOT
BRANCH   1  10
HETATM   10  C   UNK N   1      34.202  18.431   7.925  0.00  0.00     0.174 C 
BRANCH  10  11
HETATM   11  O   UNK N   1      35.281  19.096   8.508  0.00  0.00    -0.400 OA
HETATM   12  H   UNK N   1      35.250  19.458   9.408  0.00  0.00     0.209 HD
ENDBRANCH  10  11
ENDBRANCH   1  10
BRANCH   3  13
HETATM   13  O   UNK N   1      35.585  17.061  10.331  0.00  0.00    -0.392 OA
HETATM   14  H   UNK N   1      36.337  16.492  10.556  0.00  0.00     0.210 HD
ENDBRANCH   3  13
BRANCH   4  15
HETATM   15  O   UNK N   1      33.752  14.930  11.339  0.00  0.00    -0.391 OA
HETATM   16  H   UNK N   1      33.663  15.518  12.105  0.00  0.00     0.210 HD
ENDBRANCH   4  15
BRANCH   6  17
HETATM   17  N   UNK N   1      32.468  13.073   6.390  0.00  0.00    -0.342 N 
HETATM   18  C   UNK N   1      32.528  13.266   5.121  0.00  0.00     0.122 C 
ATOM     19  HN  UNK N   1      32.321  12.127   6.742  1.00  0.00     0.167 HD
ENDBRANCH   6  17
TORSDOF 5
ENDMDL
MODEL 8
REMARK VINA RESULT:      -5.0      8.497     10.373
REMARK  5 active torsions:
REMARK  status: ('A' for Active; 'I' for Inactive)
REMARK    1  A    between atoms: C_3  and  C_2 
REMARK    2  A    between atoms: O_13  and  C_2 
REMARK    3  A    between atoms: C_5  and  O_14 
REMARK    4  A    between atoms: C_6  and  O_15 
REMARK    5  A    between atoms: N_9  and  C_8 
ROOT
HETATM    1  C   UNK N   1      29.153  17.963   6.103  0.00  0.00     0.072 C 
HETATM    2  C   UNK N   1      29.445  17.090   8.379  0.00  0.00     0.146 A 
HETATM    3  C   UNK N   1      27.887  18.117   6.950  0.00  0.00     0.157 C 
HETATM    4  C   UNK N   1      28.493  18.281   8.335  0.00  0.00     0.172 C 
HETATM    5  C   UNK N   1      29.997  16.978   6.937  0.00  0.00     0.166 A 
HETATM    6  C   UNK N   1      31.621  17.484   8.378  0.00  0.00     0.219 A 
HETATM    7  N   UNK N   1      30.620  17.358   9.157  0.00  0.00    -0.346 N 
ATOM      8  HN  UNK N   1      30.650  17.437  10.172  1.00  0.00     0.163 HD
HETATM    9  O   UNK N   1      31.329  17.330   7.076  0.00  0.00    -0.314 OA
ENDROOT
BRANCH   1  10
HETATM   10  C   UNK N   1      28.850  17.477   4.688  0.00  0.00     0.174 C 
BRANCH  10  11
HETATM   11  O   UNK N   1      28.356  18.518   3.902  0.00  0.00    -0.400 OA
HETATM   12  H   UNK N   1      28.425  18.524   2.934  0.00  0.00     0.209 HD
ENDBRANCH  10  11
ENDBRANCH   1  10
BRANCH   3  13
HETATM   13  O   UNK N   1      27.126  19.225   6.570  0.00  0.00    -0.392 OA
HETATM   14  H   UNK N   1      26.964  19.652   5.715  0.00  0.00     0.210 HD
ENDBRANCH   3  13
BRANCH   4  15
HETATM   15  O   UNK N   1      27.546  18.242   9.359  0.00  0.00    -0.391 OA
HETATM   16  H   UNK N   1      26.634  18.566   9.309  0.00  0.00     0.210 HD
ENDBRANCH   4  15
BRANCH   6  17
HETATM   17  N   UNK N   1      32.939  17.743   8.845  0.00  0.00    -0.342 N 
HETATM   18  C   UNK N   1      33.843  18.228   8.072  0.00  0.00     0.122 C 
ATOM     19  HN  UNK N   1      33.172  17.539   9.817  1.00  0.00     0.167 HD
ENDBRANCH   6  17
TORSDOF 5
ENDMDL
MODEL 9
REMARK VINA RESULT:      -4.9      8.432     10.195
REMARK  5 active torsions:
REMARK  status: ('A' for Active; 'I' for Inactive)
REMARK    1  A    between atoms: C_3  and  C_2 
REMARK    2  A    between atoms: O_13  and  C_2 
REMARK    3  A    between atoms: C_5  and  O_14 
REMARK    4  A    between atoms: C_6  and  O_15 
REMARK    5  A    between atoms: N_9  and  C_8 
ROOT
HETATM    1  C   UNK N   1      20.888  17.854   3.323  0.00  0.00     0.072 C 
HETATM    2  C   UNK N   1      21.471  20.219   3.009  0.00  0.00     0.146 A 
HETATM    3  C   UNK N   1      19.894  18.580   2.414  0.00  0.00     0.157 C 
HETATM    4  C   UNK N   1      20.802  19.619   1.776  0.00  0.00     0.172 C 
HETATM    5  C   UNK N   1      21.666  19.019   3.969  0.00  0.00     0.166 A 
HETATM    6  C   UNK N   1      23.629  19.851   3.318  0.00  0.00     0.219 A 
HETATM    7  N   UNK N   1      22.814  20.648   2.749  0.00  0.00    -0.346 N 
ATOM      8  HN  UNK N   1      23.076  21.462   2.195  1.00  0.00     0.163 HD
HETATM    9  O   UNK N   1      23.040  18.853   3.998  0.00  0.00    -0.314 OA
ENDROOT
BRANCH   1  10
HETATM   10  C   UNK N   1      20.195  16.938   4.329  0.00  0.00     0.174 C 
BRANCH  10  11
HETATM   11  O   UNK N   1      18.837  16.815   4.033  0.00  0.00    -0.400 OA
HETATM   12  H   UNK N   1      18.216  17.558   4.096  0.00  0.00     0.209 HD
ENDBRANCH  10  11
ENDBRANCH   1  10
BRANCH   3  13
HETATM   13  O   UNK N   1      19.318  17.728   1.469  0.00  0.00    -0.392 OA
HETATM   14  H   UNK N   1      19.651  17.335   0.647  0.00  0.00     0.210 HD
ENDBRANCH   3  13
BRANCH   4  15
HETATM   15  O   UNK N   1      20.110  20.574   1.031  0.00  0.00    -0.391 OA
HETATM   16  H   UNK N   1      19.259  20.446   0.584  0.00  0.00     0.210 HD
ENDBRANCH   4  15
BRANCH   6  17
HETATM   17  N   UNK N   1      25.040  20.012   3.259  0.00  0.00    -0.342 N 
HETATM   18  C   UNK N   1      25.734  20.262   4.311  0.00  0.00     0.122 C 
ATOM     19  HN  UNK N   1      25.514  19.926   2.360  1.00  0.00     0.167 HD
ENDBRANCH   6  17
TORSDOF 5
ENDMDL
