MODEL 1
REMARK VINA RESULT:      -7.6      0.000      0.000
REMARK  4 active torsions:
REMARK  status: ('A' for Active; 'I' for Inactive)
REMARK    1  A    between atoms: C_16  and  C_13 
REMARK    2  A    between atoms: C_15  and  O_24 
REMARK    3  A    between atoms: C_19  and  O_25 
REMARK    4  A    between atoms: C_23  and  O_27 
ROOT
HETATM    1  C   UNK N   1      35.054  16.390   9.666  0.00  0.00     0.016 C 
HETATM    2  C   UNK N   1      31.422  14.842   6.221  0.00  0.00     0.022 C 
HETATM    3  C   UNK N   1      36.450  13.743   7.989  0.00  0.00     0.006 C 
HETATM    4  C   UNK N   1      35.783  14.697   7.004  0.00  0.00     0.008 C 
HETATM    5  C   UNK N   1      35.427  14.457  12.138  0.00  0.00     0.032 C 
HETATM    6  C   UNK N   1      32.485  17.119   4.755  0.00  0.00     0.013 C 
HETATM    7  C   UNK N   1      34.298  14.562  11.127  0.00  0.00     0.012 C 
HETATM    8  C   UNK N   1      33.716  16.234   5.094  0.00  0.00     0.040 C 
HETATM    9  C   UNK N   1      36.345  12.905  10.318  0.00  0.00     0.037 C 
HETATM   10  C   UNK N   1      32.345  14.727   8.963  0.00  0.00     0.038 C 
HETATM   11  C   UNK N   1      36.232  14.168   9.458  0.00  0.00    -0.004 C 
HETATM   12  C   UNK N   1      36.296  13.235  11.824  0.00  0.00     0.118 C 
HETATM   13  C   UNK N   1      31.734  17.325   6.084  0.00  0.00     0.030 C 
HETATM   14  C   UNK N   1      34.249  14.689   7.161  0.00  0.00     0.026 C 
HETATM   15  C   UNK N   1      33.822  14.388   8.652  0.00  0.00     0.003 C 
HETATM   16  C   UNK N   1      31.821  16.041   8.377  0.00  0.00     0.130 C 
HETATM   17  C   UNK N   1      34.846  14.884   9.716  0.00  0.00    -0.036 C 
HETATM   18  C   UNK N   1      32.132  16.065   6.865  0.00  0.00     0.021 C 
HETATM   19  C   UNK N   1      33.644  16.015   6.609  0.00  0.00     0.072 C 
ENDROOT
BRANCH  13  20
HETATM   20  C   UNK N   1      30.235  17.472   5.980  0.00  0.00    -0.045 A 
HETATM   21  C   UNK N   1      29.591  17.463   4.823  0.00  0.00     0.087 A 
HETATM   22  C   UNK N   1      28.230  17.752   5.148  0.00  0.00     0.283 A 
HETATM   23  O   UNK N   1      27.329  17.874   4.337  0.00  0.00    -0.260 OA
HETATM   24  O   UNK N   1      28.076  17.927   6.469  0.00  0.00    -0.314 OA
HETATM   25  C   UNK N   1      29.286  17.760   7.125  0.00  0.00     0.213 A 
ENDBRANCH  13  20
BRANCH  16  26
HETATM   26  O   UNK N   1      32.373  17.137   9.043  0.00  0.00    -0.395 OA
HETATM   27  H   UNK N   1      32.905  17.755   9.568  0.00  0.00     0.210 HD
ENDBRANCH  16  26
BRANCH  19  28
HETATM   28  O   UNK N   1      34.283  17.115   7.194  0.00  0.00    -0.389 OA
HETATM   29  H   UNK N   1      34.826  17.713   7.733  0.00  0.00     0.210 HD
ENDBRANCH  19  28
BRANCH  12  30
HETATM   30  O   UNK N   1      37.587  13.478  12.291  0.00  0.00    -0.396 OA
HETATM   31  H   UNK N   1      38.437  13.233  11.896  0.00  0.00     0.210 HD
ENDBRANCH  12  30
TORSDOF 4
ENDMDL
MODEL 2
REMARK VINA RESULT:      -7.5      2.417      7.800
REMARK  4 active torsions:
REMARK  status: ('A' for Active; 'I' for Inactive)
REMARK    1  A    between atoms: C_16  and  C_13 
REMARK    2  A    between atoms: C_15  and  O_24 
REMARK    3  A    between atoms: C_19  and  O_25 
REMARK    4  A    between atoms: C_23  and  O_27 
ROOT
HETATM    1  C   UNK N   1      32.536  14.958   8.695  0.00  0.00     0.016 C 
HETATM    2  C   UNK N   1      37.059  13.352  10.797  0.00  0.00     0.022 C 
HETATM    3  C   UNK N   1      34.440  13.875   6.055  0.00  0.00     0.006 C 
HETATM    4  C   UNK N   1      34.511  12.872   7.202  0.00  0.00     0.008 C 
HETATM    5  C   UNK N   1      32.714  17.700   7.133  0.00  0.00     0.032 C 
HETATM    6  C   UNK N   1      35.439  11.008  11.380  0.00  0.00     0.013 C 
HETATM    7  C   UNK N   1      33.664  17.071   8.138  0.00  0.00     0.012 C 
HETATM    8  C   UNK N   1      35.290  11.244   9.853  0.00  0.00     0.040 C 
HETATM    9  C   UNK N   1      34.130  16.279   5.540  0.00  0.00     0.037 C 
HETATM   10  C   UNK N   1      35.496  15.611   9.881  0.00  0.00     0.038 C 
HETATM   11  C   UNK N   1      33.626  15.134   6.426  0.00  0.00    -0.004 C 
HETATM   12  C   UNK N   1      33.279  17.553   5.717  0.00  0.00     0.118 C 
HETATM   13  C   UNK N   1      35.129  12.359  12.049  0.00  0.00     0.030 C 
HETATM   14  C   UNK N   1      35.268  13.451   8.413  0.00  0.00     0.026 C 
HETATM   15  C   UNK N   1      35.088  15.018   8.512  0.00  0.00     0.003 C 
HETATM   16  C   UNK N   1      35.058  14.816  11.114  0.00  0.00     0.130 C 
HETATM   17  C   UNK N   1      33.731  15.536   7.952  0.00  0.00    -0.036 C 
HETATM   18  C   UNK N   1      35.512  13.351  10.942  0.00  0.00     0.021 C 
HETATM   19  C   UNK N   1      34.850  12.705   9.717  0.00  0.00     0.072 C 
ENDROOT
BRANCH  13  20
HETATM   20  C   UNK N   1      35.864  12.644  13.338  0.00  0.00    -0.045 A 
HETATM   21  C   UNK N   1      35.711  13.772  14.016  0.00  0.00     0.087 A 
HETATM   22  C   UNK N   1      36.659  13.699  15.083  0.00  0.00     0.283 A 
HETATM   23  O   UNK N   1      36.853  14.576  15.906  0.00  0.00    -0.260 OA
HETATM   24  O   UNK N   1      37.354  12.552  15.034  0.00  0.00    -0.314 OA
HETATM   25  C   UNK N   1      36.932  11.774  13.967  0.00  0.00     0.213 A 
ENDBRANCH  13  20
BRANCH  16  26
HETATM   26  O   UNK N   1      33.679  14.919  11.308  0.00  0.00    -0.395 OA
HETATM   27  H   UNK N   1      32.752  15.195  11.380  0.00  0.00     0.210 HD
ENDBRANCH  16  26
BRANCH  19  28
HETATM   28  O   UNK N   1      33.456  12.709   9.846  0.00  0.00    -0.389 OA
HETATM   29  H   UNK N   1      32.516  12.942   9.910  0.00  0.00     0.210 HD
ENDBRANCH  19  28
BRANCH  12  30
HETATM   30  O   UNK N   1      32.216  17.534   4.817  0.00  0.00    -0.396 OA
HETATM   31  H   UNK N   1      31.303  17.235   4.953  0.00  0.00     0.210 HD
ENDBRANCH  12  30
TORSDOF 4
ENDMDL
MODEL 3
REMARK VINA RESULT:      -7.2      1.331      7.277
REMARK  4 active torsions:
REMARK  status: ('A' for Active; 'I' for Inactive)
REMARK    1  A    between atoms: C_16  and  C_13 
REMARK    2  A    between atoms: C_15  and  O_24 
REMARK    3  A    between atoms: C_19  and  O_25 
REMARK    4  A    between atoms: C_23  and  O_27 
ROOT
HETATM    1  C   UNK N   1      30.563  14.979   5.952  0.00  0.00     0.016 C 
HETATM    2  C   UNK N   1      34.628  16.851   8.677  0.00  0.00     0.022 C 
HETATM    3  C   UNK N   1      31.724  17.654   4.146  0.00  0.00     0.006 C 
HETATM    4  C   UNK N   1      32.888  16.781   4.601  0.00  0.00     0.008 C 
HETATM    5  C   UNK N   1      27.956  16.761   6.090  0.00  0.00     0.032 C 
HETATM    6  C   UNK N   1      35.956  14.615   7.374  0.00  0.00     0.013 C 
HETATM    7  C   UNK N   1      29.197  16.754   6.967  0.00  0.00     0.012 C 
HETATM    8  C   UNK N   1      35.300  15.431   6.228  0.00  0.00     0.040 C 
HETATM    9  C   UNK N   1      29.429  18.370   4.748  0.00  0.00     0.037 C 
HETATM   10  C   UNK N   1      31.747  16.782   8.389  0.00  0.00     0.038 C 
HETATM   11  C   UNK N   1      30.369  17.160   4.699  0.00  0.00    -0.004 C 
HETATM   12  C   UNK N   1      27.995  17.963   5.141  0.00  0.00     0.118 C 
HETATM   13  C   UNK N   1      34.843  14.368   8.409  0.00  0.00     0.030 C 
HETATM   14  C   UNK N   1      33.076  16.841   6.130  0.00  0.00     0.026 C 
HETATM   15  C   UNK N   1      31.701  17.079   6.872  0.00  0.00     0.003 C 
HETATM   16  C   UNK N   1      32.514  15.523   8.804  0.00  0.00     0.130 C 
HETATM   17  C   UNK N   1      30.468  16.487   6.126  0.00  0.00    -0.036 C 
HETATM   18  C   UNK N   1      33.917  15.568   8.163  0.00  0.00     0.021 C 
HETATM   19  C   UNK N   1      33.828  15.571   6.631  0.00  0.00     0.072 C 
ENDROOT
BRANCH  13  20
HETATM   20  C   UNK N   1      35.285  14.286   9.851  0.00  0.00    -0.045 A 
HETATM   21  C   UNK N   1      34.533  13.753  10.802  0.00  0.00     0.087 A 
HETATM   22  C   UNK N   1      35.249  13.983  12.018  0.00  0.00     0.283 A 
HETATM   23  O   UNK N   1      34.856  13.673  13.129  0.00  0.00    -0.260 OA
HETATM   24  O   UNK N   1      36.398  14.635  11.786  0.00  0.00    -0.314 OA
HETATM   25  C   UNK N   1      36.552  14.880  10.430  0.00  0.00     0.213 A 
ENDBRANCH  13  20
BRANCH  16  26
HETATM   26  O   UNK N   1      31.809  14.372   8.445  0.00  0.00    -0.395 OA
HETATM   27  H   UNK N   1      31.450  13.576   8.023  0.00  0.00     0.210 HD
ENDBRANCH  16  26
BRANCH  19  28
HETATM   28  O   UNK N   1      33.183  14.417   6.169  0.00  0.00    -0.389 OA
HETATM   29  H   UNK N   1      32.552  13.711   5.956  0.00  0.00     0.210 HD
ENDBRANCH  19  28
BRANCH  12  30
HETATM   30  O   UNK N   1      27.268  17.643   3.995  0.00  0.00    -0.396 OA
HETATM   31  H   UNK N   1      26.507  17.051   3.898  0.00  0.00     0.210 HD
ENDBRANCH  12  30
TORSDOF 4
ENDMDL
MODEL 4
REMARK VINA RESULT:      -7.2      3.221      6.153
REMARK  4 active torsions:
REMARK  status: ('A' for Active; 'I' for Inactive)
REMARK    1  A    between atoms: C_16  and  C_13 
REMARK    2  A    between atoms: C_15  and  O_24 
REMARK    3  A    between atoms: C_19  and  O_25 
REMARK    4  A    between atoms: C_23  and  O_27 
ROOT
HETATM    1  C   UNK N   1      34.410  10.842  12.828  0.00  0.00     0.016 C 
HETATM    2  C   UNK N   1      36.895  14.295   9.770  0.00  0.00     0.022 C 
HETATM    3  C   UNK N   1      37.457  11.357  14.316  0.00  0.00     0.006 C 
HETATM    4  C   UNK N   1      36.841  12.690  13.901  0.00  0.00     0.008 C 
HETATM    5  C   UNK N   1      35.500   7.883  12.622  0.00  0.00     0.032 C 
HETATM    6  C   UNK N   1      35.185  16.141  11.229  0.00  0.00     0.013 C 
HETATM    7  C   UNK N   1      35.696   9.074  11.701  0.00  0.00     0.012 C 
HETATM    8  C   UNK N   1      35.938  15.327  12.317  0.00  0.00     0.040 C 
HETATM    9  C   UNK N   1      37.543   8.949  13.741  0.00  0.00     0.037 C 
HETATM   10  C   UNK N   1      36.178  11.520  10.180  0.00  0.00     0.038 C 
HETATM   11  C   UNK N   1      36.602  10.151  13.869  0.00  0.00    -0.004 C 
HETATM   12  C   UNK N   1      36.769   7.647  13.447  0.00  0.00     0.118 C 
HETATM   13  C   UNK N   1      34.576  15.103  10.270  0.00  0.00     0.030 C 
HETATM   14  C   UNK N   1      36.784  12.832  12.367  0.00  0.00     0.026 C 
HETATM   15  C   UNK N   1      36.611  11.429  11.662  0.00  0.00     0.003 C 
HETATM   16  C   UNK N   1      35.099  12.559   9.859  0.00  0.00     0.130 C 
HETATM   17  C   UNK N   1      35.826  10.386  12.511  0.00  0.00    -0.036 C 
HETATM   18  C   UNK N   1      35.541  13.921  10.435  0.00  0.00     0.021 C 
HETATM   19  C   UNK N   1      35.683  13.859  11.962  0.00  0.00     0.072 C 
ENDROOT
BRANCH  13  20
HETATM   20  C   UNK N   1      34.450  15.529   8.826  0.00  0.00    -0.045 A 
HETATM   21  C   UNK N   1      34.649  16.776   8.427  0.00  0.00     0.087 A 
HETATM   22  C   UNK N   1      34.314  16.782   7.037  0.00  0.00     0.283 A 
HETATM   23  O   UNK N   1      34.327  17.767   6.320  0.00  0.00    -0.260 OA
HETATM   24  O   UNK N   1      33.927  15.564   6.628  0.00  0.00    -0.314 OA
HETATM   25  C   UNK N   1      33.983  14.660   7.677  0.00  0.00     0.213 A 
ENDBRANCH  13  20
BRANCH  16  26
HETATM   26  O   UNK N   1      33.858  12.157  10.357  0.00  0.00    -0.395 OA
HETATM   27  H   UNK N   1      32.966  11.804  10.501  0.00  0.00     0.210 HD
ENDBRANCH  16  26
BRANCH  19  28
HETATM   28  O   UNK N   1      34.464  13.517  12.560  0.00  0.00    -0.389 OA
HETATM   29  H   UNK N   1      33.596  13.512  12.995  0.00  0.00     0.210 HD
ENDBRANCH  19  28
BRANCH  12  30
HETATM   30  O   UNK N   1      36.409   7.037  14.648  0.00  0.00    -0.396 OA
HETATM   31  H   UNK N   1      35.742   7.310  15.297  0.00  0.00     0.210 HD
ENDBRANCH  12  30
TORSDOF 4
ENDMDL
MODEL 5
REMARK VINA RESULT:      -7.2     13.548     15.915
REMARK  4 active torsions:
REMARK  status: ('A' for Active; 'I' for Inactive)
REMARK    1  A    between atoms: C_16  and  C_13 
REMARK    2  A    between atoms: C_15  and  O_24 
REMARK    3  A    between atoms: C_19  and  O_25 
REMARK    4  A    between atoms: C_23  and  O_27 
ROOT
HETATM    1  C   UNK N   1      31.866  23.427  -5.797  0.00  0.00     0.016 C 
HETATM    2  C   UNK N   1      27.078  24.397  -3.902  0.00  0.00     0.022 C 
HETATM    3  C   UNK N   1      30.063  20.563  -6.353  0.00  0.00     0.006 C 
HETATM    4  C   UNK N   1      29.245  21.786  -6.754  0.00  0.00     0.008 C 
HETATM    5  C   UNK N   1      33.606  21.468  -4.030  0.00  0.00     0.032 C 
HETATM    6  C   UNK N   1      26.835  25.773  -6.453  0.00  0.00     0.013 C 
HETATM    7  C   UNK N   1      32.348  22.251  -3.692  0.00  0.00     0.012 C 
HETATM    8  C   UNK N   1      27.296  24.331  -6.803  0.00  0.00     0.040 C 
HETATM    9  C   UNK N   1      31.840  19.785  -4.811  0.00  0.00     0.037 C 
HETATM   10  C   UNK N   1      29.798  23.615  -3.290  0.00  0.00     0.038 C 
HETATM   11  C   UNK N   1      31.419  20.945  -5.720  0.00  0.00    -0.004 C 
HETATM   12  C   UNK N   1      33.260  19.991  -4.244  0.00  0.00     0.118 C 
HETATM   13  C   UNK N   1      27.815  26.281  -5.380  0.00  0.00     0.030 C 
HETATM   14  C   UNK N   1      28.849  22.628  -5.526  0.00  0.00     0.026 C 
HETATM   15  C   UNK N   1      29.933  22.527  -4.381  0.00  0.00     0.003 C 
HETATM   16  C   UNK N   1      29.493  25.030  -3.788  0.00  0.00     0.130 C 
HETATM   17  C   UNK N   1      31.383  22.297  -4.901  0.00  0.00    -0.036 C 
HETATM   18  C   UNK N   1      28.266  24.969  -4.724  0.00  0.00     0.021 C 
HETATM   19  C   UNK N   1      28.549  24.097  -5.954  0.00  0.00     0.072 C 
ENDROOT
BRANCH  13  20
HETATM   20  C   UNK N   1      27.247  27.250  -4.370  0.00  0.00    -0.045 A 
HETATM   21  C   UNK N   1      28.007  28.049  -3.636  0.00  0.00     0.087 A 
HETATM   22  C   UNK N   1      27.108  28.700  -2.736  0.00  0.00     0.283 A 
HETATM   23  O   UNK N   1      27.438  29.485  -1.866  0.00  0.00    -0.260 OA
HETATM   24  O   UNK N   1      25.845  28.293  -2.938  0.00  0.00    -0.314 OA
HETATM   25  C   UNK N   1      25.791  27.370  -3.971  0.00  0.00     0.213 A 
ENDBRANCH  13  20
BRANCH  16  26
HETATM   26  O   UNK N   1      30.607  25.585  -4.420  0.00  0.00    -0.395 OA
HETATM   27  H   UNK N   1      31.303  25.871  -5.034  0.00  0.00     0.210 HD
ENDBRANCH  16  26
BRANCH  19  28
HETATM   28  O   UNK N   1      29.623  24.611  -6.691  0.00  0.00    -0.389 OA
HETATM   29  H   UNK N   1      30.292  25.172  -7.116  0.00  0.00     0.210 HD
ENDBRANCH  19  28
BRANCH  12  30
HETATM   30  O   UNK N   1      34.196  19.441  -5.118  0.00  0.00    -0.396 OA
HETATM   31  H   UNK N   1      34.481  19.757  -5.989  0.00  0.00     0.210 HD
ENDBRANCH  12  30
TORSDOF 4
ENDMDL
MODEL 6
REMARK VINA RESULT:      -7.1      3.869      7.027
REMARK  4 active torsions:
REMARK  status: ('A' for Active; 'I' for Inactive)
REMARK    1  A    between atoms: C_16  and  C_13 
REMARK    2  A    between atoms: C_15  and  O_24 
REMARK    3  A    between atoms: C_19  and  O_25 
REMARK    4  A    between atoms: C_23  and  O_27 
ROOT
HETATM    1  C   UNK N   1      37.236  13.140  15.048  0.00  0.00     0.016 C 
HETATM    2  C   UNK N   1      34.980  12.181  10.417  0.00  0.00     0.022 C 
HETATM    3  C   UNK N   1      36.882   9.732  14.889  0.00  0.00     0.006 C 
HETATM    4  C   UNK N   1      37.436  10.266  13.572  0.00  0.00     0.008 C 
HETATM    5  C   UNK N   1      35.324  12.785  17.539  0.00  0.00     0.032 C 
HETATM    6  C   UNK N   1      37.719  12.551   9.511  0.00  0.00     0.013 C 
HETATM    7  C   UNK N   1      35.005  12.935  16.062  0.00  0.00     0.012 C 
HETATM    8  C   UNK N   1      37.794  11.467  10.620  0.00  0.00     0.040 C 
HETATM    9  C   UNK N   1      35.460  10.328  16.829  0.00  0.00     0.037 C 
HETATM   10  C   UNK N   1      34.581  12.976  13.173  0.00  0.00     0.038 C 
HETATM   11  C   UNK N   1      36.542  10.863  15.885  0.00  0.00    -0.004 C 
HETATM   12  C   UNK N   1      35.152  11.324  17.966  0.00  0.00     0.118 C 
HETATM   13  C   UNK N   1      36.931  13.725  10.120  0.00  0.00     0.030 C 
HETATM   14  C   UNK N   1      36.387  11.109  12.820  0.00  0.00     0.026 C 
HETATM   15  C   UNK N   1      35.406  11.839  13.821  0.00  0.00     0.003 C 
HETATM   16  C   UNK N   1      35.340  13.889  12.206  0.00  0.00     0.130 C 
HETATM   17  C   UNK N   1      36.051  12.197  15.192  0.00  0.00    -0.036 C 
HETATM   18  C   UNK N   1      36.063  13.010  11.163  0.00  0.00     0.021 C 
HETATM   19  C   UNK N   1      37.091  12.088  11.832  0.00  0.00     0.072 C 
ENDROOT
BRANCH  13  20
HETATM   20  C   UNK N   1      36.098  14.535   9.154  0.00  0.00    -0.045 A 
HETATM   21  C   UNK N   1      36.117  14.331   7.845  0.00  0.00     0.087 A 
HETATM   22  C   UNK N   1      35.304  15.368   7.293  0.00  0.00     0.283 A 
HETATM   23  O   UNK N   1      35.110  15.545   6.103  0.00  0.00    -0.260 OA
HETATM   24  O   UNK N   1      34.817  16.165   8.256  0.00  0.00    -0.314 OA
HETATM   25  C   UNK N   1      35.239  15.732   9.504  0.00  0.00     0.213 A 
ENDBRANCH  13  20
BRANCH  16  26
HETATM   26  O   UNK N   1      36.225  14.718  12.898  0.00  0.00    -0.395 OA
HETATM   27  H   UNK N   1      36.911  15.108  13.463  0.00  0.00     0.210 HD
ENDBRANCH  16  26
BRANCH  19  28
HETATM   28  O   UNK N   1      38.063  12.836  12.508  0.00  0.00    -0.389 OA
HETATM   29  H   UNK N   1      38.550  13.445  13.085  0.00  0.00     0.210 HD
ENDBRANCH  19  28
BRANCH  12  30
HETATM   30  O   UNK N   1      35.997  11.077  19.046  0.00  0.00    -0.396 OA
HETATM   31  H   UNK N   1      36.130  11.600  19.852  0.00  0.00     0.210 HD
ENDBRANCH  12  30
TORSDOF 4
ENDMDL
MODEL 7
REMARK VINA RESULT:      -7.0     15.884     17.499
REMARK  4 active torsions:
REMARK  status: ('A' for Active; 'I' for Inactive)
REMARK    1  A    between atoms: C_16  and  C_13 
REMARK    2  A    between atoms: C_15  and  O_24 
REMARK    3  A    between atoms: C_19  and  O_25 
REMARK    4  A    between atoms: C_23  and  O_27 
ROOT
HETATM    1  C   UNK N   1      30.276  23.515  -7.723  0.00  0.00     0.016 C 
HETATM    2  C   UNK N   1      26.335  24.788  -4.513  0.00  0.00     0.022 C 
HETATM    3  C   UNK N   1      27.979  20.988  -8.046  0.00  0.00     0.006 C 
HETATM    4  C   UNK N   1      27.280  22.344  -8.088  0.00  0.00     0.008 C 
HETATM    5  C   UNK N   1      32.092  21.141  -6.696  0.00  0.00     0.032 C 
HETATM    6  C   UNK N   1      25.660  26.514  -6.755  0.00  0.00     0.013 C 
HETATM    7  C   UNK N   1      31.097  22.016  -5.954  0.00  0.00     0.012 C 
HETATM    8  C   UNK N   1      25.792  25.088  -7.356  0.00  0.00     0.040 C 
HETATM    9  C   UNK N   1      29.952  19.803  -7.130  0.00  0.00     0.037 C 
HETATM   10  C   UNK N   1      28.971  23.610  -4.743  0.00  0.00     0.038 C 
HETATM   11  C   UNK N   1      29.493  21.116  -7.772  0.00  0.00    -0.004 C 
HETATM   12  C   UNK N   1      31.484  19.759  -6.952  0.00  0.00     0.118 C 
HETATM   13  C   UNK N   1      26.947  26.752  -5.944  0.00  0.00     0.030 C 
HETATM   14  C   UNK N   1      27.344  23.055  -6.722  0.00  0.00     0.026 C 
HETATM   15  C   UNK N   1      28.656  22.670  -5.931  0.00  0.00     0.003 C 
HETATM   16  C   UNK N   1      28.766  25.106  -4.999  0.00  0.00     0.130 C 
HETATM   17  C   UNK N   1      29.873  22.340  -6.845  0.00  0.00    -0.036 C 
HETATM   18  C   UNK N   1      27.347  25.319  -5.566  0.00  0.00     0.021 C 
HETATM   19  C   UNK N   1      27.171  24.593  -6.907  0.00  0.00     0.072 C 
ENDROOT
BRANCH  13  20
HETATM   20  C   UNK N   1      26.809  27.637  -4.728  0.00  0.00    -0.045 A 
HETATM   21  C   UNK N   1      27.853  28.120  -4.070  0.00  0.00     0.087 A 
HETATM   22  C   UNK N   1      27.303  28.788  -2.933  0.00  0.00     0.283 A 
HETATM   23  O   UNK N   1      27.955  29.328  -2.058  0.00  0.00    -0.260 OA
HETATM   24  O   UNK N   1      25.964  28.701  -2.923  0.00  0.00    -0.314 OA
HETATM   25  C   UNK N   1      25.515  27.998  -4.029  0.00  0.00     0.213 A 
ENDBRANCH  13  20
BRANCH  16  26
HETATM   26  O   UNK N   1      29.753  25.603  -5.852  0.00  0.00    -0.395 OA
HETATM   27  H   UNK N   1      30.458  26.103  -6.294  0.00  0.00     0.210 HD
ENDBRANCH  16  26
BRANCH  19  28
HETATM   28  O   UNK N   1      28.086  25.069  -7.854  0.00  0.00    -0.389 OA
HETATM   29  H   UNK N   1      28.611  25.246  -8.650  0.00  0.00     0.210 HD
ENDBRANCH  19  28
BRANCH  12  30
HETATM   30  O   UNK N   1      32.072  19.223  -8.097  0.00  0.00    -0.396 OA
HETATM   31  H   UNK N   1      32.406  19.679  -8.884  0.00  0.00     0.210 HD
ENDBRANCH  12  30
TORSDOF 4
ENDMDL
MODEL 8
REMARK VINA RESULT:      -6.9      5.101      8.620
REMARK  4 active torsions:
REMARK  status: ('A' for Active; 'I' for Inactive)
REMARK    1  A    between atoms: C_16  and  C_13 
REMARK    2  A    between atoms: C_15  and  O_24 
REMARK    3  A    between atoms: C_19  and  O_25 
REMARK    4  A    between atoms: C_23  and  O_27 
ROOT
HETATM    1  C   UNK N   1      36.786  12.535  15.664  0.00  0.00     0.016 C 
HETATM    2  C   UNK N   1      34.148   9.497  12.306  0.00  0.00     0.022 C 
HETATM    3  C   UNK N   1      36.523   9.480  17.203  0.00  0.00     0.006 C 
HETATM    4  C   UNK N   1      36.938   9.302  15.746  0.00  0.00     0.008 C 
HETATM    5  C   UNK N   1      35.120  13.460  18.185  0.00  0.00     0.032 C 
HETATM    6  C   UNK N   1      36.781   9.336  11.080  0.00  0.00     0.013 C 
HETATM    7  C   UNK N   1      34.664  12.882  16.856  0.00  0.00     0.012 C 
HETATM    8  C   UNK N   1      36.989   8.922  12.562  0.00  0.00     0.040 C 
HETATM    9  C   UNK N   1      35.266  10.963  18.739  0.00  0.00     0.037 C 
HETATM   10  C   UNK N   1      33.977  11.531  14.360  0.00  0.00     0.038 C 
HETATM   11  C   UNK N   1      36.240  10.957  17.556  0.00  0.00    -0.004 C 
HETATM   12  C   UNK N   1      35.032  12.389  19.277  0.00  0.00     0.118 C 
HETATM   13  C   UNK N   1      36.016  10.672  11.118  0.00  0.00     0.030 C 
HETATM   14  C   UNK N   1      35.800   9.695  14.783  0.00  0.00     0.026 C 
HETATM   15  C   UNK N   1      34.892  10.834  15.395  0.00  0.00     0.003 C 
HETATM   16  C   UNK N   1      34.617  11.851  13.006  0.00  0.00     0.130 C 
HETATM   17  C   UNK N   1      35.648  11.799  16.355  0.00  0.00    -0.036 C 
HETATM   18  C   UNK N   1      35.268  10.565  12.454  0.00  0.00     0.021 C 
HETATM   19  C   UNK N   1      36.381  10.063  13.384  0.00  0.00     0.072 C 
ENDROOT
BRANCH  13  20
HETATM   20  C   UNK N   1      35.075  10.929   9.965  0.00  0.00    -0.045 A 
HETATM   21  C   UNK N   1      34.467  12.091   9.781  0.00  0.00     0.087 A 
HETATM   22  C   UNK N   1      33.585  11.882   8.676  0.00  0.00     0.283 A 
HETATM   23  O   UNK N   1      32.816  12.714   8.229  0.00  0.00    -0.260 OA
HETATM   24  O   UNK N   1      33.673  10.624   8.219  0.00  0.00    -0.314 OA
HETATM   25  C   UNK N   1      34.607   9.906   8.951  0.00  0.00     0.213 A 
ENDBRANCH  13  20
BRANCH  16  26
HETATM   26  O   UNK N   1      35.536  12.895  13.125  0.00  0.00    -0.395 OA
HETATM   27  H   UNK N   1      36.002  13.733  13.274  0.00  0.00     0.210 HD
ENDBRANCH  16  26
BRANCH  19  28
HETATM   28  O   UNK N   1      37.387  11.027  13.520  0.00  0.00    -0.389 OA
HETATM   29  H   UNK N   1      38.221  11.508  13.645  0.00  0.00     0.210 HD
ENDBRANCH  19  28
BRANCH  12  30
HETATM   30  O   UNK N   1      35.978  12.680  20.258  0.00  0.00    -0.396 OA
HETATM   31  H   UNK N   1      35.888  12.653  21.223  0.00  0.00     0.210 HD
ENDBRANCH  12  30
TORSDOF 4
ENDMDL
MODEL 9
REMARK VINA RESULT:      -6.8     12.670     14.984
REMARK  4 active torsions:
REMARK  status: ('A' for Active; 'I' for Inactive)
REMARK    1  A    between atoms: C_16  and  C_13 
REMARK    2  A    between atoms: C_15  and  O_24 
REMARK    3  A    between atoms: C_19  and  O_25 
REMARK    4  A    between atoms: C_23  and  O_27 
ROOT
HETATM    1  C   UNK N   1      31.605  19.829  -5.354  0.00  0.00     0.016 C 
HETATM    2  C   UNK N   1      30.378  24.769  -4.110  0.00  0.00     0.022 C 
HETATM    3  C   UNK N   1      34.138  20.917  -3.313  0.00  0.00     0.006 C 
HETATM    4  C   UNK N   1      32.786  21.312  -2.730  0.00  0.00     0.008 C 
HETATM    5  C   UNK N   1      33.980  19.547  -7.420  0.00  0.00     0.032 C 
HETATM    6  C   UNK N   1      28.634  23.390  -2.234  0.00  0.00     0.013 C 
HETATM    7  C   UNK N   1      33.116  20.745  -7.065  0.00  0.00     0.012 C 
HETATM    8  C   UNK N   1      30.054  22.815  -1.978  0.00  0.00     0.040 C 
HETATM    9  C   UNK N   1      35.324  20.463  -5.441  0.00  0.00     0.037 C 
HETATM   10  C   UNK N   1      31.542  23.001  -6.085  0.00  0.00     0.038 C 
HETATM   11  C   UNK N   1      34.006  20.235  -4.692  0.00  0.00    -0.004 C 
HETATM   12  C   UNK N   1      35.362  19.691  -6.776  0.00  0.00     0.118 C 
HETATM   13  C   UNK N   1      28.398  23.275  -3.751  0.00  0.00     0.030 C 
HETATM   14  C   UNK N   1      32.087  22.378  -3.597  0.00  0.00     0.026 C 
HETATM   15  C   UNK N   1      32.473  22.226  -5.122  0.00  0.00     0.003 C 
HETATM   16  C   UNK N   1      30.045  22.932  -5.772  0.00  0.00     0.130 C 
HETATM   17  C   UNK N   1      32.789  20.764  -5.552  0.00  0.00    -0.036 C 
HETATM   18  C   UNK N   1      29.833  23.325  -4.294  0.00  0.00     0.021 C 
HETATM   19  C   UNK N   1      30.547  22.348  -3.352  0.00  0.00     0.072 C 
ENDROOT
BRANCH  13  20
HETATM   20  C   UNK N   1      27.525  24.342  -4.368  0.00  0.00    -0.045 A 
HETATM   21  C   UNK N   1      27.082  25.388  -3.687  0.00  0.00     0.087 A 
HETATM   22  C   UNK N   1      26.204  26.074  -4.583  0.00  0.00     0.283 A 
HETATM   23  O   UNK N   1      25.563  27.071  -4.305  0.00  0.00    -0.260 OA
HETATM   24  O   UNK N   1      26.134  25.445  -5.766  0.00  0.00    -0.314 OA
HETATM   25  C   UNK N   1      26.948  24.322  -5.768  0.00  0.00     0.213 A 
ENDBRANCH  13  20
BRANCH  16  26
HETATM   26  O   UNK N   1      29.536  21.663  -6.055  0.00  0.00    -0.395 OA
HETATM   27  H   UNK N   1      29.266  20.731  -6.059  0.00  0.00     0.210 HD
ENDBRANCH  16  26
BRANCH  19  28
HETATM   28  O   UNK N   1      30.059  21.047  -3.522  0.00  0.00    -0.389 OA
HETATM   29  H   UNK N   1      29.741  20.137  -3.407  0.00  0.00     0.210 HD
ENDBRANCH  19  28
BRANCH  12  30
HETATM   30  O   UNK N   1      35.886  18.417  -6.563  0.00  0.00    -0.396 OA
HETATM   31  H   UNK N   1      36.563  18.130  -5.931  0.00  0.00     0.210 HD
ENDBRANCH  12  30
TORSDOF 4
ENDMDL
