MODEL 1
REMARK VINA RESULT:      -6.9      0.000      0.000
REMARK  30 active torsions:
REMARK  status: ('A' for Active; 'I' for Inactive)
REMARK    1  A    between atoms: C_1  and  C_2 
REMARK    2  A    between atoms: C_1  and  C_55 
REMARK    3  A    between atoms: C_2  and  S_3 
REMARK    4  A    between atoms: S_3  and  C_4 
REMARK    5  A    between atoms: C_4  and  C_5 
REMARK    6  A    between atoms: C_5  and  N_6 
REMARK       I    between atoms: N_6  and  C_7 
REMARK    7  A    between atoms: C_7  and  C_8 
REMARK    8  A    between atoms: C_8  and  C_9 
REMARK    9  A    between atoms: C_9  and  N_10 
REMARK       I    between atoms: N_10  and  C_11 
REMARK   10  A    between atoms: C_11  and  C_12 
REMARK   11  A    between atoms: C_12  and  C_13 
REMARK   12  A    between atoms: C_12  and  O_19 
REMARK   13  A    between atoms: C_13  and  C_14 
REMARK   14  A    between atoms: C_14  and  O_15 
REMARK   15  A    between atoms: O_15  and  P_22 
REMARK   16  A    between atoms: P_22  and  O_24 
REMARK   17  A    between atoms: P_22  and  O_54 
REMARK   18  A    between atoms: C_25  and  O_31 
REMARK   19  A    between atoms: C_26  and  O_32 
REMARK   20  A    between atoms: C_27  and  C_30 
REMARK   21  A    between atoms: C_29  and  N_39 
REMARK   22  A    between atoms: C_30  and  O_50 
REMARK   23  A    between atoms: O_32  and  P_33 
REMARK   24  A    between atoms: P_33  and  O_34 
REMARK   25  A    between atoms: P_33  and  O_35 
REMARK   26  A    between atoms: C_43  and  N_49 
REMARK   27  A    between atoms: O_50  and  P_51 
REMARK   28  A    between atoms: P_51  and  O_52 
REMARK   29  A    between atoms: P_51  and  O_54 
REMARK   30  A    between atoms: C_55  and  O_57 
ROOT
HETATM    1  P   UNK N   1      20.104  16.181   6.956  0.00  0.00     0.401 P 
HETATM    2  O   UNK N   1      18.832  16.491   7.790  0.00  0.00    -0.631 OA
ENDROOT
BRANCH   1   3
HETATM    3  O   UNK N   1      21.466  17.248   7.210  0.00  0.00    -0.294 OA
BRANCH   3   4
HETATM    4  C   UNK N   1      21.352  18.287   6.284  0.00  0.00     0.215 C 
BRANCH   4   5
HETATM    5  C   UNK N   1      22.394  18.123   5.175  0.00  0.00     0.180 C 
HETATM    6  C   UNK N   1      22.023  19.063   4.031  0.00  0.00     0.197 C 
HETATM    7  C   UNK N   1      23.366  19.519   3.613  0.00  0.00     0.199 C 
HETATM    8  C   UNK N   1      24.200  19.490   4.855  0.00  0.00     0.262 C 
HETATM    9  O   UNK N   1      23.688  18.451   5.667  0.00  0.00    -0.353 OA
BRANCH   6  10
HETATM   10  O   UNK N   1      21.508  18.432   2.884  0.00  0.00    -0.286 OA
BRANCH  10  11
HETATM   11  P   UNK N   1      20.038  19.162   2.304  0.00  0.00     0.391 P 
HETATM   12  O   UNK N   1      20.160  20.448   1.449  0.00  0.00    -0.632 OA
BRANCH  11  13
HETATM   13  O   UNK N   1      20.313  18.238   0.871  0.00  0.00    -0.307 OA
HETATM   14  H   UNK N   1      20.653  17.975   0.001  0.00  0.00     0.222 HD
ENDBRANCH  11  13
BRANCH  11  15
HETATM   15  O   UNK N   1      18.479  18.406   2.353  0.00  0.00    -0.307 OA
HETATM   16  H   UNK N   1      17.696  18.867   2.015  0.00  0.00     0.222 HD
ENDBRANCH  11  15
ENDBRANCH  10  11
ENDBRANCH   6  10
BRANCH   7  17
HETATM   17  O   UNK N   1      23.315  20.789   3.054  0.00  0.00    -0.388 OA
HETATM   18  H   UNK N   1      23.120  21.574   3.590  0.00  0.00     0.210 HD
ENDBRANCH   7  17
BRANCH   8  19
HETATM   19  N   UNK N   1      25.592  19.232   4.457  0.00  0.00    -0.297 N 
HETATM   20  C   UNK N   1      26.397  18.246   4.884  0.00  0.00     0.142 A 
HETATM   21  C   UNK N   1      27.620  18.393   4.344  0.00  0.00     0.122 A 
HETATM   22  N   UNK N   1      26.103  17.245   5.753  0.00  0.00    -0.336 N 
HETATM   23  N   UNK N   1      27.633  19.470   3.535  0.00  0.00    -0.346 N 
HETATM   24  C   UNK N   1      28.639  17.511   4.673  0.00  0.00     0.131 A 
HETATM   25  C   UNK N   1      26.368  19.975   3.622  0.00  0.00     0.188 A 
ATOM     26  HN  UNK N   1      28.411  19.827   2.982  1.00  0.00     0.167 HD
HETATM   27  N   UNK N   1      28.354  16.501   5.549  0.00  0.00    -0.337 N 
HETATM   28  C   UNK N   1      27.096  16.365   6.084  0.00  0.00     0.183 A 
ATOM     29  HN  UNK N   1      29.085  15.839   5.809  1.00  0.00     0.168 HD
ATOM     30  HN  UNK N   1      25.168  17.154   6.150  1.00  0.00     0.168 HD
BRANCH  24  31
HETATM   31  N   UNK N   1      29.935  17.652   4.139  0.00  0.00    -0.383 N 
HETATM   32  H   UNK N   1      30.365  16.987   3.554  0.00  0.00     0.157 HD
HETATM   33  H   UNK N   1      30.443  18.465   4.365  0.00  0.00     0.157 HD
ENDBRANCH  24  31
ENDBRANCH   8  19
ENDBRANCH   4   5
ENDBRANCH   3   4
ENDBRANCH   1   3
BRANCH   1  34
HETATM   34  O   UNK N   1      20.706  15.393   8.377  0.00  0.00    -0.307 OA
HETATM   35  H   UNK N   1      20.288  15.366   9.252  0.00  0.00     0.222 HD
ENDBRANCH   1  34
BRANCH   1  36
HETATM   36  O   UNK N   1      20.223  14.578   6.272  0.00  0.00    -0.195 OA
BRANCH  36  37
HETATM   37  P   UNK N   1      19.369  14.552   4.749  0.00  0.00     0.401 P 
HETATM   38  O   UNK N   1      19.422  15.974   4.129  0.00  0.00    -0.631 OA
BRANCH  37  39
HETATM   39  O   UNK N   1      20.055  13.436   3.607  0.00  0.00    -0.296 OA
BRANCH  39  40
HETATM   40  C   UNK N   1      19.093  13.258   2.598  0.00  0.00     0.192 C 
BRANCH  40  41
HETATM   41  C   UNK N   1      19.767  13.183   1.226  0.00  0.00     0.009 C 
HETATM   42  C   UNK N   1      20.895  12.160   1.294  0.00  0.00     0.020 C 
HETATM   43  C   UNK N   1      18.748  12.668   0.225  0.00  0.00     0.020 C 
BRANCH  41  44
HETATM   44  C   UNK N   1      20.271  14.581   0.770  0.00  0.00     0.219 C 
BRANCH  44  45
HETATM   45  C   UNK N   1      21.709  14.778   1.154  0.00  0.00     0.247 C 
HETATM   46  N   UNK N   1      21.996  15.280   2.379  0.00  0.00    -0.358 N 
HETATM   47  H   UNK N   1      21.265  15.652   2.925  0.00  0.00     0.162 HD
HETATM   48  O   UNK N   1      22.604  14.396   0.413  0.00  0.00    -0.271 OA
BRANCH  46  49
HETATM   49  C   UNK N   1      23.328  15.286   2.903  0.00  0.00     0.132 C 
BRANCH  49  50
HETATM   50  C   UNK N   1      23.257  15.375   4.421  0.00  0.00     0.122 C 
BRANCH  50  51
HETATM   51  C   UNK N   1      23.624  14.048   4.948  0.00  0.00     0.219 C 
HETATM   52  N   UNK N   1      24.388  13.966   6.062  0.00  0.00    -0.360 N 
HETATM   53  H   UNK N   1      24.529  14.771   6.612  0.00  0.00     0.162 HD
HETATM   54  O   UNK N   1      23.317  13.045   4.320  0.00  0.00    -0.274 OA
BRANCH  52  55
HETATM   55  C   UNK N   1      24.997  12.728   6.457  0.00  0.00     0.133 C 
BRANCH  55  56
HETATM   56  C   UNK N   1      24.496  12.411   7.855  0.00  0.00     0.102 C 
BRANCH  56  57
HETATM   57  S   UNK N   1      23.013  11.386   7.750  0.00  0.00    -0.091 SA
BRANCH  57  58
HETATM   58  C   UNK N   1      22.157  12.329   9.013  0.00  0.00     0.188 C 
HETATM   59  O   UNK N   1      20.979  12.619   8.881  0.00  0.00    -0.285 OA
BRANCH  58  60
HETATM   60  C   UNK N   1      22.875  12.703  10.263  0.00  0.00     0.122 C 
BRANCH  60  61
HETATM   61  C   UNK N   1      22.519  11.713  11.356  0.00  0.00     0.121 C 
HETATM   62  C   UNK N   1      23.347  11.995  12.589  0.00  0.00     0.040 C 
BRANCH  61  63
HETATM   63  O   UNK N   1      21.165  11.837  11.669  0.00  0.00    -0.396 OA
HETATM   64  H   UNK N   1      20.688  12.617  11.994  0.00  0.00     0.210 HD
ENDBRANCH  61  63
ENDBRANCH  60  61
ENDBRANCH  58  60
ENDBRANCH  57  58
ENDBRANCH  56  57
ENDBRANCH  55  56
ENDBRANCH  52  55
ENDBRANCH  50  51
ENDBRANCH  49  50
ENDBRANCH  46  49
ENDBRANCH  44  45
BRANCH  44  65
HETATM   65  O   UNK N   1      19.509  15.609   1.338  0.00  0.00    -0.385 OA
HETATM   66  H   UNK N   1      18.698  15.480   1.853  0.00  0.00     0.210 HD
ENDBRANCH  44  65
ENDBRANCH  41  44
ENDBRANCH  40  41
ENDBRANCH  39  40
ENDBRANCH  37  39
BRANCH  37  67
HETATM   67  O   UNK N   1      17.693  14.196   5.045  0.00  0.00    -0.307 OA
HETATM   68  H   UNK N   1      17.120  13.470   5.337  0.00  0.00     0.222 HD
ENDBRANCH  37  67
ENDBRANCH  36  37
ENDBRANCH   1  36
TORSDOF 30
ENDMDL
MODEL 2
REMARK VINA RESULT:      -6.4      2.948      6.254
REMARK  30 active torsions:
REMARK  status: ('A' for Active; 'I' for Inactive)
REMARK    1  A    between atoms: C_1  and  C_2 
REMARK    2  A    between atoms: C_1  and  C_55 
REMARK    3  A    between atoms: C_2  and  S_3 
REMARK    4  A    between atoms: S_3  and  C_4 
REMARK    5  A    between atoms: C_4  and  C_5 
REMARK    6  A    between atoms: C_5  and  N_6 
REMARK       I    between atoms: N_6  and  C_7 
REMARK    7  A    between atoms: C_7  and  C_8 
REMARK    8  A    between atoms: C_8  and  C_9 
REMARK    9  A    between atoms: C_9  and  N_10 
REMARK       I    between atoms: N_10  and  C_11 
REMARK   10  A    between atoms: C_11  and  C_12 
REMARK   11  A    between atoms: C_12  and  C_13 
REMARK   12  A    between atoms: C_12  and  O_19 
REMARK   13  A    between atoms: C_13  and  C_14 
REMARK   14  A    between atoms: C_14  and  O_15 
REMARK   15  A    between atoms: O_15  and  P_22 
REMARK   16  A    between atoms: P_22  and  O_24 
REMARK   17  A    between atoms: P_22  and  O_54 
REMARK   18  A    between atoms: C_25  and  O_31 
REMARK   19  A    between atoms: C_26  and  O_32 
REMARK   20  A    between atoms: C_27  and  C_30 
REMARK   21  A    between atoms: C_29  and  N_39 
REMARK   22  A    between atoms: C_30  and  O_50 
REMARK   23  A    between atoms: O_32  and  P_33 
REMARK   24  A    between atoms: P_33  and  O_34 
REMARK   25  A    between atoms: P_33  and  O_35 
REMARK   26  A    between atoms: C_43  and  N_49 
REMARK   27  A    between atoms: O_50  and  P_51 
REMARK   28  A    between atoms: P_51  and  O_52 
REMARK   29  A    between atoms: P_51  and  O_54 
REMARK   30  A    between atoms: C_55  and  O_57 
ROOT
HETATM    1  P   UNK N   1      21.314  16.873   6.125  0.00  0.00     0.401 P 
HETATM    2  O   UNK N   1      21.526  18.292   6.719  0.00  0.00    -0.631 OA
ENDROOT
BRANCH   1   3
HETATM    3  O   UNK N   1      22.563  15.701   6.478  0.00  0.00    -0.294 OA
BRANCH   3   4
HETATM    4  C   UNK N   1      23.687  16.061   5.731  0.00  0.00     0.215 C 
BRANCH   4   5
HETATM    5  C   UNK N   1      24.964  15.658   6.472  0.00  0.00     0.180 C 
HETATM    6  C   UNK N   1      25.316  14.228   6.070  0.00  0.00     0.197 C 
HETATM    7  C   UNK N   1      26.790  14.326   5.997  0.00  0.00     0.199 C 
HETATM    8  C   UNK N   1      27.074  15.739   5.594  0.00  0.00     0.262 C 
HETATM    9  O   UNK N   1      26.030  16.533   6.123  0.00  0.00    -0.353 OA
BRANCH   6  10
HETATM   10  O   UNK N   1      25.090  13.257   7.062  0.00  0.00    -0.286 OA
BRANCH  10  11
HETATM   11  P   UNK N   1      23.944  12.040   6.579  0.00  0.00     0.391 P 
HETATM   12  O   UNK N   1      24.500  10.695   6.048  0.00  0.00    -0.632 OA
BRANCH  11  13
HETATM   13  O   UNK N   1      24.130  11.431   8.185  0.00  0.00    -0.307 OA
HETATM   14  H   UNK N   1      24.138  10.818   8.937  0.00  0.00     0.222 HD
ENDBRANCH  11  13
BRANCH  11  15
HETATM   15  O   UNK N   1      22.246  12.097   6.922  0.00  0.00    -0.307 OA
HETATM   16  H   UNK N   1      21.609  11.658   6.338  0.00  0.00     0.222 HD
ENDBRANCH  11  15
ENDBRANCH  10  11
ENDBRANCH   6  10
BRANCH   7  17
HETATM   17  O   UNK N   1      27.310  13.415   5.088  0.00  0.00    -0.388 OA
HETATM   18  H   UNK N   1      28.125  13.598   4.593  0.00  0.00     0.210 HD
ENDBRANCH   7  17
BRANCH   8  19
HETATM   19  N   UNK N   1      28.380  16.114   6.159  0.00  0.00    -0.297 N 
HETATM   20  C   UNK N   1      28.622  16.704   7.341  0.00  0.00     0.142 A 
HETATM   21  C   UNK N   1      29.939  16.951   7.463  0.00  0.00     0.122 A 
HETATM   22  N   UNK N   1      27.726  17.062   8.295  0.00  0.00    -0.336 N 
HETATM   23  N   UNK N   1      30.587  16.506   6.369  0.00  0.00    -0.346 N 
HETATM   24  C   UNK N   1      30.426  17.597   8.590  0.00  0.00     0.131 A 
HETATM   25  C   UNK N   1      29.603  15.994   5.575  0.00  0.00     0.188 A 
ATOM     26  HN  UNK N   1      31.588  16.544   6.178  1.00  0.00     0.167 HD
HETATM   27  N   UNK N   1      29.531  17.962   9.556  0.00  0.00    -0.337 N 
HETATM   28  C   UNK N   1      28.191  17.696   9.414  0.00  0.00     0.183 A 
ATOM     29  HN  UNK N   1      29.863  18.441  10.394  1.00  0.00     0.168 HD
ATOM     30  HN  UNK N   1      26.732  16.864   8.181  1.00  0.00     0.168 HD
BRANCH  24  31
HETATM   31  N   UNK N   1      31.797  17.887   8.736  0.00  0.00    -0.383 N 
HETATM   32  H   UNK N   1      32.158  18.794   8.855  0.00  0.00     0.157 HD
HETATM   33  H   UNK N   1      32.434  17.135   8.719  0.00  0.00     0.157 HD
ENDBRANCH  24  31
ENDBRANCH   8  19
ENDBRANCH   4   5
ENDBRANCH   3   4
ENDBRANCH   1   3
BRANCH   1  34
HETATM   34  O   UNK N   1      20.726  16.429   7.692  0.00  0.00    -0.307 OA
HETATM   35  H   UNK N   1      20.640  15.532   8.053  0.00  0.00     0.222 HD
ENDBRANCH   1  34
BRANCH   1  36
HETATM   36  O   UNK N   1      19.690  16.464   5.629  0.00  0.00    -0.195 OA
BRANCH  36  37
HETATM   37  P   UNK N   1      19.605  14.744   5.344  0.00  0.00     0.401 P 
HETATM   38  O   UNK N   1      18.139  14.372   4.998  0.00  0.00    -0.631 OA
BRANCH  37  39
HETATM   39  O   UNK N   1      20.621  14.224   4.034  0.00  0.00    -0.296 OA
BRANCH  39  40
HETATM   40  C   UNK N   1      19.786  13.554   3.124  0.00  0.00     0.192 C 
BRANCH  40  41
HETATM   41  C   UNK N   1      20.248  13.808   1.687  0.00  0.00     0.009 C 
HETATM   42  C   UNK N   1      20.797  12.506   1.117  0.00  0.00     0.020 C 
HETATM   43  C   UNK N   1      19.034  14.191   0.859  0.00  0.00     0.020 C 
BRANCH  41  44
HETATM   44  C   UNK N   1      21.292  14.959   1.627  0.00  0.00     0.219 C 
BRANCH  44  45
HETATM   45  C   UNK N   1      20.617  16.274   1.360  0.00  0.00     0.247 C 
HETATM   46  N   UNK N   1      20.235  17.038   2.411  0.00  0.00    -0.358 N 
HETATM   47  H   UNK N   1      20.259  16.651   3.316  0.00  0.00     0.162 HD
HETATM   48  O   UNK N   1      20.510  16.691   0.215  0.00  0.00    -0.271 OA
BRANCH  46  49
HETATM   49  C   UNK N   1      19.795  18.390   2.244  0.00  0.00     0.132 C 
BRANCH  49  50
HETATM   50  C   UNK N   1      20.428  19.248   3.331  0.00  0.00     0.122 C 
BRANCH  50  51
HETATM   51  C   UNK N   1      21.421  20.116   2.672  0.00  0.00     0.219 C 
HETATM   52  N   UNK N   1      22.715  20.059   3.065  0.00  0.00    -0.360 N 
HETATM   53  H   UNK N   1      23.013  19.318   3.640  0.00  0.00     0.162 HD
HETATM   54  O   UNK N   1      21.048  20.942   1.852  0.00  0.00    -0.274 OA
BRANCH  52  55
HETATM   55  C   UNK N   1      23.660  21.059   2.658  0.00  0.00     0.133 C 
BRANCH  55  56
HETATM   56  C   UNK N   1      25.026  20.398   2.633  0.00  0.00     0.102 C 
BRANCH  56  57
HETATM   57  S   UNK N   1      25.126  19.161   3.946  0.00  0.00    -0.091 SA
BRANCH  57  58
HETATM   58  C   UNK N   1      26.880  19.435   4.200  0.00  0.00     0.188 C 
HETATM   59  O   UNK N   1      27.698  18.601   3.847  0.00  0.00    -0.285 OA
BRANCH  58  60
HETATM   60  C   UNK N   1      27.345  20.723   4.787  0.00  0.00     0.122 C 
BRANCH  60  61
HETATM   61  C   UNK N   1      27.292  20.628   6.300  0.00  0.00     0.121 C 
HETATM   62  C   UNK N   1      26.294  21.627   6.840  0.00  0.00     0.040 C 
BRANCH  61  63
HETATM   63  O   UNK N   1      26.903  19.339   6.669  0.00  0.00    -0.396 OA
HETATM   64  H   UNK N   1      27.289  18.761   7.346  0.00  0.00     0.210 HD
ENDBRANCH  61  63
ENDBRANCH  60  61
ENDBRANCH  58  60
ENDBRANCH  57  58
ENDBRANCH  56  57
ENDBRANCH  55  56
ENDBRANCH  52  55
ENDBRANCH  50  51
ENDBRANCH  49  50
ENDBRANCH  46  49
ENDBRANCH  44  45
BRANCH  44  65
HETATM   65  O   UNK N   1      22.245  14.732   0.628  0.00  0.00    -0.385 OA
HETATM   66  H   UNK N   1      23.144  15.095   0.623  0.00  0.00     0.210 HD
ENDBRANCH  44  65
ENDBRANCH  41  44
ENDBRANCH  40  41
ENDBRANCH  39  40
ENDBRANCH  37  39
BRANCH  37  67
HETATM   67  O   UNK N   1      20.001  13.905   6.814  0.00  0.00    -0.307 OA
HETATM   68  H   UNK N   1      19.629  13.705   7.688  0.00  0.00     0.222 HD
ENDBRANCH  37  67
ENDBRANCH  36  37
ENDBRANCH   1  36
TORSDOF 30
ENDMDL
MODEL 3
REMARK VINA RESULT:      -6.2      2.539      5.353
REMARK  30 active torsions:
REMARK  status: ('A' for Active; 'I' for Inactive)
REMARK    1  A    between atoms: C_1  and  C_2 
REMARK    2  A    between atoms: C_1  and  C_55 
REMARK    3  A    between atoms: C_2  and  S_3 
REMARK    4  A    between atoms: S_3  and  C_4 
REMARK    5  A    between atoms: C_4  and  C_5 
REMARK    6  A    between atoms: C_5  and  N_6 
REMARK       I    between atoms: N_6  and  C_7 
REMARK    7  A    between atoms: C_7  and  C_8 
REMARK    8  A    between atoms: C_8  and  C_9 
REMARK    9  A    between atoms: C_9  and  N_10 
REMARK       I    between atoms: N_10  and  C_11 
REMARK   10  A    between atoms: C_11  and  C_12 
REMARK   11  A    between atoms: C_12  and  C_13 
REMARK   12  A    between atoms: C_12  and  O_19 
REMARK   13  A    between atoms: C_13  and  C_14 
REMARK   14  A    between atoms: C_14  and  O_15 
REMARK   15  A    between atoms: O_15  and  P_22 
REMARK   16  A    between atoms: P_22  and  O_24 
REMARK   17  A    between atoms: P_22  and  O_54 
REMARK   18  A    between atoms: C_25  and  O_31 
REMARK   19  A    between atoms: C_26  and  O_32 
REMARK   20  A    between atoms: C_27  and  C_30 
REMARK   21  A    between atoms: C_29  and  N_39 
REMARK   22  A    between atoms: C_30  and  O_50 
REMARK   23  A    between atoms: O_32  and  P_33 
REMARK   24  A    between atoms: P_33  and  O_34 
REMARK   25  A    between atoms: P_33  and  O_35 
REMARK   26  A    between atoms: C_43  and  N_49 
REMARK   27  A    between atoms: O_50  and  P_51 
REMARK   28  A    between atoms: P_51  and  O_52 
REMARK   29  A    between atoms: P_51  and  O_54 
REMARK   30  A    between atoms: C_55  and  O_57 
ROOT
HETATM    1  P   UNK N   1      20.491  15.828   6.010  0.00  0.00     0.401 P 
HETATM    2  O   UNK N   1      20.559  15.090   4.646  0.00  0.00    -0.631 OA
ENDROOT
BRANCH   1   3
HETATM    3  O   UNK N   1      21.822  16.904   6.366  0.00  0.00    -0.294 OA
BRANCH   3   4
HETATM    4  C   UNK N   1      21.701  18.003   5.512  0.00  0.00     0.215 C 
BRANCH   4   5
HETATM    5  C   UNK N   1      22.888  18.055   4.548  0.00  0.00     0.180 C 
HETATM    6  C   UNK N   1      22.889  19.423   3.869  0.00  0.00     0.197 C 
HETATM    7  C   UNK N   1      24.341  19.695   3.816  0.00  0.00     0.199 C 
HETATM    8  C   UNK N   1      24.918  19.002   5.011  0.00  0.00     0.262 C 
HETATM    9  O   UNK N   1      24.107  17.870   5.259  0.00  0.00    -0.353 OA
BRANCH   6  10
HETATM   10  O   UNK N   1      22.497  19.417   2.517  0.00  0.00    -0.286 OA
BRANCH  10  11
HETATM   11  P   UNK N   1      20.993  20.247   2.239  0.00  0.00     0.391 P 
HETATM   12  O   UNK N   1      20.062  20.480   3.455  0.00  0.00    -0.632 OA
BRANCH  11  13
HETATM   13  O   UNK N   1      21.860  21.672   2.687  0.00  0.00    -0.307 OA
HETATM   14  H   UNK N   1      22.218  22.573   2.661  0.00  0.00     0.222 HD
ENDBRANCH  11  13
BRANCH  11  15
HETATM   15  O   UNK N   1      20.591  21.092   0.780  0.00  0.00    -0.307 OA
HETATM   16  H   UNK N   1      21.102  20.949  -0.031  0.00  0.00     0.222 HD
ENDBRANCH  11  15
ENDBRANCH  10  11
ENDBRANCH   6  10
BRANCH   7  17
HETATM   17  O   UNK N   1      24.599  21.058   3.836  0.00  0.00    -0.388 OA
HETATM   18  H   UNK N   1      24.153  21.653   4.459  0.00  0.00     0.210 HD
ENDBRANCH   7  17
BRANCH   8  19
HETATM   19  N   UNK N   1      26.300  18.616   4.684  0.00  0.00    -0.297 N 
HETATM   20  C   UNK N   1      27.213  18.068   5.502  0.00  0.00     0.142 A 
HETATM   21  C   UNK N   1      28.382  17.933   4.851  0.00  0.00     0.122 A 
HETATM   22  N   UNK N   1      27.063  17.716   6.804  0.00  0.00    -0.336 N 
HETATM   23  N   UNK N   1      28.250  18.372   3.584  0.00  0.00    -0.346 N 
HETATM   24  C   UNK N   1      29.492  17.423   5.509  0.00  0.00     0.131 A 
HETATM   25  C   UNK N   1      26.954  18.792   3.504  0.00  0.00     0.188 A 
ATOM     26  HN  UNK N   1      28.958  18.387   2.851  1.00  0.00     0.167 HD
HETATM   27  N   UNK N   1      29.352  17.067   6.821  0.00  0.00    -0.337 N 
HETATM   28  C   UNK N   1      28.147  17.208   7.466  0.00  0.00     0.183 A 
ATOM     29  HN  UNK N   1      30.153  16.692   7.329  1.00  0.00     0.168 HD
ATOM     30  HN  UNK N   1      26.166  17.827   7.277  1.00  0.00     0.168 HD
BRANCH  24  31
HETATM   31  N   UNK N   1      30.735  17.288   4.858  0.00  0.00    -0.383 N 
HETATM   32  H   UNK N   1      31.479  17.925   4.956  0.00  0.00     0.157 HD
HETATM   33  H   UNK N   1      30.868  16.509   4.270  0.00  0.00     0.157 HD
ENDBRANCH  24  31
ENDBRANCH   8  19
ENDBRANCH   4   5
ENDBRANCH   3   4
ENDBRANCH   1   3
BRANCH   1  34
HETATM   34  O   UNK N   1      19.887  17.184   5.118  0.00  0.00    -0.307 OA
HETATM   35  H   UNK N   1      20.405  17.908   4.731  0.00  0.00     0.222 HD
ENDBRANCH   1  34
BRANCH   1  36
HETATM   36  O   UNK N   1      18.926  15.906   6.783  0.00  0.00    -0.195 OA
BRANCH  36  37
HETATM   37  P   UNK N   1      19.158  16.065   8.507  0.00  0.00     0.401 P 
HETATM   38  O   UNK N   1      17.817  16.515   9.146  0.00  0.00    -0.631 OA
BRANCH  37  39
HETATM   39  O   UNK N   1      19.649  14.580   9.264  0.00  0.00    -0.296 OA
BRANCH  39  40
HETATM   40  C   UNK N   1      21.039  14.667   9.445  0.00  0.00     0.192 C 
BRANCH  40  41
HETATM   41  C   UNK N   1      21.646  13.270   9.599  0.00  0.00     0.009 C 
HETATM   42  C   UNK N   1      20.899  12.536  10.706  0.00  0.00     0.020 C 
HETATM   43  C   UNK N   1      21.409  12.506   8.308  0.00  0.00     0.020 C 
BRANCH  41  44
HETATM   44  C   UNK N   1      23.175  13.347   9.874  0.00  0.00     0.219 C 
BRANCH  44  45
HETATM   45  C   UNK N   1      23.950  12.759   8.731  0.00  0.00     0.247 C 
HETATM   46  N   UNK N   1      24.462  13.590   7.792  0.00  0.00    -0.358 N 
HETATM   47  H   UNK N   1      24.183  14.535   7.788  0.00  0.00     0.162 HD
HETATM   48  O   UNK N   1      24.202  11.562   8.707  0.00  0.00    -0.271 OA
BRANCH  46  49
HETATM   49  C   UNK N   1      25.394  13.136   6.805  0.00  0.00     0.132 C 
BRANCH  49  50
HETATM   50  C   UNK N   1      26.040  14.348   6.147  0.00  0.00     0.122 C 
BRANCH  50  51
HETATM   51  C   UNK N   1      25.282  14.622   4.912  0.00  0.00     0.219 C 
HETATM   52  N   UNK N   1      25.921  15.165   3.850  0.00  0.00    -0.360 N 
HETATM   53  H   UNK N   1      26.905  15.195   3.841  0.00  0.00     0.162 HD
HETATM   54  O   UNK N   1      24.072  14.447   4.897  0.00  0.00    -0.274 OA
BRANCH  52  55
HETATM   55  C   UNK N   1      25.191  15.701   2.737  0.00  0.00     0.133 C 
BRANCH  55  56
HETATM   56  C   UNK N   1      25.482  14.810   1.542  0.00  0.00     0.102 C 
BRANCH  56  57
HETATM   57  S   UNK N   1      23.932  14.177   0.866  0.00  0.00    -0.091 SA
BRANCH  57  58
HETATM   58  C   UNK N   1      24.443  12.467   1.043  0.00  0.00     0.188 C 
HETATM   59  O   UNK N   1      23.720  11.559   0.663  0.00  0.00    -0.285 OA
BRANCH  58  60
HETATM   60  C   UNK N   1      25.790  12.157   1.596  0.00  0.00     0.122 C 
BRANCH  60  61
HETATM   61  C   UNK N   1      25.632  11.309   2.845  0.00  0.00     0.121 C 
HETATM   62  C   UNK N   1      26.834  11.493   3.742  0.00  0.00     0.040 C 
BRANCH  61  63
HETATM   63  O   UNK N   1      24.480  11.702   3.527  0.00  0.00    -0.396 OA
HETATM   64  H   UNK N   1      24.086  12.586   3.589  0.00  0.00     0.210 HD
ENDBRANCH  61  63
ENDBRANCH  60  61
ENDBRANCH  58  60
ENDBRANCH  57  58
ENDBRANCH  56  57
ENDBRANCH  55  56
ENDBRANCH  52  55
ENDBRANCH  50  51
ENDBRANCH  49  50
ENDBRANCH  46  49
ENDBRANCH  44  45
BRANCH  44  65
HETATM   65  O   UNK N   1      23.516  12.665  11.048  0.00  0.00    -0.385 OA
HETATM   66  H   UNK N   1      24.289  12.859  11.600  0.00  0.00     0.210 HD
ENDBRANCH  44  65
ENDBRANCH  41  44
ENDBRANCH  40  41
ENDBRANCH  39  40
ENDBRANCH  37  39
BRANCH  37  67
HETATM   67  O   UNK N   1      20.307  17.334   8.809  0.00  0.00    -0.307 OA
HETATM   68  H   UNK N   1      21.144  17.493   9.272  0.00  0.00     0.222 HD
ENDBRANCH  37  67
ENDBRANCH  36  37
ENDBRANCH   1  36
TORSDOF 30
ENDMDL
MODEL 4
REMARK VINA RESULT:      -6.2      2.768      6.303
REMARK  30 active torsions:
REMARK  status: ('A' for Active; 'I' for Inactive)
REMARK    1  A    between atoms: C_1  and  C_2 
REMARK    2  A    between atoms: C_1  and  C_55 
REMARK    3  A    between atoms: C_2  and  S_3 
REMARK    4  A    between atoms: S_3  and  C_4 
REMARK    5  A    between atoms: C_4  and  C_5 
REMARK    6  A    between atoms: C_5  and  N_6 
REMARK       I    between atoms: N_6  and  C_7 
REMARK    7  A    between atoms: C_7  and  C_8 
REMARK    8  A    between atoms: C_8  and  C_9 
REMARK    9  A    between atoms: C_9  and  N_10 
REMARK       I    between atoms: N_10  and  C_11 
REMARK   10  A    between atoms: C_11  and  C_12 
REMARK   11  A    between atoms: C_12  and  C_13 
REMARK   12  A    between atoms: C_12  and  O_19 
REMARK   13  A    between atoms: C_13  and  C_14 
REMARK   14  A    between atoms: C_14  and  O_15 
REMARK   15  A    between atoms: O_15  and  P_22 
REMARK   16  A    between atoms: P_22  and  O_24 
REMARK   17  A    between atoms: P_22  and  O_54 
REMARK   18  A    between atoms: C_25  and  O_31 
REMARK   19  A    between atoms: C_26  and  O_32 
REMARK   20  A    between atoms: C_27  and  C_30 
REMARK   21  A    between atoms: C_29  and  N_39 
REMARK   22  A    between atoms: C_30  and  O_50 
REMARK   23  A    between atoms: O_32  and  P_33 
REMARK   24  A    between atoms: P_33  and  O_34 
REMARK   25  A    between atoms: P_33  and  O_35 
REMARK   26  A    between atoms: C_43  and  N_49 
REMARK   27  A    between atoms: O_50  and  P_51 
REMARK   28  A    between atoms: P_51  and  O_52 
REMARK   29  A    between atoms: P_51  and  O_54 
REMARK   30  A    between atoms: C_55  and  O_57 
ROOT
HETATM    1  P   UNK N   1      20.428  16.425   7.083  0.00  0.00     0.401 P 
HETATM    2  O   UNK N   1      20.192  17.573   8.102  0.00  0.00    -0.631 OA
ENDROOT
BRANCH   1   3
HETATM    3  O   UNK N   1      21.899  15.503   7.295  0.00  0.00    -0.294 OA
BRANCH   3   4
HETATM    4  C   UNK N   1      22.862  16.069   6.456  0.00  0.00     0.215 C 
BRANCH   4   5
HETATM    5  C   UNK N   1      23.948  15.041   6.131  0.00  0.00     0.180 C 
HETATM    6  C   UNK N   1      23.452  13.668   6.577  0.00  0.00     0.197 C 
HETATM    7  C   UNK N   1      23.974  12.826   5.479  0.00  0.00     0.199 C 
HETATM    8  C   UNK N   1      23.985  13.710   4.272  0.00  0.00     0.262 C 
HETATM    9  O   UNK N   1      24.209  15.029   4.732  0.00  0.00    -0.353 OA
BRANCH   6  10
HETATM   10  O   UNK N   1      24.080  13.151   7.726  0.00  0.00    -0.286 OA
BRANCH  10  11
HETATM   11  P   UNK N   1      22.960  12.771   9.002  0.00  0.00     0.391 P 
HETATM   12  O   UNK N   1      23.042  11.359   9.637  0.00  0.00    -0.632 OA
BRANCH  11  13
HETATM   13  O   UNK N   1      24.224  13.273  10.067  0.00  0.00    -0.307 OA
HETATM   14  H   UNK N   1      25.091  13.327  10.498  0.00  0.00     0.222 HD
ENDBRANCH  11  13
BRANCH  11  15
HETATM   15  O   UNK N   1      21.968  13.933   9.820  0.00  0.00    -0.307 OA
HETATM   16  H   UNK N   1      21.671  13.777  10.730  0.00  0.00     0.222 HD
ENDBRANCH  11  15
ENDBRANCH  10  11
ENDBRANCH   6  10
BRANCH   7  17
HETATM   17  O   UNK N   1      23.183  11.701   5.288  0.00  0.00    -0.388 OA
HETATM   18  H   UNK N   1      22.386  11.727   4.735  0.00  0.00     0.210 HD
ENDBRANCH   7  17
BRANCH   8  19
HETATM   19  N   UNK N   1      25.070  13.253   3.389  0.00  0.00    -0.297 N 
HETATM   20  C   UNK N   1      26.354  13.645   3.400  0.00  0.00     0.142 A 
HETATM   21  C   UNK N   1      27.016  13.053   2.388  0.00  0.00     0.122 A 
HETATM   22  N   UNK N   1      26.953  14.524   4.242  0.00  0.00    -0.336 N 
HETATM   23  N   UNK N   1      26.180  12.245   1.709  0.00  0.00    -0.346 N 
HETATM   24  C   UNK N   1      28.357  13.338   2.172  0.00  0.00     0.131 A 
HETATM   25  C   UNK N   1      24.980  12.386   2.344  0.00  0.00     0.188 A 
ATOM     26  HN  UNK N   1      26.395  11.661   0.902  1.00  0.00     0.167 HD
HETATM   27  N   UNK N   1      28.968  14.224   3.015  0.00  0.00    -0.337 N 
HETATM   28  C   UNK N   1      28.275  14.812   4.044  0.00  0.00     0.183 A 
ATOM     29  HN  UNK N   1      29.953  14.453   2.876  1.00  0.00     0.168 HD
ATOM     30  HN  UNK N   1      26.430  14.960   5.002  1.00  0.00     0.168 HD
BRANCH  24  31
HETATM   31  N   UNK N   1      29.071  12.749   1.109  0.00  0.00    -0.383 N 
HETATM   32  H   UNK N   1      29.941  12.301   1.212  0.00  0.00     0.157 HD
HETATM   33  H   UNK N   1      28.676  12.789   0.208  0.00  0.00     0.157 HD
ENDBRANCH  24  31
ENDBRANCH   8  19
ENDBRANCH   4   5
ENDBRANCH   3   4
ENDBRANCH   1   3
BRANCH   1  34
HETATM   34  O   UNK N   1      19.818  15.364   8.309  0.00  0.00    -0.307 OA
HETATM   35  H   UNK N   1      20.309  14.991   9.057  0.00  0.00     0.222 HD
ENDBRANCH   1  34
BRANCH   1  36
HETATM   36  O   UNK N   1      19.032  15.863   6.196  0.00  0.00    -0.195 OA
BRANCH  36  37
HETATM   37  P   UNK N   1      19.438  14.365   5.397  0.00  0.00     0.401 P 
HETATM   38  O   UNK N   1      18.135  13.734   4.838  0.00  0.00    -0.631 OA
BRANCH  37  39
HETATM   39  O   UNK N   1      20.547  14.580   4.077  0.00  0.00    -0.296 OA
BRANCH  39  40
HETATM   40  C   UNK N   1      20.434  13.435   3.271  0.00  0.00     0.192 C 
BRANCH  40  41
HETATM   41  C   UNK N   1      20.584  13.805   1.794  0.00  0.00     0.009 C 
HETATM   42  C   UNK N   1      21.064  12.576   1.032  0.00  0.00     0.020 C 
HETATM   43  C   UNK N   1      19.211  14.166   1.253  0.00  0.00     0.020 C 
BRANCH  41  44
HETATM   44  C   UNK N   1      21.540  15.018   1.611  0.00  0.00     0.219 C 
BRANCH  44  45
HETATM   45  C   UNK N   1      20.762  16.268   1.319  0.00  0.00     0.247 C 
HETATM   46  N   UNK N   1      20.423  17.083   2.347  0.00  0.00    -0.358 N 
HETATM   47  H   UNK N   1      20.551  16.765   3.270  0.00  0.00     0.162 HD
HETATM   48  O   UNK N   1      20.529  16.594   0.163  0.00  0.00    -0.271 OA
BRANCH  46  49
HETATM   49  C   UNK N   1      19.885  18.392   2.130  0.00  0.00     0.132 C 
BRANCH  49  50
HETATM   50  C   UNK N   1      20.424  19.327   3.205  0.00  0.00     0.122 C 
BRANCH  50  51
HETATM   51  C   UNK N   1      21.608  19.998   2.638  0.00  0.00     0.219 C 
HETATM   52  N   UNK N   1      22.813  19.826   3.229  0.00  0.00    -0.360 N 
HETATM   53  H   UNK N   1      22.925  19.117   3.903  0.00  0.00     0.162 HD
HETATM   54  O   UNK N   1      21.470  20.775   1.704  0.00  0.00    -0.274 OA
BRANCH  52  55
HETATM   55  C   UNK N   1      23.932  20.660   2.893  0.00  0.00     0.133 C 
BRANCH  55  56
HETATM   56  C   UNK N   1      25.095  20.217   3.762  0.00  0.00     0.102 C 
BRANCH  56  57
HETATM   57  S   UNK N   1      24.831  18.516   4.308  0.00  0.00    -0.091 SA
BRANCH  57  58
HETATM   58  C   UNK N   1      26.410  18.443   5.157  0.00  0.00     0.188 C 
HETATM   59  O   UNK N   1      26.766  17.422   5.722  0.00  0.00    -0.285 OA
BRANCH  58  60
HETATM   60  C   UNK N   1      27.322  19.620   5.113  0.00  0.00     0.122 C 
BRANCH  60  61
HETATM   61  C   UNK N   1      27.529  20.142   6.522  0.00  0.00     0.121 C 
HETATM   62  C   UNK N   1      26.480  21.182   6.841  0.00  0.00     0.040 C 
BRANCH  61  63
HETATM   63  O   UNK N   1      27.423  19.084   7.427  0.00  0.00    -0.396 OA
HETATM   64  H   UNK N   1      27.723  18.168   7.324  0.00  0.00     0.210 HD
ENDBRANCH  61  63
ENDBRANCH  60  61
ENDBRANCH  58  60
ENDBRANCH  57  58
ENDBRANCH  56  57
ENDBRANCH  55  56
ENDBRANCH  52  55
ENDBRANCH  50  51
ENDBRANCH  49  50
ENDBRANCH  46  49
ENDBRANCH  44  45
BRANCH  44  65
HETATM   65  O   UNK N   1      22.448  14.799   0.568  0.00  0.00    -0.385 OA
HETATM   66  H   UNK N   1      22.658  13.933   0.187  0.00  0.00     0.210 HD
ENDBRANCH  44  65
ENDBRANCH  41  44
ENDBRANCH  40  41
ENDBRANCH  39  40
ENDBRANCH  37  39
BRANCH  37  67
HETATM   67  O   UNK N   1      20.071  13.250   6.572  0.00  0.00    -0.307 OA
HETATM   68  H   UNK N   1      20.145  13.134   7.532  0.00  0.00     0.222 HD
ENDBRANCH  37  67
ENDBRANCH  36  37
ENDBRANCH   1  36
TORSDOF 30
ENDMDL
MODEL 5
REMARK VINA RESULT:      -6.1      2.328      4.228
REMARK  30 active torsions:
REMARK  status: ('A' for Active; 'I' for Inactive)
REMARK    1  A    between atoms: C_1  and  C_2 
REMARK    2  A    between atoms: C_1  and  C_55 
REMARK    3  A    between atoms: C_2  and  S_3 
REMARK    4  A    between atoms: S_3  and  C_4 
REMARK    5  A    between atoms: C_4  and  C_5 
REMARK    6  A    between atoms: C_5  and  N_6 
REMARK       I    between atoms: N_6  and  C_7 
REMARK    7  A    between atoms: C_7  and  C_8 
REMARK    8  A    between atoms: C_8  and  C_9 
REMARK    9  A    between atoms: C_9  and  N_10 
REMARK       I    between atoms: N_10  and  C_11 
REMARK   10  A    between atoms: C_11  and  C_12 
REMARK   11  A    between atoms: C_12  and  C_13 
REMARK   12  A    between atoms: C_12  and  O_19 
REMARK   13  A    between atoms: C_13  and  C_14 
REMARK   14  A    between atoms: C_14  and  O_15 
REMARK   15  A    between atoms: O_15  and  P_22 
REMARK   16  A    between atoms: P_22  and  O_24 
REMARK   17  A    between atoms: P_22  and  O_54 
REMARK   18  A    between atoms: C_25  and  O_31 
REMARK   19  A    between atoms: C_26  and  O_32 
REMARK   20  A    between atoms: C_27  and  C_30 
REMARK   21  A    between atoms: C_29  and  N_39 
REMARK   22  A    between atoms: C_30  and  O_50 
REMARK   23  A    between atoms: O_32  and  P_33 
REMARK   24  A    between atoms: P_33  and  O_34 
REMARK   25  A    between atoms: P_33  and  O_35 
REMARK   26  A    between atoms: C_43  and  N_49 
REMARK   27  A    between atoms: O_50  and  P_51 
REMARK   28  A    between atoms: P_51  and  O_52 
REMARK   29  A    between atoms: P_51  and  O_54 
REMARK   30  A    between atoms: C_55  and  O_57 
ROOT
HETATM    1  P   UNK N   1      20.344  18.121   1.953  0.00  0.00     0.401 P 
HETATM    2  O   UNK N   1      20.413  19.646   1.669  0.00  0.00    -0.631 OA
ENDROOT
BRANCH   1   3
HETATM    3  O   UNK N   1      20.366  17.654   3.638  0.00  0.00    -0.294 OA
BRANCH   3   4
HETATM    4  C   UNK N   1      20.899  18.727   4.355  0.00  0.00     0.215 C 
BRANCH   4   5
HETATM    5  C   UNK N   1      22.204  18.311   5.037  0.00  0.00     0.180 C 
HETATM    6  C   UNK N   1      21.997  16.932   5.658  0.00  0.00     0.197 C 
HETATM    7  C   UNK N   1      23.313  16.316   5.385  0.00  0.00     0.199 C 
HETATM    8  C   UNK N   1      23.792  16.947   4.116  0.00  0.00     0.262 C 
HETATM    9  O   UNK N   1      23.259  18.257   4.084  0.00  0.00    -0.353 OA
BRANCH   6  10
HETATM   10  O   UNK N   1      21.902  16.918   7.062  0.00  0.00    -0.286 OA
BRANCH  10  11
HETATM   11  P   UNK N   1      20.274  16.694   7.634  0.00  0.00     0.391 P 
HETATM   12  O   UNK N   1      19.503  15.442   7.143  0.00  0.00    -0.632 OA
BRANCH  11  13
HETATM   13  O   UNK N   1      20.992  15.714   8.861  0.00  0.00    -0.307 OA
HETATM   14  H   UNK N   1      21.624  15.391   9.523  0.00  0.00     0.222 HD
ENDBRANCH  11  13
BRANCH  11  15
HETATM   15  O   UNK N   1      19.555  17.589   8.933  0.00  0.00    -0.307 OA
HETATM   16  H   UNK N   1      20.108  18.075   9.563  0.00  0.00     0.222 HD
ENDBRANCH  11  15
ENDBRANCH  10  11
ENDBRANCH   6  10
BRANCH   7  17
HETATM   17  O   UNK N   1      23.209  14.936   5.269  0.00  0.00    -0.388 OA
HETATM   18  H   UNK N   1      23.352  14.484   4.423  0.00  0.00     0.210 HD
ENDBRANCH   7  17
BRANCH   8  19
HETATM   19  N   UNK N   1      25.262  16.961   4.146  0.00  0.00    -0.297 N 
HETATM   20  C   UNK N   1      26.062  17.905   4.667  0.00  0.00     0.142 A 
HETATM   21  C   UNK N   1      27.349  17.590   4.430  0.00  0.00     0.122 A 
HETATM   22  N   UNK N   1      25.701  19.044   5.311  0.00  0.00    -0.336 N 
HETATM   23  N   UNK N   1      27.415  16.420   3.766  0.00  0.00    -0.346 N 
HETATM   24  C   UNK N   1      28.363  18.443   4.842  0.00  0.00     0.131 A 
HETATM   25  C   UNK N   1      26.112  16.050   3.599  0.00  0.00     0.188 A 
ATOM     26  HN  UNK N   1      28.250  15.923   3.458  1.00  0.00     0.167 HD
HETATM   27  N   UNK N   1      28.009  19.593   5.490  0.00  0.00    -0.337 N 
HETATM   28  C   UNK N   1      26.690  19.893   5.727  0.00  0.00     0.183 A 
ATOM     29  HN  UNK N   1      28.735  20.239   5.801  1.00  0.00     0.168 HD
ATOM     30  HN  UNK N   1      24.719  19.261   5.479  1.00  0.00     0.168 HD
BRANCH  24  31
HETATM   31  N   UNK N   1      29.718  18.150   4.590  0.00  0.00    -0.383 N 
HETATM   32  H   UNK N   1      30.063  17.844   3.721  0.00  0.00     0.157 HD
HETATM   33  H   UNK N   1      30.360  18.258   5.330  0.00  0.00     0.157 HD
ENDBRANCH  24  31
ENDBRANCH   8  19
ENDBRANCH   4   5
ENDBRANCH   3   4
ENDBRANCH   1   3
BRANCH   1  34
HETATM   34  O   UNK N   1      18.654  18.366   2.244  0.00  0.00    -0.307 OA
HETATM   35  H   UNK N   1      18.117  19.124   1.965  0.00  0.00     0.222 HD
ENDBRANCH   1  34
BRANCH   1  36
HETATM   36  O   UNK N   1      19.760  17.106   0.657  0.00  0.00    -0.195 OA
BRANCH  36  37
HETATM   37  P   UNK N   1      19.935  15.434   1.128  0.00  0.00     0.401 P 
HETATM   38  O   UNK N   1      18.940  14.580   0.298  0.00  0.00    -0.631 OA
BRANCH  37  39
HETATM   39  O   UNK N   1      21.537  14.818   0.855  0.00  0.00    -0.296 OA
BRANCH  39  40
HETATM   40  C   UNK N   1      21.400  13.439   0.627  0.00  0.00     0.192 C 
BRANCH  40  41
HETATM   41  C   UNK N   1      22.746  12.732   0.799  0.00  0.00     0.009 C 
HETATM   42  C   UNK N   1      22.686  11.391   0.078  0.00  0.00     0.020 C 
HETATM   43  C   UNK N   1      23.812  13.569   0.113  0.00  0.00     0.020 C 
BRANCH  41  44
HETATM   44  C   UNK N   1      23.110  12.574   2.303  0.00  0.00     0.219 C 
BRANCH  44  45
HETATM   45  C   UNK N   1      21.893  12.220   3.109  0.00  0.00     0.247 C 
HETATM   46  N   UNK N   1      21.485  10.929   3.144  0.00  0.00    -0.358 N 
HETATM   47  H   UNK N   1      21.891  10.283   2.521  0.00  0.00     0.162 HD
HETATM   48  O   UNK N   1      21.345  13.066   3.801  0.00  0.00    -0.271 OA
BRANCH  46  49
HETATM   49  C   UNK N   1      20.481  10.477   4.058  0.00  0.00     0.132 C 
BRANCH  49  50
HETATM   50  C   UNK N   1      20.464   8.954   4.053  0.00  0.00     0.122 C 
BRANCH  50  51
HETATM   51  C   UNK N   1      21.512   8.508   4.988  0.00  0.00     0.219 C 
HETATM   52  N   UNK N   1      22.096   9.412   5.809  0.00  0.00    -0.360 N 
HETATM   53  H   UNK N   1      21.693  10.304   5.910  0.00  0.00     0.162 HD
HETATM   54  O   UNK N   1      21.907   7.352   4.943  0.00  0.00    -0.274 OA
BRANCH  52  55
HETATM   55  C   UNK N   1      23.294   9.095   6.532  0.00  0.00     0.133 C 
BRANCH  55  56
HETATM   56  C   UNK N   1      23.556  10.245   7.487  0.00  0.00     0.102 C 
BRANCH  56  57
HETATM   57  S   UNK N   1      22.558  11.671   7.007  0.00  0.00    -0.091 SA
BRANCH  57  58
HETATM   58  C   UNK N   1      23.444  12.781   8.103  0.00  0.00     0.188 C 
HETATM   59  O   UNK N   1      23.208  13.979   8.100  0.00  0.00    -0.285 OA
BRANCH  58  60
HETATM   60  C   UNK N   1      24.428  12.224   9.073  0.00  0.00     0.122 C 
BRANCH  60  61
HETATM   61  C   UNK N   1      24.046  12.660  10.475  0.00  0.00     0.121 C 
HETATM   62  C   UNK N   1      22.950  11.765  11.007  0.00  0.00     0.040 C 
BRANCH  61  63
HETATM   63  O   UNK N   1      25.163  12.569  11.307  0.00  0.00    -0.396 OA
HETATM   64  H   UNK N   1      25.786  13.267  11.561  0.00  0.00     0.210 HD
ENDBRANCH  61  63
ENDBRANCH  60  61
ENDBRANCH  58  60
ENDBRANCH  57  58
ENDBRANCH  56  57
ENDBRANCH  55  56
ENDBRANCH  52  55
ENDBRANCH  50  51
ENDBRANCH  49  50
ENDBRANCH  46  49
ENDBRANCH  44  45
BRANCH  44  65
HETATM   65  O   UNK N   1      23.665  13.750   2.820  0.00  0.00    -0.385 OA
HETATM   66  H   UNK N   1      23.200  14.380   3.392  0.00  0.00     0.210 HD
ENDBRANCH  44  65
ENDBRANCH  41  44
ENDBRANCH  40  41
ENDBRANCH  39  40
ENDBRANCH  37  39
BRANCH  37  67
HETATM   67  O   UNK N   1      19.473  15.264   2.795  0.00  0.00    -0.307 OA
HETATM   68  H   UNK N   1      19.342  15.796   3.596  0.00  0.00     0.222 HD
ENDBRANCH  37  67
ENDBRANCH  36  37
ENDBRANCH   1  36
TORSDOF 30
ENDMDL
MODEL 6
REMARK VINA RESULT:      -6.1      2.298      4.049
REMARK  30 active torsions:
REMARK  status: ('A' for Active; 'I' for Inactive)
REMARK    1  A    between atoms: C_1  and  C_2 
REMARK    2  A    between atoms: C_1  and  C_55 
REMARK    3  A    between atoms: C_2  and  S_3 
REMARK    4  A    between atoms: S_3  and  C_4 
REMARK    5  A    between atoms: C_4  and  C_5 
REMARK    6  A    between atoms: C_5  and  N_6 
REMARK       I    between atoms: N_6  and  C_7 
REMARK    7  A    between atoms: C_7  and  C_8 
REMARK    8  A    between atoms: C_8  and  C_9 
REMARK    9  A    between atoms: C_9  and  N_10 
REMARK       I    between atoms: N_10  and  C_11 
REMARK   10  A    between atoms: C_11  and  C_12 
REMARK   11  A    between atoms: C_12  and  C_13 
REMARK   12  A    between atoms: C_12  and  O_19 
REMARK   13  A    between atoms: C_13  and  C_14 
REMARK   14  A    between atoms: C_14  and  O_15 
REMARK   15  A    between atoms: O_15  and  P_22 
REMARK   16  A    between atoms: P_22  and  O_24 
REMARK   17  A    between atoms: P_22  and  O_54 
REMARK   18  A    between atoms: C_25  and  O_31 
REMARK   19  A    between atoms: C_26  and  O_32 
REMARK   20  A    between atoms: C_27  and  C_30 
REMARK   21  A    between atoms: C_29  and  N_39 
REMARK   22  A    between atoms: C_30  and  O_50 
REMARK   23  A    between atoms: O_32  and  P_33 
REMARK   24  A    between atoms: P_33  and  O_34 
REMARK   25  A    between atoms: P_33  and  O_35 
REMARK   26  A    between atoms: C_43  and  N_49 
REMARK   27  A    between atoms: O_50  and  P_51 
REMARK   28  A    between atoms: P_51  and  O_52 
REMARK   29  A    between atoms: P_51  and  O_54 
REMARK   30  A    between atoms: C_55  and  O_57 
ROOT
HETATM    1  P   UNK N   1      20.821  16.686   7.068  0.00  0.00     0.401 P 
HETATM    2  O   UNK N   1      20.807  18.021   7.860  0.00  0.00    -0.631 OA
ENDROOT
BRANCH   1   3
HETATM    3  O   UNK N   1      22.369  15.879   6.953  0.00  0.00    -0.294 OA
BRANCH   3   4
HETATM    4  C   UNK N   1      23.029  16.415   5.845  0.00  0.00     0.215 C 
BRANCH   4   5
HETATM    5  C   UNK N   1      24.446  15.844   5.748  0.00  0.00     0.180 C 
HETATM    6  C   UNK N   1      24.673  15.377   4.312  0.00  0.00     0.197 C 
HETATM    7  C   UNK N   1      26.084  15.777   4.121  0.00  0.00     0.199 C 
HETATM    8  C   UNK N   1      26.274  16.985   4.983  0.00  0.00     0.262 C 
HETATM    9  O   UNK N   1      25.401  16.842   6.087  0.00  0.00    -0.353 OA
BRANCH   6  10
HETATM   10  O   UNK N   1      24.691  13.982   4.134  0.00  0.00    -0.286 OA
BRANCH  10  11
HETATM   11  P   UNK N   1      24.152  13.487   2.555  0.00  0.00     0.391 P 
HETATM   12  O   UNK N   1      23.455  12.109   2.429  0.00  0.00    -0.632 OA
BRANCH  11  13
HETATM   13  O   UNK N   1      22.632  14.163   3.019  0.00  0.00    -0.307 OA
HETATM   14  H   UNK N   1      21.917  14.518   3.570  0.00  0.00     0.222 HD
ENDBRANCH  11  13
BRANCH  11  15
HETATM   15  O   UNK N   1      24.063  14.531   1.175  0.00  0.00    -0.307 OA
HETATM   16  H   UNK N   1      23.526  14.288   0.405  0.00  0.00     0.222 HD
ENDBRANCH  11  15
ENDBRANCH  10  11
ENDBRANCH   6  10
BRANCH   7  17
HETATM   17  O   UNK N   1      26.355  16.047   2.787  0.00  0.00    -0.388 OA
HETATM   18  H   UNK N   1      27.158  15.719   2.353  0.00  0.00     0.210 HD
ENDBRANCH   7  17
BRANCH   8  19
HETATM   19  N   UNK N   1      27.682  17.019   5.407  0.00  0.00    -0.297 N 
HETATM   20  C   UNK N   1      28.159  17.157   6.655  0.00  0.00     0.142 A 
HETATM   21  C   UNK N   1      29.503  17.216   6.622  0.00  0.00     0.122 A 
HETATM   22  N   UNK N   1      27.456  17.264   7.811  0.00  0.00    -0.336 N 
HETATM   23  N   UNK N   1      29.932  17.097   5.351  0.00  0.00    -0.346 N 
HETATM   24  C   UNK N   1      30.222  17.399   7.795  0.00  0.00     0.131 A 
HETATM   25  C   UNK N   1      28.789  16.978   4.616  0.00  0.00     0.188 A 
ATOM     26  HN  UNK N   1      30.895  17.095   5.014  1.00  0.00     0.167 HD
HETATM   27  N   UNK N   1      29.523  17.510   8.964  0.00  0.00    -0.337 N 
HETATM   28  C   UNK N   1      28.151  17.441   8.976  0.00  0.00     0.183 A 
ATOM     29  HN  UNK N   1      30.026  17.648   9.841  1.00  0.00     0.168 HD
ATOM     30  HN  UNK N   1      26.437  17.216   7.811  1.00  0.00     0.168 HD
BRANCH  24  31
HETATM   31  N   UNK N   1      31.628  17.485   7.790  0.00  0.00    -0.383 N 
HETATM   32  H   UNK N   1      32.225  16.740   7.550  0.00  0.00     0.157 HD
HETATM   33  H   UNK N   1      32.040  18.344   8.040  0.00  0.00     0.157 HD
ENDBRANCH  24  31
ENDBRANCH   8  19
ENDBRANCH   4   5
ENDBRANCH   3   4
ENDBRANCH   1   3
BRANCH   1  34
HETATM   34  O   UNK N   1      20.747  15.902   8.611  0.00  0.00    -0.307 OA
HETATM   35  H   UNK N   1      20.782  14.948   8.785  0.00  0.00     0.222 HD
ENDBRANCH   1  34
BRANCH   1  36
HETATM   36  O   UNK N   1      19.280  15.899   6.828  0.00  0.00    -0.195 OA
BRANCH  36  37
HETATM   37  P   UNK N   1      19.156  15.401   5.159  0.00  0.00     0.401 P 
HETATM   38  O   UNK N   1      17.936  14.453   5.016  0.00  0.00    -0.631 OA
BRANCH  37  39
HETATM   39  O   UNK N   1      18.938  16.735   4.069  0.00  0.00    -0.296 OA
BRANCH  39  40
HETATM   40  C   UNK N   1      20.196  16.996   3.501  0.00  0.00     0.192 C 
BRANCH  40  41
HETATM   41  C   UNK N   1      20.057  17.933   2.299  0.00  0.00     0.009 C 
HETATM   42  C   UNK N   1      18.984  18.969   2.614  0.00  0.00     0.020 C 
HETATM   43  C   UNK N   1      21.369  18.677   2.123  0.00  0.00     0.020 C 
BRANCH  41  44
HETATM   44  C   UNK N   1      19.741  17.139   1.000  0.00  0.00     0.219 C 
BRANCH  44  45
HETATM   45  C   UNK N   1      20.246  15.729   1.103  0.00  0.00     0.247 C 
HETATM   46  N   UNK N   1      19.405  14.763   1.543  0.00  0.00    -0.358 N 
HETATM   47  H   UNK N   1      18.540  15.026   1.933  0.00  0.00     0.162 HD
HETATM   48  O   UNK N   1      21.366  15.444   0.700  0.00  0.00    -0.271 OA
BRANCH  46  49
HETATM   49  C   UNK N   1      19.736  13.373   1.457  0.00  0.00     0.132 C 
BRANCH  49  50
HETATM   50  C   UNK N   1      18.591  12.560   2.044  0.00  0.00     0.122 C 
BRANCH  50  51
HETATM   51  C   UNK N   1      19.187  11.593   2.985  0.00  0.00     0.219 C 
HETATM   52  N   UNK N   1      20.356  11.898   3.594  0.00  0.00    -0.360 N 
HETATM   53  H   UNK N   1      20.695  12.821   3.556  0.00  0.00     0.162 HD
HETATM   54  O   UNK N   1      18.670  10.494   3.126  0.00  0.00    -0.274 OA
BRANCH  52  55
HETATM   55  C   UNK N   1      21.111  10.899   4.295  0.00  0.00     0.133 C 
BRANCH  55  56
HETATM   56  C   UNK N   1      20.853  11.104   5.777  0.00  0.00     0.102 C 
BRANCH  56  57
HETATM   57  S   UNK N   1      22.419  11.385   6.632  0.00  0.00    -0.091 SA
BRANCH  57  58
HETATM   58  C   UNK N   1      21.639  12.313   7.955  0.00  0.00     0.188 C 
HETATM   59  O   UNK N   1      20.730  13.091   7.716  0.00  0.00    -0.285 OA
BRANCH  58  60
HETATM   60  C   UNK N   1      22.062  12.080   9.364  0.00  0.00     0.122 C 
BRANCH  60  61
HETATM   61  C   UNK N   1      23.109  13.109   9.746  0.00  0.00     0.121 C 
HETATM   62  C   UNK N   1      24.429  12.421  10.009  0.00  0.00     0.040 C 
BRANCH  61  63
HETATM   63  O   UNK N   1      23.263  14.022   8.701  0.00  0.00    -0.396 OA
HETATM   64  H   UNK N   1      23.160  14.986   8.721  0.00  0.00     0.210 HD
ENDBRANCH  61  63
ENDBRANCH  60  61
ENDBRANCH  58  60
ENDBRANCH  57  58
ENDBRANCH  56  57
ENDBRANCH  55  56
ENDBRANCH  52  55
ENDBRANCH  50  51
ENDBRANCH  49  50
ENDBRANCH  46  49
ENDBRANCH  44  45
BRANCH  44  65
HETATM   65  O   UNK N   1      20.322  17.744  -0.121  0.00  0.00    -0.385 OA
HETATM   66  H   UNK N   1      20.013  17.638  -1.034  0.00  0.00     0.210 HD
ENDBRANCH  44  65
ENDBRANCH  41  44
ENDBRANCH  40  41
ENDBRANCH  39  40
ENDBRANCH  37  39
BRANCH  37  67
HETATM   67  O   UNK N   1      20.564  14.472   4.740  0.00  0.00    -0.307 OA
HETATM   68  H   UNK N   1      21.250  14.415   4.056  0.00  0.00     0.222 HD
ENDBRANCH  37  67
ENDBRANCH  36  37
ENDBRANCH   1  36
TORSDOF 30
ENDMDL
MODEL 7
REMARK VINA RESULT:      -6.1      2.236      2.800
REMARK  30 active torsions:
REMARK  status: ('A' for Active; 'I' for Inactive)
REMARK    1  A    between atoms: C_1  and  C_2 
REMARK    2  A    between atoms: C_1  and  C_55 
REMARK    3  A    between atoms: C_2  and  S_3 
REMARK    4  A    between atoms: S_3  and  C_4 
REMARK    5  A    between atoms: C_4  and  C_5 
REMARK    6  A    between atoms: C_5  and  N_6 
REMARK       I    between atoms: N_6  and  C_7 
REMARK    7  A    between atoms: C_7  and  C_8 
REMARK    8  A    between atoms: C_8  and  C_9 
REMARK    9  A    between atoms: C_9  and  N_10 
REMARK       I    between atoms: N_10  and  C_11 
REMARK   10  A    between atoms: C_11  and  C_12 
REMARK   11  A    between atoms: C_12  and  C_13 
REMARK   12  A    between atoms: C_12  and  O_19 
REMARK   13  A    between atoms: C_13  and  C_14 
REMARK   14  A    between atoms: C_14  and  O_15 
REMARK   15  A    between atoms: O_15  and  P_22 
REMARK   16  A    between atoms: P_22  and  O_24 
REMARK   17  A    between atoms: P_22  and  O_54 
REMARK   18  A    between atoms: C_25  and  O_31 
REMARK   19  A    between atoms: C_26  and  O_32 
REMARK   20  A    between atoms: C_27  and  C_30 
REMARK   21  A    between atoms: C_29  and  N_39 
REMARK   22  A    between atoms: C_30  and  O_50 
REMARK   23  A    between atoms: O_32  and  P_33 
REMARK   24  A    between atoms: P_33  and  O_34 
REMARK   25  A    between atoms: P_33  and  O_35 
REMARK   26  A    between atoms: C_43  and  N_49 
REMARK   27  A    between atoms: O_50  and  P_51 
REMARK   28  A    between atoms: P_51  and  O_52 
REMARK   29  A    between atoms: P_51  and  O_54 
REMARK   30  A    between atoms: C_55  and  O_57 
ROOT
HETATM    1  P   UNK N   1      21.037  15.858   6.537  0.00  0.00     0.401 P 
HETATM    2  O   UNK N   1      20.713  15.063   7.831  0.00  0.00    -0.631 OA
ENDROOT
BRANCH   1   3
HETATM    3  O   UNK N   1      21.928  17.347   6.755  0.00  0.00    -0.294 OA
BRANCH   3   4
HETATM    4  C   UNK N   1      21.605  18.180   5.682  0.00  0.00     0.215 C 
BRANCH   4   5
HETATM    5  C   UNK N   1      22.650  18.042   4.572  0.00  0.00     0.180 C 
HETATM    6  C   UNK N   1      22.735  19.373   3.831  0.00  0.00     0.197 C 
HETATM    7  C   UNK N   1      24.191  19.447   3.580  0.00  0.00     0.199 C 
HETATM    8  C   UNK N   1      24.828  18.722   4.724  0.00  0.00     0.262 C 
HETATM    9  O   UNK N   1      23.918  17.719   5.131  0.00  0.00    -0.353 OA
BRANCH   6  10
HETATM   10  O   UNK N   1      22.170  19.376   2.542  0.00  0.00    -0.286 OA
BRANCH  10  11
HETATM   11  P   UNK N   1      20.823  20.466   2.390  0.00  0.00     0.391 P 
HETATM   12  O   UNK N   1      20.111  20.920   3.689  0.00  0.00    -0.632 OA
BRANCH  11  13
HETATM   13  O   UNK N   1      21.988  21.715   2.646  0.00  0.00    -0.307 OA
HETATM   14  H   UNK N   1      22.381  22.598   2.732  0.00  0.00     0.222 HD
ENDBRANCH  11  13
BRANCH  11  15
HETATM   15  O   UNK N   1      20.404  21.316   0.938  0.00  0.00    -0.307 OA
HETATM   16  H   UNK N   1      20.916  22.087   0.652  0.00  0.00     0.222 HD
ENDBRANCH  11  15
ENDBRANCH  10  11
ENDBRANCH   6  10
BRANCH   7  17
HETATM   17  O   UNK N   1      24.622  20.763   3.498  0.00  0.00    -0.388 OA
HETATM   18  H   UNK N   1      25.440  21.004   3.036  0.00  0.00     0.210 HD
ENDBRANCH   7  17
BRANCH   8  19
HETATM   19  N   UNK N   1      26.092  18.145   4.244  0.00  0.00    -0.297 N 
HETATM   20  C   UNK N   1      26.265  16.996   3.572  0.00  0.00     0.142 A 
HETATM   21  C   UNK N   1      27.579  16.778   3.378  0.00  0.00     0.122 A 
HETATM   22  N   UNK N   1      25.315  16.121   3.154  0.00  0.00    -0.336 N 
HETATM   23  N   UNK N   1      28.291  17.794   3.903  0.00  0.00    -0.346 N 
HETATM   24  C   UNK N   1      28.007  15.624   2.737  0.00  0.00     0.131 A 
HETATM   25  C   UNK N   1      27.351  18.627   4.435  0.00  0.00     0.188 A 
ATOM     26  HN  UNK N   1      29.303  17.913   3.902  1.00  0.00     0.167 HD
HETATM   27  N   UNK N   1      27.057  14.736   2.314  0.00  0.00    -0.337 N 
HETATM   28  C   UNK N   1      25.721  14.981   2.517  0.00  0.00     0.183 A 
ATOM     29  HN  UNK N   1      27.345  13.878   1.842  1.00  0.00     0.168 HD
ATOM     30  HN  UNK N   1      24.325  16.308   3.313  1.00  0.00     0.168 HD
BRANCH  24  31
HETATM   31  N   UNK N   1      29.376  15.359   2.537  0.00  0.00    -0.383 N 
HETATM   32  H   UNK N   1      29.790  14.475   2.665  0.00  0.00     0.157 HD
HETATM   33  H   UNK N   1      29.955  16.103   2.250  0.00  0.00     0.157 HD
ENDBRANCH  24  31
ENDBRANCH   8  19
ENDBRANCH   4   5
ENDBRANCH   3   4
ENDBRANCH   1   3
BRANCH   1  34
HETATM   34  O   UNK N   1      22.608  15.133   6.620  0.00  0.00    -0.307 OA
HETATM   35  H   UNK N   1      22.823  14.192   6.524  0.00  0.00     0.222 HD
ENDBRANCH   1  34
BRANCH   1  36
HETATM   36  O   UNK N   1      20.940  14.979   5.030  0.00  0.00    -0.195 OA
BRANCH  36  37
HETATM   37  P   UNK N   1      19.362  14.241   4.910  0.00  0.00     0.401 P 
HETATM   38  O   UNK N   1      18.328  15.171   5.598  0.00  0.00    -0.631 OA
BRANCH  37  39
HETATM   39  O   UNK N   1      18.857  13.988   3.268  0.00  0.00    -0.296 OA
BRANCH  39  40
HETATM   40  C   UNK N   1      19.566  14.914   2.485  0.00  0.00     0.192 C 
BRANCH  40  41
HETATM   41  C   UNK N   1      19.706  14.404   1.049  0.00  0.00     0.009 C 
HETATM   42  C   UNK N   1      18.593  13.399   0.780  0.00  0.00     0.020 C 
HETATM   43  C   UNK N   1      19.498  15.576   0.107  0.00  0.00     0.020 C 
BRANCH  41  44
HETATM   44  C   UNK N   1      21.117  13.796   0.804  0.00  0.00     0.219 C 
BRANCH  44  45
HETATM   45  C   UNK N   1      21.562  12.993   1.992  0.00  0.00     0.247 C 
HETATM   46  N   UNK N   1      20.942  11.819   2.258  0.00  0.00    -0.358 N 
HETATM   47  H   UNK N   1      20.117  11.594   1.771  0.00  0.00     0.162 HD
HETATM   48  O   UNK N   1      22.535  13.345   2.645  0.00  0.00    -0.271 OA
BRANCH  46  49
HETATM   49  C   UNK N   1      21.451  10.896   3.227  0.00  0.00     0.132 C 
BRANCH  49  50
HETATM   50  C   UNK N   1      20.286  10.110   3.814  0.00  0.00     0.122 C 
BRANCH  50  51
HETATM   51  C   UNK N   1      20.830   9.288   4.911  0.00  0.00     0.219 C 
HETATM   52  N   UNK N   1      22.168   9.246   5.105  0.00  0.00    -0.360 N 
HETATM   53  H   UNK N   1      22.745   9.899   4.646  0.00  0.00     0.162 HD
HETATM   54  O   UNK N   1      20.075   8.583   5.565  0.00  0.00    -0.274 OA
BRANCH  52  55
HETATM   55  C   UNK N   1      22.763   8.264   5.965  0.00  0.00     0.133 C 
BRANCH  55  56
HETATM   56  C   UNK N   1      23.656   9.009   6.942  0.00  0.00     0.102 C 
BRANCH  56  57
HETATM   57  S   UNK N   1      24.058  10.638   6.273  0.00  0.00    -0.091 SA
BRANCH  57  58
HETATM   58  C   UNK N   1      22.945  11.480   7.401  0.00  0.00     0.188 C 
HETATM   59  O   UNK N   1      21.988  12.108   6.977  0.00  0.00    -0.285 OA
BRANCH  58  60
HETATM   60  C   UNK N   1      23.154  11.353   8.870  0.00  0.00     0.122 C 
BRANCH  60  61
HETATM   61  C   UNK N   1      22.346  12.422   9.582  0.00  0.00     0.121 C 
HETATM   62  C   UNK N   1      22.466  12.241  11.078  0.00  0.00     0.040 C 
BRANCH  61  63
HETATM   63  O   UNK N   1      22.832  13.681   9.227  0.00  0.00    -0.396 OA
HETATM   64  H   UNK N   1      22.943  14.466   9.786  0.00  0.00     0.210 HD
ENDBRANCH  61  63
ENDBRANCH  60  61
ENDBRANCH  58  60
ENDBRANCH  57  58
ENDBRANCH  56  57
ENDBRANCH  55  56
ENDBRANCH  52  55
ENDBRANCH  50  51
ENDBRANCH  49  50
ENDBRANCH  46  49
ENDBRANCH  44  45
BRANCH  44  65
HETATM   65  O   UNK N   1      22.066  14.793   0.554  0.00  0.00    -0.385 OA
HETATM   66  H   UNK N   1      22.426  15.398   1.221  0.00  0.00     0.210 HD
ENDBRANCH  44  65
ENDBRANCH  41  44
ENDBRANCH  40  41
ENDBRANCH  39  40
ENDBRANCH  37  39
BRANCH  37  67
HETATM   67  O   UNK N   1      19.366  12.749   5.803  0.00  0.00    -0.307 OA
HETATM   68  H   UNK N   1      19.828  11.897   5.839  0.00  0.00     0.222 HD
ENDBRANCH  37  67
ENDBRANCH  36  37
ENDBRANCH   1  36
TORSDOF 30
ENDMDL
MODEL 8
REMARK VINA RESULT:      -6.1      7.750     11.252
REMARK  30 active torsions:
REMARK  status: ('A' for Active; 'I' for Inactive)
REMARK    1  A    between atoms: C_1  and  C_2 
REMARK    2  A    between atoms: C_1  and  C_55 
REMARK    3  A    between atoms: C_2  and  S_3 
REMARK    4  A    between atoms: S_3  and  C_4 
REMARK    5  A    between atoms: C_4  and  C_5 
REMARK    6  A    between atoms: C_5  and  N_6 
REMARK       I    between atoms: N_6  and  C_7 
REMARK    7  A    between atoms: C_7  and  C_8 
REMARK    8  A    between atoms: C_8  and  C_9 
REMARK    9  A    between atoms: C_9  and  N_10 
REMARK       I    between atoms: N_10  and  C_11 
REMARK   10  A    between atoms: C_11  and  C_12 
REMARK   11  A    between atoms: C_12  and  C_13 
REMARK   12  A    between atoms: C_12  and  O_19 
REMARK   13  A    between atoms: C_13  and  C_14 
REMARK   14  A    between atoms: C_14  and  O_15 
REMARK   15  A    between atoms: O_15  and  P_22 
REMARK   16  A    between atoms: P_22  and  O_24 
REMARK   17  A    between atoms: P_22  and  O_54 
REMARK   18  A    between atoms: C_25  and  O_31 
REMARK   19  A    between atoms: C_26  and  O_32 
REMARK   20  A    between atoms: C_27  and  C_30 
REMARK   21  A    between atoms: C_29  and  N_39 
REMARK   22  A    between atoms: C_30  and  O_50 
REMARK   23  A    between atoms: O_32  and  P_33 
REMARK   24  A    between atoms: P_33  and  O_34 
REMARK   25  A    between atoms: P_33  and  O_35 
REMARK   26  A    between atoms: C_43  and  N_49 
REMARK   27  A    between atoms: O_50  and  P_51 
REMARK   28  A    between atoms: P_51  and  O_52 
REMARK   29  A    between atoms: P_51  and  O_54 
REMARK   30  A    between atoms: C_55  and  O_57 
ROOT
HETATM    1  P   UNK N   1      34.312  12.454   5.928  0.00  0.00     0.401 P 
HETATM    2  O   UNK N   1      33.480  11.362   6.655  0.00  0.00    -0.631 OA
ENDROOT
BRANCH   1   3
HETATM    3  O   UNK N   1      35.781  12.959   6.731  0.00  0.00    -0.294 OA
BRANCH   3   4
HETATM    4  C   UNK N   1      35.699  14.342   6.908  0.00  0.00     0.215 C 
BRANCH   4   5
HETATM    5  C   UNK N   1      34.484  14.692   7.769  0.00  0.00     0.180 C 
HETATM    6  C   UNK N   1      34.974  15.463   8.992  0.00  0.00     0.197 C 
HETATM    7  C   UNK N   1      33.890  16.458   9.134  0.00  0.00     0.199 C 
HETATM    8  C   UNK N   1      33.389  16.700   7.744  0.00  0.00     0.262 C 
HETATM    9  O   UNK N   1      33.572  15.494   7.028  0.00  0.00    -0.353 OA
BRANCH   6  10
HETATM   10  O   UNK N   1      34.936  14.748  10.203  0.00  0.00    -0.286 OA
BRANCH  10  11
HETATM   11  P   UNK N   1      36.518  14.413  10.848  0.00  0.00     0.391 P 
HETATM   12  O   UNK N   1      37.697  14.306   9.849  0.00  0.00    -0.632 OA
BRANCH  11  13
HETATM   13  O   UNK N   1      36.727  16.127  10.841  0.00  0.00    -0.307 OA
HETATM   14  H   UNK N   1      37.071  17.008  10.621  0.00  0.00     0.222 HD
ENDBRANCH  11  13
BRANCH  11  15
HETATM   15  O   UNK N   1      36.930  14.487  12.530  0.00  0.00    -0.307 OA
HETATM   16  H   UNK N   1      37.756  14.904  12.819  0.00  0.00     0.222 HD
ENDBRANCH  11  15
ENDBRANCH  10  11
ENDBRANCH   6  10
BRANCH   7  17
HETATM   17  O   UNK N   1      34.351  17.625   9.727  0.00  0.00    -0.388 OA
HETATM   18  H   UNK N   1      33.808  18.127  10.355  0.00  0.00     0.210 HD
ENDBRANCH   7  17
BRANCH   8  19
HETATM   19  N   UNK N   1      31.967  17.066   7.835  0.00  0.00    -0.297 N 
HETATM   20  C   UNK N   1      31.095  17.223   6.826  0.00  0.00     0.142 A 
HETATM   21  C   UNK N   1      29.909  17.634   7.312  0.00  0.00     0.122 A 
HETATM   22  N   UNK N   1      31.315  17.052   5.498  0.00  0.00    -0.336 N 
HETATM   23  N   UNK N   1      29.978  17.732   8.654  0.00  0.00    -0.346 N 
HETATM   24  C   UNK N   1      28.858  17.904   6.448  0.00  0.00     0.131 A 
HETATM   25  C   UNK N   1      31.260  17.378   8.956  0.00  0.00     0.188 A 
ATOM     26  HN  UNK N   1      29.237  18.009   9.298  1.00  0.00     0.167 HD
HETATM   27  N   UNK N   1      29.070  17.736   5.108  0.00  0.00    -0.337 N 
HETATM   28  C   UNK N   1      30.287  17.311   4.634  0.00  0.00     0.183 A 
ATOM     29  HN  UNK N   1      28.314  17.930   4.451  1.00  0.00     0.168 HD
ATOM     30  HN  UNK N   1      32.223  16.740   5.153  1.00  0.00     0.168 HD
BRANCH  24  31
HETATM   31  N   UNK N   1      27.611  18.354   6.925  0.00  0.00    -0.383 N 
HETATM   32  H   UNK N   1      26.748  18.120   6.515  0.00  0.00     0.157 HD
HETATM   33  H   UNK N   1      27.602  18.938   7.719  0.00  0.00     0.157 HD
ENDBRANCH  24  31
ENDBRANCH   8  19
ENDBRANCH   4   5
ENDBRANCH   3   4
ENDBRANCH   1   3
BRANCH   1  34
HETATM   34  O   UNK N   1      35.303  11.156   5.352  0.00  0.00    -0.307 OA
HETATM   35  H   UNK N   1      36.272  11.112   5.358  0.00  0.00     0.222 HD
ENDBRANCH   1  34
BRANCH   1  36
HETATM   36  O   UNK N   1      33.989  12.685   4.227  0.00  0.00    -0.195 OA
BRANCH  36  37
HETATM   37  P   UNK N   1      32.621  13.756   4.054  0.00  0.00     0.401 P 
HETATM   38  O   UNK N   1      33.147  15.182   3.739  0.00  0.00    -0.631 OA
BRANCH  37  39
HETATM   39  O   UNK N   1      31.546  13.280   2.775  0.00  0.00    -0.296 OA
BRANCH  39  40
HETATM   40  C   UNK N   1      30.493  14.210   2.773  0.00  0.00     0.192 C 
BRANCH  40  41
HETATM   41  C   UNK N   1      29.155  13.502   2.546  0.00  0.00     0.009 C 
HETATM   42  C   UNK N   1      28.167  14.507   1.965  0.00  0.00     0.020 C 
HETATM   43  C   UNK N   1      29.364  12.417   1.505  0.00  0.00     0.020 C 
BRANCH  41  44
HETATM   44  C   UNK N   1      28.630  12.857   3.860  0.00  0.00     0.219 C 
BRANCH  44  45
HETATM   45  C   UNK N   1      28.196  13.914   4.834  0.00  0.00     0.247 C 
HETATM   46  N   UNK N   1      26.873  14.073   5.080  0.00  0.00    -0.358 N 
HETATM   47  H   UNK N   1      26.222  13.610   4.505  0.00  0.00     0.162 HD
HETATM   48  O   UNK N   1      29.028  14.548   5.468  0.00  0.00    -0.271 OA
BRANCH  46  49
HETATM   49  C   UNK N   1      26.396  14.894   6.150  0.00  0.00     0.132 C 
BRANCH  49  50
HETATM   50  C   UNK N   1      25.039  15.466   5.762  0.00  0.00     0.122 C 
BRANCH  50  51
HETATM   51  C   UNK N   1      25.288  16.770   5.122  0.00  0.00     0.219 C 
HETATM   52  N   UNK N   1      24.433  17.794   5.350  0.00  0.00    -0.360 N 
HETATM   53  H   UNK N   1      23.773  17.720   6.076  0.00  0.00     0.162 HD
HETATM   54  O   UNK N   1      26.205  16.882   4.320  0.00  0.00    -0.274 OA
BRANCH  52  55
HETATM   55  C   UNK N   1      24.469  18.985   4.550  0.00  0.00     0.133 C 
BRANCH  55  56
HETATM   56  C   UNK N   1      23.123  19.097   3.856  0.00  0.00     0.102 C 
BRANCH  56  57
HETATM   57  S   UNK N   1      23.140  20.503   2.722  0.00  0.00    -0.091 SA
BRANCH  57  58
HETATM   58  C   UNK N   1      21.375  20.405   2.424  0.00  0.00     0.188 C 
HETATM   59  O   UNK N   1      20.882  20.916   1.431  0.00  0.00    -0.285 OA
BRANCH  58  60
HETATM   60  C   UNK N   1      20.512  19.636   3.363  0.00  0.00     0.122 C 
BRANCH  60  61
HETATM   61  C   UNK N   1      19.801  18.536   2.599  0.00  0.00     0.121 C 
HETATM   62  C   UNK N   1      19.880  17.241   3.374  0.00  0.00     0.040 C 
BRANCH  61  63
HETATM   63  O   UNK N   1      18.462  18.888   2.421  0.00  0.00    -0.396 OA
HETATM   64  H   UNK N   1      17.939  19.543   2.909  0.00  0.00     0.210 HD
ENDBRANCH  61  63
ENDBRANCH  60  61
ENDBRANCH  58  60
ENDBRANCH  57  58
ENDBRANCH  56  57
ENDBRANCH  55  56
ENDBRANCH  52  55
ENDBRANCH  50  51
ENDBRANCH  49  50
ENDBRANCH  46  49
ENDBRANCH  44  45
BRANCH  44  65
HETATM   65  O   UNK N   1      29.611  12.063   4.465  0.00  0.00    -0.385 OA
HETATM   66  H   UNK N   1      29.444  11.397   5.150  0.00  0.00     0.210 HD
ENDBRANCH  44  65
ENDBRANCH  41  44
ENDBRANCH  40  41
ENDBRANCH  39  40
ENDBRANCH  37  39
BRANCH  37  67
HETATM   67  O   UNK N   1      31.783  13.855   5.574  0.00  0.00    -0.307 OA
HETATM   68  H   UNK N   1      31.362  13.286   6.237  0.00  0.00     0.222 HD
ENDBRANCH  37  67
ENDBRANCH  36  37
ENDBRANCH   1  36
TORSDOF 30
ENDMDL
MODEL 9
REMARK VINA RESULT:      -6.1      3.997      8.161
REMARK  30 active torsions:
REMARK  status: ('A' for Active; 'I' for Inactive)
REMARK    1  A    between atoms: C_1  and  C_2 
REMARK    2  A    between atoms: C_1  and  C_55 
REMARK    3  A    between atoms: C_2  and  S_3 
REMARK    4  A    between atoms: S_3  and  C_4 
REMARK    5  A    between atoms: C_4  and  C_5 
REMARK    6  A    between atoms: C_5  and  N_6 
REMARK       I    between atoms: N_6  and  C_7 
REMARK    7  A    between atoms: C_7  and  C_8 
REMARK    8  A    between atoms: C_8  and  C_9 
REMARK    9  A    between atoms: C_9  and  N_10 
REMARK       I    between atoms: N_10  and  C_11 
REMARK   10  A    between atoms: C_11  and  C_12 
REMARK   11  A    between atoms: C_12  and  C_13 
REMARK   12  A    between atoms: C_12  and  O_19 
REMARK   13  A    between atoms: C_13  and  C_14 
REMARK   14  A    between atoms: C_14  and  O_15 
REMARK   15  A    between atoms: O_15  and  P_22 
REMARK   16  A    between atoms: P_22  and  O_24 
REMARK   17  A    between atoms: P_22  and  O_54 
REMARK   18  A    between atoms: C_25  and  O_31 
REMARK   19  A    between atoms: C_26  and  O_32 
REMARK   20  A    between atoms: C_27  and  C_30 
REMARK   21  A    between atoms: C_29  and  N_39 
REMARK   22  A    between atoms: C_30  and  O_50 
REMARK   23  A    between atoms: O_32  and  P_33 
REMARK   24  A    between atoms: P_33  and  O_34 
REMARK   25  A    between atoms: P_33  and  O_35 
REMARK   26  A    between atoms: C_43  and  N_49 
REMARK   27  A    between atoms: O_50  and  P_51 
REMARK   28  A    between atoms: P_51  and  O_52 
REMARK   29  A    between atoms: P_51  and  O_54 
REMARK   30  A    between atoms: C_55  and  O_57 
ROOT
HETATM    1  P   UNK N   1      21.634  14.615   1.737  0.00  0.00     0.401 P 
HETATM    2  O   UNK N   1      20.922  15.635   0.807  0.00  0.00    -0.631 OA
ENDROOT
BRANCH   1   3
HETATM    3  O   UNK N   1      20.589  13.637   2.743  0.00  0.00    -0.294 OA
BRANCH   3   4
HETATM    4  C   UNK N   1      19.898  14.510   3.587  0.00  0.00     0.215 C 
BRANCH   4   5
HETATM    5  C   UNK N   1      20.790  14.931   4.756  0.00  0.00     0.180 C 
HETATM    6  C   UNK N   1      19.903  15.554   5.831  0.00  0.00     0.197 C 
HETATM    7  C   UNK N   1      20.555  15.032   7.052  0.00  0.00     0.199 C 
HETATM    8  C   UNK N   1      21.131  13.708   6.658  0.00  0.00     0.262 C 
HETATM    9  O   UNK N   1      21.469  13.799   5.288  0.00  0.00    -0.353 OA
BRANCH   6  10
HETATM   10  O   UNK N   1      20.014  16.950   5.961  0.00  0.00    -0.286 OA
BRANCH  10  11
HETATM   11  P   UNK N   1      21.551  17.566   5.427  0.00  0.00     0.391 P 
HETATM   12  O   UNK N   1      21.549  18.795   4.483  0.00  0.00    -0.632 OA
BRANCH  11  13
HETATM   13  O   UNK N   1      21.420  18.651   6.765  0.00  0.00    -0.307 OA
HETATM   14  H   UNK N   1      21.144  19.028   7.616  0.00  0.00     0.222 HD
ENDBRANCH  11  13
BRANCH  11  15
HETATM   15  O   UNK N   1      23.081  17.107   6.100  0.00  0.00    -0.307 OA
HETATM   16  H   UNK N   1      23.589  17.729   6.643  0.00  0.00     0.222 HD
ENDBRANCH  11  15
ENDBRANCH  10  11
ENDBRANCH   6  10
BRANCH   7  17
HETATM   17  O   UNK N   1      19.647  14.911   8.095  0.00  0.00    -0.388 OA
HETATM   18  H   UNK N   1      19.353  14.044   8.416  0.00  0.00     0.210 HD
ENDBRANCH   7  17
BRANCH   8  19
HETATM   19  N   UNK N   1      22.317  13.467   7.494  0.00  0.00    -0.297 N 
HETATM   20  C   UNK N   1      22.350  13.015   8.758  0.00  0.00     0.142 A 
HETATM   21  C   UNK N   1      23.621  13.001   9.201  0.00  0.00     0.122 A 
HETATM   22  N   UNK N   1      21.305  12.649   9.542  0.00  0.00    -0.336 N 
HETATM   23  N   UNK N   1      24.447  13.424   8.225  0.00  0.00    -0.346 N 
HETATM   24  C   UNK N   1      23.902  12.608  10.502  0.00  0.00     0.131 A 
HETATM   25  C   UNK N   1      23.619  13.709   7.179  0.00  0.00     0.188 A 
ATOM     26  HN  UNK N   1      25.462  13.512   8.260  1.00  0.00     0.167 HD
HETATM   27  N   UNK N   1      22.855  12.239  11.300  0.00  0.00    -0.337 N 
HETATM   28  C   UNK N   1      21.566  12.255  10.826  0.00  0.00     0.183 A 
ATOM     29  HN  UNK N   1      23.034  11.948  12.261  1.00  0.00     0.168 HD
ATOM     30  HN  UNK N   1      20.350  12.668   9.184  1.00  0.00     0.168 HD
BRANCH  24  31
HETATM   31  N   UNK N   1      25.220  12.602  11.000  0.00  0.00    -0.383 N 
HETATM   32  H   UNK N   1      25.447  12.649  11.956  0.00  0.00     0.157 HD
HETATM   33  H   UNK N   1      25.959  12.546  10.352  0.00  0.00     0.157 HD
ENDBRANCH  24  31
ENDBRANCH   8  19
ENDBRANCH   4   5
ENDBRANCH   3   4
ENDBRANCH   1   3
BRANCH   1  34
HETATM   34  O   UNK N   1      21.260  13.428   0.533  0.00  0.00    -0.307 OA
HETATM   35  H   UNK N   1      21.741  13.260  -0.293  0.00  0.00     0.222 HD
ENDBRANCH   1  34
BRANCH   1  36
HETATM   36  O   UNK N   1      23.282  14.201   1.334  0.00  0.00    -0.195 OA
BRANCH  36  37
HETATM   37  P   UNK N   1      24.032  13.457   2.724  0.00  0.00     0.401 P 
HETATM   38  O   UNK N   1      25.316  12.720   2.257  0.00  0.00    -0.631 OA
BRANCH  37  39
HETATM   39  O   UNK N   1      24.480  14.606   3.947  0.00  0.00    -0.296 OA
BRANCH  39  40
HETATM   40  C   UNK N   1      24.626  15.843   3.298  0.00  0.00     0.192 C 
BRANCH  40  41
HETATM   41  C   UNK N   1      26.006  16.439   3.587  0.00  0.00     0.009 C 
HETATM   42  C   UNK N   1      26.995  15.888   2.566  0.00  0.00     0.020 C 
HETATM   43  C   UNK N   1      25.927  17.941   3.378  0.00  0.00     0.020 C 
BRANCH  41  44
HETATM   44  C   UNK N   1      26.450  16.148   5.048  0.00  0.00     0.219 C 
BRANCH  44  45
HETATM   45  C   UNK N   1      27.545  17.086   5.467  0.00  0.00     0.247 C 
HETATM   46  N   UNK N   1      27.263  18.062   6.363  0.00  0.00    -0.358 N 
HETATM   47  H   UNK N   1      26.323  18.237   6.598  0.00  0.00     0.162 HD
HETATM   48  O   UNK N   1      28.693  16.906   5.083  0.00  0.00    -0.271 OA
BRANCH  46  49
HETATM   49  C   UNK N   1      28.291  18.845   6.978  0.00  0.00     0.132 C 
BRANCH  49  50
HETATM   50  C   UNK N   1      28.073  18.844   8.485  0.00  0.00     0.122 C 
BRANCH  50  51
HETATM   51  C   UNK N   1      29.304  18.314   9.098  0.00  0.00     0.219 C 
HETATM   52  N   UNK N   1      30.091  17.475   8.385  0.00  0.00    -0.360 N 
HETATM   53  H   UNK N   1      29.942  17.379   7.417  0.00  0.00     0.162 HD
HETATM   54  O   UNK N   1      29.546  18.560  10.272  0.00  0.00    -0.274 OA
BRANCH  52  55
HETATM   55  C   UNK N   1      31.138  16.723   9.015  0.00  0.00     0.133 C 
BRANCH  55  56
HETATM   56  C   UNK N   1      32.451  17.386   8.641  0.00  0.00     0.102 C 
BRANCH  56  57
HETATM   57  S   UNK N   1      33.644  16.126   8.137  0.00  0.00    -0.091 SA
BRANCH  57  58
HETATM   58  C   UNK N   1      33.922  16.893   6.540  0.00  0.00     0.188 C 
HETATM   59  O   UNK N   1      34.491  17.970   6.456  0.00  0.00    -0.285 OA
BRANCH  58  60
HETATM   60  C   UNK N   1      33.513  16.176   5.300  0.00  0.00     0.122 C 
BRANCH  60  61
HETATM   61  C   UNK N   1      32.100  16.588   4.929  0.00  0.00     0.121 C 
HETATM   62  C   UNK N   1      32.138  17.540   3.756  0.00  0.00     0.040 C 
BRANCH  61  63
HETATM   63  O   UNK N   1      31.364  15.454   4.583  0.00  0.00    -0.396 OA
HETATM   64  H   UNK N   1      30.481  15.190   4.886  0.00  0.00     0.210 HD
ENDBRANCH  61  63
ENDBRANCH  60  61
ENDBRANCH  58  60
ENDBRANCH  57  58
ENDBRANCH  56  57
ENDBRANCH  55  56
ENDBRANCH  52  55
ENDBRANCH  50  51
ENDBRANCH  49  50
ENDBRANCH  46  49
ENDBRANCH  44  45
BRANCH  44  65
HETATM   65  O   UNK N   1      26.907  14.832   5.190  0.00  0.00    -0.385 OA
HETATM   66  H   UNK N   1      27.440  14.354   4.535  0.00  0.00     0.210 HD
ENDBRANCH  44  65
ENDBRANCH  41  44
ENDBRANCH  40  41
ENDBRANCH  39  40
ENDBRANCH  37  39
BRANCH  37  67
HETATM   67  O   UNK N   1      22.962  12.245   3.363  0.00  0.00    -0.307 OA
HETATM   68  H   UNK N   1      22.880  11.281   3.438  0.00  0.00     0.222 HD
ENDBRANCH  37  67
ENDBRANCH  36  37
ENDBRANCH   1  36
TORSDOF 30
ENDMDL
