MODEL 1
REMARK VINA RESULT:      -5.3      0.000      0.000
REMARK WARNING: 32 MAX_TORS EXCEEDED!!!
REMARK  43 active torsions:
REMARK  status: ('A' for Active; 'I' for Inactive)
REMARK    1  A    between atoms: C_2  and  C_3 
REMARK    2  A    between atoms: C_3  and  C_4 
REMARK    3  A    between atoms: C_4  and  C_5 
REMARK    4  A    between atoms: C_5  and  C_6 
REMARK    5  A    between atoms: C_6  and  C_7 
REMARK    6  A    between atoms: C_7  and  C_8 
REMARK    7  A    between atoms: C_8  and  C_9 
REMARK    8  A    between atoms: C_10  and  C_11 
REMARK    9  A    between atoms: C_11  and  C_12 
REMARK   10  A    between atoms: C_12  and  C_13 
REMARK   11  A    between atoms: C_13  and  C_14 
REMARK   12  A    between atoms: C_14  and  C_15 
REMARK   13  A    between atoms: C_15  and  C_16 
REMARK   14  A    between atoms: C_16  and  C_17 
REMARK   15  A    between atoms: C_17  and  C_18 
REMARK   16  A    between atoms: C_18  and  O_20 
REMARK   17  A    between atoms: O_20  and  C_21 
REMARK   18  A    between atoms: C_21  and  C_22 
REMARK   19  A    between atoms: C_22  and  C_23 
REMARK   20  A    between atoms: C_22  and  O_35 
REMARK   21  A    between atoms: C_23  and  O_24 
REMARK   22  A    between atoms: O_24  and  P_25 
REMARK   23  A    between atoms: P_25  and  O_27 
REMARK   24  A    between atoms: P_25  and  O_28 
REMARK   25  A    between atoms: O_28  and  C_29 
REMARK   26  A    between atoms: C_29  and  C_30 
REMARK   27  A    between atoms: C_30  and  N_31 
REMARK   28  A    between atoms: O_35  and  C_36 
REMARK   29  A    between atoms: C_36  and  C_38 
REMARK   30  A    between atoms: C_38  and  C_39 
REMARK   31  A    between atoms: C_39  and  C_40 
REMARK   32  A    between atoms: C_40  and  C_41 
REMARK   33  A    between atoms: C_41  and  C_42 
REMARK   34  A    between atoms: C_42  and  C_43 
REMARK   35  A    between atoms: C_43  and  C_44 
REMARK   36  A    between atoms: C_44  and  C_45 
REMARK   37  A    between atoms: C_46  and  C_47 
REMARK   38  A    between atoms: C_47  and  C_48 
REMARK   39  A    between atoms: C_48  and  C_49 
REMARK   40  A    between atoms: C_49  and  C_50 
REMARK   41  A    between atoms: C_50  and  C_51 
REMARK   42  A    between atoms: C_51  and  C_52 
REMARK   43  A    between atoms: C_52  and  C_53 
ROOT
HETATM    1  C   UNK N   1      21.165  16.533   4.329  0.00  0.00     0.180 C 
ENDROOT
BRANCH   1   2
HETATM    2  C   UNK N   1      20.261  16.403   3.109  0.00  0.00     0.213 C 
BRANCH   2   3
HETATM    3  O   UNK N   1      20.402  15.131   2.611  0.00  0.00    -0.319 OA
BRANCH   3   4
HETATM    4  C   UNK N   1      20.780  14.906   1.327  0.00  0.00     0.258 C 
HETATM    5  O   UNK N   1      20.776  15.824   0.529  0.00  0.00    -0.265 OA
BRANCH   4   6
HETATM    6  C   UNK N   1      21.188  13.529   0.862  0.00  0.00     0.111 C 
BRANCH   6   7
HETATM    7  C   UNK N   1      22.671  13.483   0.475  0.00  0.00     0.010 C 
BRANCH   7   8
HETATM    8  C   UNK N   1      23.540  14.374   1.363  0.00  0.00     0.000 C 
BRANCH   8   9
HETATM    9  C   UNK N   1      24.458  13.532   2.236  0.00  0.00     0.000 C 
BRANCH   9  10
HETATM   10  C   UNK N   1      24.082  13.668   3.691  0.00  0.00     0.000 C 
BRANCH  10  11
HETATM   11  C   UNK N   1      24.805  12.599   4.488  0.00  0.00     0.004 C 
BRANCH  11  12
HETATM   12  C   UNK N   1      26.117  12.249   3.811  0.00  0.00     0.027 C 
BRANCH  12  13
HETATM   13  C   UNK N   1      27.247  12.194   4.798  0.00  0.00    -0.031 C 
HETATM   14  C   UNK N   1      28.498  12.529   4.465  0.00  0.00    -0.031 C 
BRANCH  14  15
HETATM   15  C   UNK N   1      28.864  12.967   3.078  0.00  0.00     0.027 C 
BRANCH  15  16
HETATM   16  C   UNK N   1      28.879  14.485   2.973  0.00  0.00     0.004 C 
BRANCH  16  17
HETATM   17  C   UNK N   1      27.828  14.962   1.988  0.00  0.00     0.000 C 
BRANCH  17  18
HETATM   18  C   UNK N   1      26.960  16.018   2.625  0.00  0.00     0.000 C 
BRANCH  18  19
HETATM   19  C   UNK N   1      27.497  16.346   4.000  0.00  0.00     0.000 C 
BRANCH  19  20
HETATM   20  C   UNK N   1      26.381  16.161   5.002  0.00  0.00    -0.000 C 
BRANCH  20  21
HETATM   21  C   UNK N   1      26.930  15.607   6.297  0.00  0.00    -0.005 C 
HETATM   22  C   UNK N   1      25.774  15.196   7.183  0.00  0.00     0.005 C 
ENDBRANCH  20  21
ENDBRANCH  19  20
ENDBRANCH  18  19
ENDBRANCH  17  18
ENDBRANCH  16  17
ENDBRANCH  15  16
ENDBRANCH  14  15
ENDBRANCH  12  13
ENDBRANCH  11  12
ENDBRANCH  10  11
ENDBRANCH   9  10
ENDBRANCH   8   9
ENDBRANCH   7   8
ENDBRANCH   6   7
ENDBRANCH   4   6
ENDBRANCH   3   4
ENDBRANCH   2   3
ENDBRANCH   1   2
BRANCH   1  23
HETATM   23  C   UNK N   1      21.080  15.381   5.320  0.00  0.00     0.215 C 
BRANCH  23  24
HETATM   24  O   UNK N   1      20.191  15.662   6.358  0.00  0.00    -0.294 OA
BRANCH  24  25
HETATM   25  P   UNK N   1      20.943  14.995   7.772  0.00  0.00     0.393 P 
HETATM   26  O   UNK N   1      19.993  16.092   8.327  0.00  0.00    -0.631 OA
BRANCH  25  27
HETATM   27  O   UNK N   1      20.046  13.793   6.888  0.00  0.00    -0.307 OA
HETATM   28  H   UNK N   1      19.851  13.130   6.207  0.00  0.00     0.222 HD
ENDBRANCH  25  27
BRANCH  25  29
HETATM   29  O   UNK N   1      19.987  14.126   8.948  0.00  0.00    -0.295 OA
BRANCH  29  30
HETATM   30  C   UNK N   1      20.892  13.638   9.901  0.00  0.00     0.208 C 
BRANCH  30  31
HETATM   31  C   UNK N   1      22.337  13.755   9.417  0.00  0.00     0.262 C 
BRANCH  31  32
HETATM   32  N   UNK N   1      23.165  12.647   9.899  0.00  0.00    -0.077 N 
HETATM   33  C   UNK N   1      22.711  12.200  11.207  0.00  0.00     0.271 C 
HETATM   34  C   UNK N   1      23.040  11.540   8.972  0.00  0.00     0.271 C 
HETATM   35  C   UNK N   1      24.572  13.021   9.974  0.00  0.00     0.271 C 
ENDBRANCH  31  32
ENDBRANCH  30  31
ENDBRANCH  29  30
ENDBRANCH  25  29
ENDBRANCH  24  25
ENDBRANCH  23  24
ENDBRANCH   1  23
BRANCH   1  36
HETATM   36  O   UNK N   1      21.094  17.780   4.917  0.00  0.00    -0.312 OA
BRANCH  36  37
HETATM   37  C   UNK N   1      21.542  18.939   4.368  0.00  0.00     0.259 C 
HETATM   38  O   UNK N   1      20.824  19.927   4.296  0.00  0.00    -0.265 OA
BRANCH  37  39
HETATM   39  C   UNK N   1      22.943  19.006   3.865  0.00  0.00     0.111 C 
BRANCH  39  40
HETATM   40  C   UNK N   1      23.152  20.303   3.091  0.00  0.00     0.010 C 
BRANCH  40  41
HETATM   41  C   UNK N   1      24.619  20.528   2.758  0.00  0.00     0.000 C 
BRANCH  41  42
HETATM   42  C   UNK N   1      25.489  19.371   3.217  0.00  0.00     0.000 C 
BRANCH  42  43
HETATM   43  C   UNK N   1      26.761  19.921   3.830  0.00  0.00     0.000 C 
BRANCH  43  44
HETATM   44  C   UNK N   1      26.627  19.960   5.337  0.00  0.00     0.004 C 
BRANCH  44  45
HETATM   45  C   UNK N   1      27.920  19.495   5.984  0.00  0.00     0.027 C 
BRANCH  45  46
HETATM   46  C   UNK N   1      27.698  19.267   7.450  0.00  0.00    -0.031 C 
HETATM   47  C   UNK N   1      28.491  18.487   8.196  0.00  0.00    -0.031 C 
BRANCH  47  48
HETATM   48  C   UNK N   1      29.706  17.813   7.643  0.00  0.00     0.027 C 
BRANCH  48  49
HETATM   49  C   UNK N   1      30.730  17.558   8.735  0.00  0.00     0.004 C 
BRANCH  49  50
HETATM   50  C   UNK N   1      31.952  16.847   8.186  0.00  0.00     0.000 C 
BRANCH  50  51
HETATM   51  C   UNK N   1      32.902  17.835   7.540  0.00  0.00     0.000 C 
BRANCH  51  52
HETATM   52  C   UNK N   1      33.750  17.138   6.497  0.00  0.00     0.000 C 
BRANCH  52  53
HETATM   53  C   UNK N   1      33.281  17.564   5.124  0.00  0.00    -0.000 C 
BRANCH  53  54
HETATM   54  C   UNK N   1      32.221  16.607   4.623  0.00  0.00    -0.005 C 
HETATM   55  C   UNK N   1      30.962  17.384   4.303  0.00  0.00     0.005 C 
ENDBRANCH  53  54
ENDBRANCH  52  53
ENDBRANCH  51  52
ENDBRANCH  50  51
ENDBRANCH  49  50
ENDBRANCH  48  49
ENDBRANCH  47  48
ENDBRANCH  45  46
ENDBRANCH  44  45
ENDBRANCH  43  44
ENDBRANCH  42  43
ENDBRANCH  41  42
ENDBRANCH  40  41
ENDBRANCH  39  40
ENDBRANCH  37  39
ENDBRANCH  36  37
ENDBRANCH   1  36
TORSDOF 43
ENDMDL
MODEL 2
REMARK VINA RESULT:      -5.3      1.574      6.153
REMARK WARNING: 32 MAX_TORS EXCEEDED!!!
REMARK  43 active torsions:
REMARK  status: ('A' for Active; 'I' for Inactive)
REMARK    1  A    between atoms: C_2  and  C_3 
REMARK    2  A    between atoms: C_3  and  C_4 
REMARK    3  A    between atoms: C_4  and  C_5 
REMARK    4  A    between atoms: C_5  and  C_6 
REMARK    5  A    between atoms: C_6  and  C_7 
REMARK    6  A    between atoms: C_7  and  C_8 
REMARK    7  A    between atoms: C_8  and  C_9 
REMARK    8  A    between atoms: C_10  and  C_11 
REMARK    9  A    between atoms: C_11  and  C_12 
REMARK   10  A    between atoms: C_12  and  C_13 
REMARK   11  A    between atoms: C_13  and  C_14 
REMARK   12  A    between atoms: C_14  and  C_15 
REMARK   13  A    between atoms: C_15  and  C_16 
REMARK   14  A    between atoms: C_16  and  C_17 
REMARK   15  A    between atoms: C_17  and  C_18 
REMARK   16  A    between atoms: C_18  and  O_20 
REMARK   17  A    between atoms: O_20  and  C_21 
REMARK   18  A    between atoms: C_21  and  C_22 
REMARK   19  A    between atoms: C_22  and  C_23 
REMARK   20  A    between atoms: C_22  and  O_35 
REMARK   21  A    between atoms: C_23  and  O_24 
REMARK   22  A    between atoms: O_24  and  P_25 
REMARK   23  A    between atoms: P_25  and  O_27 
REMARK   24  A    between atoms: P_25  and  O_28 
REMARK   25  A    between atoms: O_28  and  C_29 
REMARK   26  A    between atoms: C_29  and  C_30 
REMARK   27  A    between atoms: C_30  and  N_31 
REMARK   28  A    between atoms: O_35  and  C_36 
REMARK   29  A    between atoms: C_36  and  C_38 
REMARK   30  A    between atoms: C_38  and  C_39 
REMARK   31  A    between atoms: C_39  and  C_40 
REMARK   32  A    between atoms: C_40  and  C_41 
REMARK   33  A    between atoms: C_41  and  C_42 
REMARK   34  A    between atoms: C_42  and  C_43 
REMARK   35  A    between atoms: C_43  and  C_44 
REMARK   36  A    between atoms: C_44  and  C_45 
REMARK   37  A    between atoms: C_46  and  C_47 
REMARK   38  A    between atoms: C_47  and  C_48 
REMARK   39  A    between atoms: C_48  and  C_49 
REMARK   40  A    between atoms: C_49  and  C_50 
REMARK   41  A    between atoms: C_50  and  C_51 
REMARK   42  A    between atoms: C_51  and  C_52 
REMARK   43  A    between atoms: C_52  and  C_53 
ROOT
HETATM    1  C   UNK N   1      20.942  17.997   4.187  0.00  0.00     0.180 C 
ENDROOT
BRANCH   1   2
HETATM    2  C   UNK N   1      21.349  19.404   3.765  0.00  0.00     0.213 C 
BRANCH   2   3
HETATM    3  O   UNK N   1      22.699  19.397   3.514  0.00  0.00    -0.319 OA
BRANCH   3   4
HETATM    4  C   UNK N   1      23.333  20.478   2.993  0.00  0.00     0.258 C 
HETATM    5  O   UNK N   1      22.700  21.488   2.752  0.00  0.00    -0.265 OA
BRANCH   4   6
HETATM    6  C   UNK N   1      24.811  20.445   2.684  0.00  0.00     0.111 C 
BRANCH   6   7
HETATM    7  C   UNK N   1      25.634  20.067   3.921  0.00  0.00     0.010 C 
BRANCH   7   8
HETATM    8  C   UNK N   1      27.125  19.920   3.616  0.00  0.00     0.000 C 
BRANCH   8   9
HETATM    9  C   UNK N   1      27.952  20.094   4.880  0.00  0.00     0.000 C 
BRANCH   9  10
HETATM   10  C   UNK N   1      27.086  19.956   6.107  0.00  0.00     0.000 C 
BRANCH  10  11
HETATM   11  C   UNK N   1      27.977  19.849   7.330  0.00  0.00     0.004 C 
BRANCH  11  12
HETATM   12  C   UNK N   1      27.970  18.423   7.851  0.00  0.00     0.027 C 
BRANCH  12  13
HETATM   13  C   UNK N   1      29.349  17.971   8.234  0.00  0.00    -0.031 C 
HETATM   14  C   UNK N   1      30.174  17.386   7.360  0.00  0.00    -0.031 C 
BRANCH  14  15
HETATM   15  C   UNK N   1      29.775  17.126   5.937  0.00  0.00     0.027 C 
BRANCH  15  16
HETATM   16  C   UNK N   1      30.258  15.759   5.477  0.00  0.00     0.004 C 
BRANCH  16  17
HETATM   17  C   UNK N   1      31.735  15.584   5.783  0.00  0.00     0.000 C 
BRANCH  17  18
HETATM   18  C   UNK N   1      32.568  16.217   4.698  0.00  0.00     0.000 C 
BRANCH  18  19
HETATM   19  C   UNK N   1      33.203  17.484   5.226  0.00  0.00     0.000 C 
BRANCH  19  20
HETATM   20  C   UNK N   1      34.089  17.119   6.395  0.00  0.00    -0.000 C 
BRANCH  20  21
HETATM   21  C   UNK N   1      33.870  18.085   7.537  0.00  0.00    -0.005 C 
HETATM   22  C   UNK N   1      33.549  17.298   8.789  0.00  0.00     0.005 C 
ENDBRANCH  20  21
ENDBRANCH  19  20
ENDBRANCH  18  19
ENDBRANCH  17  18
ENDBRANCH  16  17
ENDBRANCH  15  16
ENDBRANCH  14  15
ENDBRANCH  12  13
ENDBRANCH  11  12
ENDBRANCH  10  11
ENDBRANCH   9  10
ENDBRANCH   8   9
ENDBRANCH   7   8
ENDBRANCH   6   7
ENDBRANCH   4   6
ENDBRANCH   3   4
ENDBRANCH   2   3
ENDBRANCH   1   2
BRANCH   1  23
HETATM   23  C   UNK N   1      21.235  17.648   5.638  0.00  0.00     0.215 C 
BRANCH  23  24
HETATM   24  O   UNK N   1      21.018  16.294   5.894  0.00  0.00    -0.294 OA
BRANCH  24  25
HETATM   25  P   UNK N   1      19.614  16.259   6.912  0.00  0.00     0.393 P 
HETATM   26  O   UNK N   1      19.827  14.774   6.505  0.00  0.00    -0.631 OA
BRANCH  25  27
HETATM   27  O   UNK N   1      21.009  16.873   7.754  0.00  0.00    -0.307 OA
HETATM   28  H   UNK N   1      21.521  17.369   8.411  0.00  0.00     0.222 HD
ENDBRANCH  25  27
BRANCH  25  29
HETATM   29  O   UNK N   1      19.665  15.435   8.452  0.00  0.00    -0.295 OA
BRANCH  29  30
HETATM   30  C   UNK N   1      20.994  15.028   8.632  0.00  0.00     0.208 C 
BRANCH  30  31
HETATM   31  C   UNK N   1      21.135  14.077   9.820  0.00  0.00     0.262 C 
BRANCH  31  32
HETATM   32  N   UNK N   1      22.038  12.963   9.521  0.00  0.00    -0.077 N 
HETATM   33  C   UNK N   1      23.418  13.421   9.466  0.00  0.00     0.271 C 
HETATM   34  C   UNK N   1      21.927  11.981  10.582  0.00  0.00     0.271 C 
HETATM   35  C   UNK N   1      21.692  12.313   8.263  0.00  0.00     0.271 C 
ENDBRANCH  31  32
ENDBRANCH  30  31
ENDBRANCH  29  30
ENDBRANCH  25  29
ENDBRANCH  24  25
ENDBRANCH  23  24
ENDBRANCH   1  23
BRANCH   1  36
HETATM   36  O   UNK N   1      21.349  17.031   3.288  0.00  0.00    -0.312 OA
BRANCH  36  37
HETATM   37  C   UNK N   1      20.615  16.561   2.246  0.00  0.00     0.259 C 
HETATM   38  O   UNK N   1      19.968  17.316   1.534  0.00  0.00    -0.265 OA
BRANCH  37  39
HETATM   39  C   UNK N   1      20.620  15.099   1.960  0.00  0.00     0.111 C 
BRANCH  39  40
HETATM   40  C   UNK N   1      21.166  14.339   3.163  0.00  0.00     0.010 C 
BRANCH  40  41
HETATM   41  C   UNK N   1      20.411  13.039   3.397  0.00  0.00     0.000 C 
BRANCH  41  42
HETATM   42  C   UNK N   1      21.162  12.107   4.332  0.00  0.00     0.000 C 
BRANCH  42  43
HETATM   43  C   UNK N   1      22.589  11.960   3.841  0.00  0.00     0.000 C 
BRANCH  43  44
HETATM   44  C   UNK N   1      23.539  11.974   5.020  0.00  0.00     0.004 C 
BRANCH  44  45
HETATM   45  C   UNK N   1      24.396  13.227   4.978  0.00  0.00     0.027 C 
BRANCH  45  46
HETATM   46  C   UNK N   1      23.746  14.312   5.784  0.00  0.00    -0.031 C 
HETATM   47  C   UNK N   1      24.430  15.321   6.338  0.00  0.00    -0.031 C 
BRANCH  47  48
HETATM   48  C   UNK N   1      25.905  15.486   6.157  0.00  0.00     0.027 C 
BRANCH  48  49
HETATM   49  C   UNK N   1      26.210  16.621   5.195  0.00  0.00     0.004 C 
BRANCH  49  50
HETATM   50  C   UNK N   1      26.793  16.099   3.896  0.00  0.00     0.000 C 
BRANCH  50  51
HETATM   51  C   UNK N   1      25.794  16.240   2.765  0.00  0.00     0.000 C 
BRANCH  51  52
HETATM   52  C   UNK N   1      25.772  14.977   1.930  0.00  0.00     0.000 C 
BRANCH  52  53
HETATM   53  C   UNK N   1      24.341  14.678   1.540  0.00  0.00    -0.000 C 
BRANCH  53  54
HETATM   54  C   UNK N   1      24.262  13.320   0.878  0.00  0.00    -0.005 C 
HETATM   55  C   UNK N   1      25.346  12.427   1.444  0.00  0.00     0.005 C 
ENDBRANCH  53  54
ENDBRANCH  52  53
ENDBRANCH  51  52
ENDBRANCH  50  51
ENDBRANCH  49  50
ENDBRANCH  48  49
ENDBRANCH  47  48
ENDBRANCH  45  46
ENDBRANCH  44  45
ENDBRANCH  43  44
ENDBRANCH  42  43
ENDBRANCH  41  42
ENDBRANCH  40  41
ENDBRANCH  39  40
ENDBRANCH  37  39
ENDBRANCH  36  37
ENDBRANCH   1  36
TORSDOF 43
ENDMDL
MODEL 3
REMARK VINA RESULT:      -5.2      6.002     10.227
REMARK WARNING: 32 MAX_TORS EXCEEDED!!!
REMARK  43 active torsions:
REMARK  status: ('A' for Active; 'I' for Inactive)
REMARK    1  A    between atoms: C_2  and  C_3 
REMARK    2  A    between atoms: C_3  and  C_4 
REMARK    3  A    between atoms: C_4  and  C_5 
REMARK    4  A    between atoms: C_5  and  C_6 
REMARK    5  A    between atoms: C_6  and  C_7 
REMARK    6  A    between atoms: C_7  and  C_8 
REMARK    7  A    between atoms: C_8  and  C_9 
REMARK    8  A    between atoms: C_10  and  C_11 
REMARK    9  A    between atoms: C_11  and  C_12 
REMARK   10  A    between atoms: C_12  and  C_13 
REMARK   11  A    between atoms: C_13  and  C_14 
REMARK   12  A    between atoms: C_14  and  C_15 
REMARK   13  A    between atoms: C_15  and  C_16 
REMARK   14  A    between atoms: C_16  and  C_17 
REMARK   15  A    between atoms: C_17  and  C_18 
REMARK   16  A    between atoms: C_18  and  O_20 
REMARK   17  A    between atoms: O_20  and  C_21 
REMARK   18  A    between atoms: C_21  and  C_22 
REMARK   19  A    between atoms: C_22  and  C_23 
REMARK   20  A    between atoms: C_22  and  O_35 
REMARK   21  A    between atoms: C_23  and  O_24 
REMARK   22  A    between atoms: O_24  and  P_25 
REMARK   23  A    between atoms: P_25  and  O_27 
REMARK   24  A    between atoms: P_25  and  O_28 
REMARK   25  A    between atoms: O_28  and  C_29 
REMARK   26  A    between atoms: C_29  and  C_30 
REMARK   27  A    between atoms: C_30  and  N_31 
REMARK   28  A    between atoms: O_35  and  C_36 
REMARK   29  A    between atoms: C_36  and  C_38 
REMARK   30  A    between atoms: C_38  and  C_39 
REMARK   31  A    between atoms: C_39  and  C_40 
REMARK   32  A    between atoms: C_40  and  C_41 
REMARK   33  A    between atoms: C_41  and  C_42 
REMARK   34  A    between atoms: C_42  and  C_43 
REMARK   35  A    between atoms: C_43  and  C_44 
REMARK   36  A    between atoms: C_44  and  C_45 
REMARK   37  A    between atoms: C_46  and  C_47 
REMARK   38  A    between atoms: C_47  and  C_48 
REMARK   39  A    between atoms: C_48  and  C_49 
REMARK   40  A    between atoms: C_49  and  C_50 
REMARK   41  A    between atoms: C_50  and  C_51 
REMARK   42  A    between atoms: C_51  and  C_52 
REMARK   43  A    between atoms: C_52  and  C_53 
ROOT
HETATM    1  C   UNK N   1      32.156  17.563   7.916  0.00  0.00     0.180 C 
ENDROOT
BRANCH   1   2
HETATM    2  C   UNK N   1      30.981  18.136   8.700  0.00  0.00     0.213 C 
BRANCH   2   3
HETATM    3  O   UNK N   1      29.911  17.290   8.539  0.00  0.00    -0.319 OA
BRANCH   3   4
HETATM    4  C   UNK N   1      28.650  17.760   8.364  0.00  0.00     0.258 C 
HETATM    5  O   UNK N   1      27.848  17.681   9.275  0.00  0.00    -0.265 OA
BRANCH   4   6
HETATM    6  C   UNK N   1      28.216  18.364   7.051  0.00  0.00     0.111 C 
BRANCH   6   7
HETATM    7  C   UNK N   1      27.763  19.818   7.224  0.00  0.00     0.010 C 
BRANCH   7   8
HETATM    8  C   UNK N   1      27.618  20.555   5.891  0.00  0.00     0.000 C 
BRANCH   8   9
HETATM    9  C   UNK N   1      26.290  20.216   5.232  0.00  0.00     0.000 C 
BRANCH   9  10
HETATM   10  C   UNK N   1      26.363  20.440   3.741  0.00  0.00     0.000 C 
BRANCH  10  11
HETATM   11  C   UNK N   1      25.034  20.054   3.120  0.00  0.00     0.004 C 
BRANCH  11  12
HETATM   12  C   UNK N   1      24.113  19.487   4.183  0.00  0.00     0.027 C 
BRANCH  12  13
HETATM   13  C   UNK N   1      22.952  18.756   3.573  0.00  0.00    -0.031 C 
HETATM   14  C   UNK N   1      22.063  18.088   4.314  0.00  0.00    -0.031 C 
BRANCH  14  15
HETATM   15  C   UNK N   1      22.170  18.008   5.808  0.00  0.00     0.027 C 
BRANCH  15  16
HETATM   16  C   UNK N   1      21.219  16.960   6.368  0.00  0.00     0.004 C 
BRANCH  16  17
HETATM   17  C   UNK N   1      21.995  15.784   6.933  0.00  0.00     0.000 C 
BRANCH  17  18
HETATM   18  C   UNK N   1      21.395  15.350   8.246  0.00  0.00     0.000 C 
BRANCH  18  19
HETATM   19  C   UNK N   1      21.907  13.972   8.601  0.00  0.00     0.000 C 
BRANCH  19  20
HETATM   20  C   UNK N   1      21.348  13.591   9.952  0.00  0.00    -0.000 C 
BRANCH  20  21
HETATM   21  C   UNK N   1      22.245  12.574  10.620  0.00  0.00    -0.005 C 
HETATM   22  C   UNK N   1      23.659  12.761  10.114  0.00  0.00     0.005 C 
ENDBRANCH  20  21
ENDBRANCH  19  20
ENDBRANCH  18  19
ENDBRANCH  17  18
ENDBRANCH  16  17
ENDBRANCH  15  16
ENDBRANCH  14  15
ENDBRANCH  12  13
ENDBRANCH  11  12
ENDBRANCH  10  11
ENDBRANCH   9  10
ENDBRANCH   8   9
ENDBRANCH   7   8
ENDBRANCH   6   7
ENDBRANCH   4   6
ENDBRANCH   3   4
ENDBRANCH   2   3
ENDBRANCH   1   2
BRANCH   1  23
HETATM   23  C   UNK N   1      33.471  18.308   8.086  0.00  0.00     0.215 C 
BRANCH  23  24
HETATM   24  O   UNK N   1      34.562  17.439   8.046  0.00  0.00    -0.294 OA
BRANCH  24  25
HETATM   25  P   UNK N   1      34.222  16.252   9.264  0.00  0.00     0.393 P 
HETATM   26  O   UNK N   1      34.977  15.460   8.160  0.00  0.00    -0.631 OA
BRANCH  25  27
HETATM   27  O   UNK N   1      35.211  17.546   9.879  0.00  0.00    -0.307 OA
HETATM   28  H   UNK N   1      35.491  18.453  10.080  0.00  0.00     0.222 HD
ENDBRANCH  25  27
BRANCH  25  29
HETATM   29  O   UNK N   1      35.529  15.500  10.147  0.00  0.00    -0.295 OA
BRANCH  29  30
HETATM   30  C   UNK N   1      34.996  15.130  11.390  0.00  0.00     0.208 C 
BRANCH  30  31
HETATM   31  C   UNK N   1      36.095  14.902  12.428  0.00  0.00     0.262 C 
BRANCH  31  32
HETATM   32  N   UNK N   1      36.226  13.486  12.780  0.00  0.00    -0.077 N 
HETATM   33  C   UNK N   1      36.518  13.336  14.198  0.00  0.00     0.271 C 
HETATM   34  C   UNK N   1      34.967  12.823  12.504  0.00  0.00     0.271 C 
HETATM   35  C   UNK N   1      37.266  12.831  11.998  0.00  0.00     0.271 C 
ENDBRANCH  31  32
ENDBRANCH  30  31
ENDBRANCH  29  30
ENDBRANCH  25  29
ENDBRANCH  24  25
ENDBRANCH  23  24
ENDBRANCH   1  23
BRANCH   1  36
HETATM   36  O   UNK N   1      31.837  17.287   6.601  0.00  0.00    -0.312 OA
BRANCH  36  37
HETATM   37  C   UNK N   1      32.062  16.110   5.962  0.00  0.00     0.259 C 
HETATM   38  O   UNK N   1      33.123  15.888   5.395  0.00  0.00    -0.265 OA
BRANCH  37  39
HETATM   39  C   UNK N   1      30.999  15.066   5.974  0.00  0.00     0.111 C 
BRANCH  39  40
HETATM   40  C   UNK N   1      29.790  15.552   5.182  0.00  0.00     0.010 C 
BRANCH  40  41
HETATM   41  C   UNK N   1      30.204  16.226   3.882  0.00  0.00     0.000 C 
BRANCH  41  42
HETATM   42  C   UNK N   1      29.395  15.722   2.700  0.00  0.00     0.000 C 
BRANCH  42  43
HETATM   43  C   UNK N   1      29.002  14.280   2.948  0.00  0.00     0.000 C 
BRANCH  43  44
HETATM   44  C   UNK N   1      28.871  13.551   1.628  0.00  0.00     0.004 C 
BRANCH  44  45
HETATM   45  C   UNK N   1      27.808  12.472   1.736  0.00  0.00     0.027 C 
BRANCH  45  46
HETATM   46  C   UNK N   1      27.090  12.597   3.047  0.00  0.00    -0.031 C 
HETATM   47  C   UNK N   1      25.796  12.923   3.143  0.00  0.00    -0.031 C 
BRANCH  47  48
HETATM   48  C   UNK N   1      24.930  13.139   1.943  0.00  0.00     0.027 C 
BRANCH  48  49
HETATM   49  C   UNK N   1      24.768  14.620   1.649  0.00  0.00     0.004 C 
BRANCH  49  50
HETATM   50  C   UNK N   1      24.731  15.433   2.930  0.00  0.00     0.000 C 
BRANCH  50  51
HETATM   51  C   UNK N   1      25.858  16.446   2.954  0.00  0.00     0.000 C 
BRANCH  51  52
HETATM   52  C   UNK N   1      26.375  16.616   4.366  0.00  0.00     0.000 C 
BRANCH  52  53
HETATM   53  C   UNK N   1      25.308  16.155   5.334  0.00  0.00    -0.000 C 
BRANCH  53  54
HETATM   54  C   UNK N   1      25.953  15.526   6.549  0.00  0.00    -0.005 C 
HETATM   55  C   UNK N   1      25.476  14.095   6.680  0.00  0.00     0.005 C 
ENDBRANCH  53  54
ENDBRANCH  52  53
ENDBRANCH  51  52
ENDBRANCH  50  51
ENDBRANCH  49  50
ENDBRANCH  48  49
ENDBRANCH  47  48
ENDBRANCH  45  46
ENDBRANCH  44  45
ENDBRANCH  43  44
ENDBRANCH  42  43
ENDBRANCH  41  42
ENDBRANCH  40  41
ENDBRANCH  39  40
ENDBRANCH  37  39
ENDBRANCH  36  37
ENDBRANCH   1  36
TORSDOF 43
ENDMDL
MODEL 4
REMARK VINA RESULT:      -5.1      1.429      6.434
REMARK WARNING: 32 MAX_TORS EXCEEDED!!!
REMARK  43 active torsions:
REMARK  status: ('A' for Active; 'I' for Inactive)
REMARK    1  A    between atoms: C_2  and  C_3 
REMARK    2  A    between atoms: C_3  and  C_4 
REMARK    3  A    between atoms: C_4  and  C_5 
REMARK    4  A    between atoms: C_5  and  C_6 
REMARK    5  A    between atoms: C_6  and  C_7 
REMARK    6  A    between atoms: C_7  and  C_8 
REMARK    7  A    between atoms: C_8  and  C_9 
REMARK    8  A    between atoms: C_10  and  C_11 
REMARK    9  A    between atoms: C_11  and  C_12 
REMARK   10  A    between atoms: C_12  and  C_13 
REMARK   11  A    between atoms: C_13  and  C_14 
REMARK   12  A    between atoms: C_14  and  C_15 
REMARK   13  A    between atoms: C_15  and  C_16 
REMARK   14  A    between atoms: C_16  and  C_17 
REMARK   15  A    between atoms: C_17  and  C_18 
REMARK   16  A    between atoms: C_18  and  O_20 
REMARK   17  A    between atoms: O_20  and  C_21 
REMARK   18  A    between atoms: C_21  and  C_22 
REMARK   19  A    between atoms: C_22  and  C_23 
REMARK   20  A    between atoms: C_22  and  O_35 
REMARK   21  A    between atoms: C_23  and  O_24 
REMARK   22  A    between atoms: O_24  and  P_25 
REMARK   23  A    between atoms: P_25  and  O_27 
REMARK   24  A    between atoms: P_25  and  O_28 
REMARK   25  A    between atoms: O_28  and  C_29 
REMARK   26  A    between atoms: C_29  and  C_30 
REMARK   27  A    between atoms: C_30  and  N_31 
REMARK   28  A    between atoms: O_35  and  C_36 
REMARK   29  A    between atoms: C_36  and  C_38 
REMARK   30  A    between atoms: C_38  and  C_39 
REMARK   31  A    between atoms: C_39  and  C_40 
REMARK   32  A    between atoms: C_40  and  C_41 
REMARK   33  A    between atoms: C_41  and  C_42 
REMARK   34  A    between atoms: C_42  and  C_43 
REMARK   35  A    between atoms: C_43  and  C_44 
REMARK   36  A    between atoms: C_44  and  C_45 
REMARK   37  A    between atoms: C_46  and  C_47 
REMARK   38  A    between atoms: C_47  and  C_48 
REMARK   39  A    between atoms: C_48  and  C_49 
REMARK   40  A    between atoms: C_49  and  C_50 
REMARK   41  A    between atoms: C_50  and  C_51 
REMARK   42  A    between atoms: C_51  and  C_52 
REMARK   43  A    between atoms: C_52  and  C_53 
ROOT
HETATM    1  C   UNK N   1      20.360  17.625   3.122  0.00  0.00     0.180 C 
ENDROOT
BRANCH   1   2
HETATM    2  C   UNK N   1      20.854  19.062   2.992  0.00  0.00     0.213 C 
BRANCH   2   3
HETATM    3  O   UNK N   1      22.195  19.076   3.289  0.00  0.00    -0.319 OA
BRANCH   3   4
HETATM    4  C   UNK N   1      22.961  20.175   3.073  0.00  0.00     0.258 C 
HETATM    5  O   UNK N   1      22.435  21.217   2.732  0.00  0.00    -0.265 OA
BRANCH   4   6
HETATM    6  C   UNK N   1      24.462  20.125   3.229  0.00  0.00     0.111 C 
BRANCH   6   7
HETATM    7  C   UNK N   1      24.917  18.805   3.861  0.00  0.00     0.010 C 
BRANCH   7   8
HETATM    8  C   UNK N   1      26.145  18.971   4.757  0.00  0.00     0.000 C 
BRANCH   8   9
HETATM    9  C   UNK N   1      27.304  18.133   4.241  0.00  0.00     0.000 C 
BRANCH   9  10
HETATM   10  C   UNK N   1      28.530  18.334   5.098  0.00  0.00     0.000 C 
BRANCH  10  11
HETATM   11  C   UNK N   1      28.125  19.025   6.385  0.00  0.00     0.004 C 
BRANCH  11  12
HETATM   12  C   UNK N   1      28.528  18.177   7.576  0.00  0.00     0.027 C 
BRANCH  12  13
HETATM   13  C   UNK N   1      29.375  17.010   7.158  0.00  0.00    -0.031 C 
HETATM   14  C   UNK N   1      30.638  16.863   7.573  0.00  0.00    -0.031 C 
BRANCH  14  15
HETATM   15  C   UNK N   1      31.302  17.863   8.473  0.00  0.00     0.027 C 
BRANCH  15  16
HETATM   16  C   UNK N   1      32.789  17.569   8.609  0.00  0.00     0.004 C 
BRANCH  16  17
HETATM   17  C   UNK N   1      33.535  18.001   7.360  0.00  0.00     0.000 C 
BRANCH  17  18
HETATM   18  C   UNK N   1      34.252  16.823   6.750  0.00  0.00     0.000 C 
BRANCH  18  19
HETATM   19  C   UNK N   1      33.533  16.396   5.490  0.00  0.00     0.000 C 
BRANCH  19  20
HETATM   20  C   UNK N   1      33.243  17.630   4.667  0.00  0.00    -0.000 C 
BRANCH  20  21
HETATM   21  C   UNK N   1      31.904  17.496   3.980  0.00  0.00    -0.005 C 
HETATM   22  C   UNK N   1      31.435  16.061   4.096  0.00  0.00     0.005 C 
ENDBRANCH  20  21
ENDBRANCH  19  20
ENDBRANCH  18  19
ENDBRANCH  17  18
ENDBRANCH  16  17
ENDBRANCH  15  16
ENDBRANCH  14  15
ENDBRANCH  12  13
ENDBRANCH  11  12
ENDBRANCH  10  11
ENDBRANCH   9  10
ENDBRANCH   8   9
ENDBRANCH   7   8
ENDBRANCH   6   7
ENDBRANCH   4   6
ENDBRANCH   3   4
ENDBRANCH   2   3
ENDBRANCH   1   2
BRANCH   1  23
HETATM   23  C   UNK N   1      20.281  17.095   4.545  0.00  0.00     0.215 C 
BRANCH  23  24
HETATM   24  O   UNK N   1      21.539  16.735   5.028  0.00  0.00    -0.294 OA
BRANCH  24  25
HETATM   25  P   UNK N   1      21.249  15.333   6.008  0.00  0.00     0.393 P 
HETATM   26  O   UNK N   1      22.560  14.999   5.245  0.00  0.00    -0.631 OA
BRANCH  25  27
HETATM   27  O   UNK N   1      21.445  16.768   6.974  0.00  0.00    -0.307 OA
HETATM   28  H   UNK N   1      21.212  17.488   7.580  0.00  0.00     0.222 HD
ENDBRANCH  25  27
BRANCH  25  29
HETATM   29  O   UNK N   1      22.353  14.915   7.295  0.00  0.00    -0.295 OA
BRANCH  29  30
HETATM   30  C   UNK N   1      21.800  13.798   7.936  0.00  0.00     0.208 C 
BRANCH  30  31
HETATM   31  C   UNK N   1      22.293  13.675   9.377  0.00  0.00     0.262 C 
BRANCH  31  32
HETATM   32  N   UNK N   1      23.214  12.548   9.543  0.00  0.00    -0.077 N 
HETATM   33  C   UNK N   1      23.127  11.643   8.407  0.00  0.00     0.271 C 
HETATM   34  C   UNK N   1      24.568  13.063   9.611  0.00  0.00     0.271 C 
HETATM   35  C   UNK N   1      22.947  11.811  10.772  0.00  0.00     0.271 C 
ENDBRANCH  31  32
ENDBRANCH  30  31
ENDBRANCH  29  30
ENDBRANCH  25  29
ENDBRANCH  24  25
ENDBRANCH  23  24
ENDBRANCH   1  23
BRANCH   1  36
HETATM   36  O   UNK N   1      20.982  16.765   2.239  0.00  0.00    -0.312 OA
BRANCH  36  37
HETATM   37  C   UNK N   1      20.465  16.331   1.060  0.00  0.00     0.259 C 
HETATM   38  O   UNK N   1      20.274  17.101   0.129  0.00  0.00    -0.265 OA
BRANCH  37  39
HETATM   39  C   UNK N   1      20.146  14.885   0.899  0.00  0.00     0.111 C 
BRANCH  39  40
HETATM   40  C   UNK N   1      19.979  14.237   2.269  0.00  0.00     0.010 C 
BRANCH  40  41
HETATM   41  C   UNK N   1      20.707  12.904   2.353  0.00  0.00     0.000 C 
BRANCH  41  42
HETATM   42  C   UNK N   1      20.384  12.007   1.171  0.00  0.00     0.000 C 
BRANCH  42  43
HETATM   43  C   UNK N   1      21.657  11.338   0.695  0.00  0.00     0.000 C 
BRANCH  43  44
HETATM   44  C   UNK N   1      22.749  11.522   1.728  0.00  0.00     0.004 C 
BRANCH  44  45
HETATM   45  C   UNK N   1      24.033  11.968   1.050  0.00  0.00     0.027 C 
BRANCH  45  46
HETATM   46  C   UNK N   1      23.765  13.177   0.203  0.00  0.00    -0.031 C 
HETATM   47  C   UNK N   1      23.877  14.429   0.662  0.00  0.00    -0.031 C 
BRANCH  47  48
HETATM   48  C   UNK N   1      24.335  14.738   2.051  0.00  0.00     0.027 C 
BRANCH  48  49
HETATM   49  C   UNK N   1      25.602  15.574   2.032  0.00  0.00     0.004 C 
BRANCH  49  50
HETATM   50  C   UNK N   1      26.838  14.697   1.955  0.00  0.00     0.000 C 
BRANCH  50  51
HETATM   51  C   UNK N   1      26.960  13.833   3.195  0.00  0.00     0.000 C 
BRANCH  51  52
HETATM   52  C   UNK N   1      28.183  14.235   3.991  0.00  0.00     0.000 C 
BRANCH  52  53
HETATM   53  C   UNK N   1      27.750  14.610   5.391  0.00  0.00    -0.000 C 
BRANCH  53  54
HETATM   54  C   UNK N   1      26.240  14.650   5.468  0.00  0.00    -0.005 C 
HETATM   55  C   UNK N   1      25.825  15.540   6.620  0.00  0.00     0.005 C 
ENDBRANCH  53  54
ENDBRANCH  52  53
ENDBRANCH  51  52
ENDBRANCH  50  51
ENDBRANCH  49  50
ENDBRANCH  48  49
ENDBRANCH  47  48
ENDBRANCH  45  46
ENDBRANCH  44  45
ENDBRANCH  43  44
ENDBRANCH  42  43
ENDBRANCH  41  42
ENDBRANCH  40  41
ENDBRANCH  39  40
ENDBRANCH  37  39
ENDBRANCH  36  37
ENDBRANCH   1  36
TORSDOF 43
ENDMDL
MODEL 5
REMARK VINA RESULT:      -5.1      1.299      6.005
REMARK WARNING: 32 MAX_TORS EXCEEDED!!!
REMARK  43 active torsions:
REMARK  status: ('A' for Active; 'I' for Inactive)
REMARK    1  A    between atoms: C_2  and  C_3 
REMARK    2  A    between atoms: C_3  and  C_4 
REMARK    3  A    between atoms: C_4  and  C_5 
REMARK    4  A    between atoms: C_5  and  C_6 
REMARK    5  A    between atoms: C_6  and  C_7 
REMARK    6  A    between atoms: C_7  and  C_8 
REMARK    7  A    between atoms: C_8  and  C_9 
REMARK    8  A    between atoms: C_10  and  C_11 
REMARK    9  A    between atoms: C_11  and  C_12 
REMARK   10  A    between atoms: C_12  and  C_13 
REMARK   11  A    between atoms: C_13  and  C_14 
REMARK   12  A    between atoms: C_14  and  C_15 
REMARK   13  A    between atoms: C_15  and  C_16 
REMARK   14  A    between atoms: C_16  and  C_17 
REMARK   15  A    between atoms: C_17  and  C_18 
REMARK   16  A    between atoms: C_18  and  O_20 
REMARK   17  A    between atoms: O_20  and  C_21 
REMARK   18  A    between atoms: C_21  and  C_22 
REMARK   19  A    between atoms: C_22  and  C_23 
REMARK   20  A    between atoms: C_22  and  O_35 
REMARK   21  A    between atoms: C_23  and  O_24 
REMARK   22  A    between atoms: O_24  and  P_25 
REMARK   23  A    between atoms: P_25  and  O_27 
REMARK   24  A    between atoms: P_25  and  O_28 
REMARK   25  A    between atoms: O_28  and  C_29 
REMARK   26  A    between atoms: C_29  and  C_30 
REMARK   27  A    between atoms: C_30  and  N_31 
REMARK   28  A    between atoms: O_35  and  C_36 
REMARK   29  A    between atoms: C_36  and  C_38 
REMARK   30  A    between atoms: C_38  and  C_39 
REMARK   31  A    between atoms: C_39  and  C_40 
REMARK   32  A    between atoms: C_40  and  C_41 
REMARK   33  A    between atoms: C_41  and  C_42 
REMARK   34  A    between atoms: C_42  and  C_43 
REMARK   35  A    between atoms: C_43  and  C_44 
REMARK   36  A    between atoms: C_44  and  C_45 
REMARK   37  A    between atoms: C_46  and  C_47 
REMARK   38  A    between atoms: C_47  and  C_48 
REMARK   39  A    between atoms: C_48  and  C_49 
REMARK   40  A    between atoms: C_49  and  C_50 
REMARK   41  A    between atoms: C_50  and  C_51 
REMARK   42  A    between atoms: C_51  and  C_52 
REMARK   43  A    between atoms: C_52  and  C_53 
ROOT
HETATM    1  C   UNK N   1      20.032  16.748   3.258  0.00  0.00     0.180 C 
ENDROOT
BRANCH   1   2
HETATM    2  C   UNK N   1      19.910  18.247   3.015  0.00  0.00     0.213 C 
BRANCH   2   3
HETATM    3  O   UNK N   1      20.715  18.891   3.922  0.00  0.00    -0.319 OA
BRANCH   3   4
HETATM    4  C   UNK N   1      21.822  19.574   3.535  0.00  0.00     0.258 C 
HETATM    5  O   UNK N   1      21.700  20.632   2.947  0.00  0.00    -0.265 OA
BRANCH   4   6
HETATM    6  C   UNK N   1      23.206  19.036   3.801  0.00  0.00     0.111 C 
BRANCH   6   7
HETATM    7  C   UNK N   1      24.287  20.065   3.447  0.00  0.00     0.010 C 
BRANCH   7   8
HETATM    8  C   UNK N   1      25.698  19.476   3.487  0.00  0.00     0.000 C 
BRANCH   8   9
HETATM    9  C   UNK N   1      26.717  20.547   3.845  0.00  0.00     0.000 C 
BRANCH   9  10
HETATM   10  C   UNK N   1      27.952  19.927   4.451  0.00  0.00     0.000 C 
BRANCH  10  11
HETATM   11  C   UNK N   1      27.786  18.420   4.474  0.00  0.00     0.004 C 
BRANCH  11  12
HETATM   12  C   UNK N   1      28.800  17.803   5.419  0.00  0.00     0.027 C 
BRANCH  12  13
HETATM   13  C   UNK N   1      28.130  17.026   6.514  0.00  0.00    -0.031 C 
HETATM   14  C   UNK N   1      28.312  17.316   7.806  0.00  0.00    -0.031 C 
BRANCH  14  15
HETATM   15  C   UNK N   1      29.211  18.430   8.254  0.00  0.00     0.027 C 
BRANCH  15  16
HETATM   16  C   UNK N   1      30.382  17.893   9.063  0.00  0.00     0.004 C 
BRANCH  16  17
HETATM   17  C   UNK N   1      31.680  18.051   8.293  0.00  0.00     0.000 C 
BRANCH  17  18
HETATM   18  C   UNK N   1      32.260  16.698   7.969  0.00  0.00     0.000 C 
BRANCH  18  19
HETATM   19  C   UNK N   1      31.876  16.312   6.558  0.00  0.00     0.000 C 
BRANCH  19  20
HETATM   20  C   UNK N   1      32.933  16.840   5.616  0.00  0.00    -0.000 C 
BRANCH  20  21
HETATM   21  C   UNK N   1      32.290  17.636   4.504  0.00  0.00    -0.005 C 
HETATM   22  C   UNK N   1      32.610  16.976   3.180  0.00  0.00     0.005 C 
ENDBRANCH  20  21
ENDBRANCH  19  20
ENDBRANCH  18  19
ENDBRANCH  17  18
ENDBRANCH  16  17
ENDBRANCH  15  16
ENDBRANCH  14  15
ENDBRANCH  12  13
ENDBRANCH  11  12
ENDBRANCH  10  11
ENDBRANCH   9  10
ENDBRANCH   8   9
ENDBRANCH   7   8
ENDBRANCH   6   7
ENDBRANCH   4   6
ENDBRANCH   3   4
ENDBRANCH   2   3
ENDBRANCH   1   2
BRANCH   1  23
HETATM   23  C   UNK N   1      19.858  16.312   4.705  0.00  0.00     0.215 C 
BRANCH  23  24
HETATM   24  O   UNK N   1      20.992  15.654   5.183  0.00  0.00    -0.294 OA
BRANCH  24  25
HETATM   25  P   UNK N   1      20.374  14.417   6.229  0.00  0.00     0.393 P 
HETATM   26  O   UNK N   1      20.823  13.648   4.956  0.00  0.00    -0.631 OA
BRANCH  25  27
HETATM   27  O   UNK N   1      21.717  15.260   6.947  0.00  0.00    -0.307 OA
HETATM   28  H   UNK N   1      22.563  15.390   7.403  0.00  0.00     0.222 HD
ENDBRANCH  25  27
BRANCH  25  29
HETATM   29  O   UNK N   1      21.442  13.192   6.870  0.00  0.00    -0.295 OA
BRANCH  29  30
HETATM   30  C   UNK N   1      22.008  13.737   8.030  0.00  0.00     0.208 C 
BRANCH  30  31
HETATM   31  C   UNK N   1      21.881  12.785   9.219  0.00  0.00     0.262 C 
BRANCH  31  32
HETATM   32  N   UNK N   1      23.170  12.189   9.579  0.00  0.00    -0.077 N 
HETATM   33  C   UNK N   1      24.211  13.205   9.622  0.00  0.00     0.271 C 
HETATM   34  C   UNK N   1      23.055  11.602  10.900  0.00  0.00     0.271 C 
HETATM   35  C   UNK N   1      23.555  11.137   8.647  0.00  0.00     0.271 C 
ENDBRANCH  31  32
ENDBRANCH  30  31
ENDBRANCH  29  30
ENDBRANCH  25  29
ENDBRANCH  24  25
ENDBRANCH  23  24
ENDBRANCH   1  23
BRANCH   1  36
HETATM   36  O   UNK N   1      21.135  16.194   2.638  0.00  0.00    -0.312 OA
BRANCH  36  37
HETATM   37  C   UNK N   1      21.110  15.428   1.516  0.00  0.00     0.259 C 
HETATM   38  O   UNK N   1      20.792  15.898   0.433  0.00  0.00    -0.265 OA
BRANCH  37  39
HETATM   39  C   UNK N   1      21.496  13.992   1.613  0.00  0.00     0.111 C 
BRANCH  39  40
HETATM   40  C   UNK N   1      22.402  13.622   0.444  0.00  0.00     0.010 C 
BRANCH  40  41
HETATM   41  C   UNK N   1      23.067  12.270   0.656  0.00  0.00     0.000 C 
BRANCH  41  42
HETATM   42  C   UNK N   1      24.513  12.412   1.097  0.00  0.00     0.000 C 
BRANCH  42  43
HETATM   43  C   UNK N   1      24.641  11.938   2.531  0.00  0.00     0.000 C 
BRANCH  43  44
HETATM   44  C   UNK N   1      26.084  11.586   2.826  0.00  0.00     0.004 C 
BRANCH  44  45
HETATM   45  C   UNK N   1      26.304  11.518   4.327  0.00  0.00     0.027 C 
BRANCH  45  46
HETATM   46  C   UNK N   1      27.214  12.630   4.756  0.00  0.00    -0.031 C 
HETATM   47  C   UNK N   1      26.816  13.640   5.538  0.00  0.00    -0.031 C 
BRANCH  47  48
HETATM   48  C   UNK N   1      25.434  13.723   6.102  0.00  0.00     0.027 C 
BRANCH  48  49
HETATM   49  C   UNK N   1      25.046  15.164   6.382  0.00  0.00     0.004 C 
BRANCH  49  50
HETATM   50  C   UNK N   1      24.995  15.978   5.103  0.00  0.00     0.000 C 
BRANCH  50  51
HETATM   51  C   UNK N   1      24.188  15.258   4.041  0.00  0.00     0.000 C 
BRANCH  51  52
HETATM   52  C   UNK N   1      24.694  15.626   2.663  0.00  0.00     0.000 C 
BRANCH  52  53
HETATM   53  C   UNK N   1      26.157  15.996   2.765  0.00  0.00    -0.000 C 
BRANCH  53  54
HETATM   54  C   UNK N   1      26.988  15.039   1.939  0.00  0.00    -0.005 C 
HETATM   55  C   UNK N   1      28.447  15.200   2.309  0.00  0.00     0.005 C 
ENDBRANCH  53  54
ENDBRANCH  52  53
ENDBRANCH  51  52
ENDBRANCH  50  51
ENDBRANCH  49  50
ENDBRANCH  48  49
ENDBRANCH  47  48
ENDBRANCH  45  46
ENDBRANCH  44  45
ENDBRANCH  43  44
ENDBRANCH  42  43
ENDBRANCH  41  42
ENDBRANCH  40  41
ENDBRANCH  39  40
ENDBRANCH  37  39
ENDBRANCH  36  37
ENDBRANCH   1  36
TORSDOF 43
ENDMDL
MODEL 6
REMARK VINA RESULT:      -5.1      7.526     11.235
REMARK WARNING: 32 MAX_TORS EXCEEDED!!!
REMARK  43 active torsions:
REMARK  status: ('A' for Active; 'I' for Inactive)
REMARK    1  A    between atoms: C_2  and  C_3 
REMARK    2  A    between atoms: C_3  and  C_4 
REMARK    3  A    between atoms: C_4  and  C_5 
REMARK    4  A    between atoms: C_5  and  C_6 
REMARK    5  A    between atoms: C_6  and  C_7 
REMARK    6  A    between atoms: C_7  and  C_8 
REMARK    7  A    between atoms: C_8  and  C_9 
REMARK    8  A    between atoms: C_10  and  C_11 
REMARK    9  A    between atoms: C_11  and  C_12 
REMARK   10  A    between atoms: C_12  and  C_13 
REMARK   11  A    between atoms: C_13  and  C_14 
REMARK   12  A    between atoms: C_14  and  C_15 
REMARK   13  A    between atoms: C_15  and  C_16 
REMARK   14  A    between atoms: C_16  and  C_17 
REMARK   15  A    between atoms: C_17  and  C_18 
REMARK   16  A    between atoms: C_18  and  O_20 
REMARK   17  A    between atoms: O_20  and  C_21 
REMARK   18  A    between atoms: C_21  and  C_22 
REMARK   19  A    between atoms: C_22  and  C_23 
REMARK   20  A    between atoms: C_22  and  O_35 
REMARK   21  A    between atoms: C_23  and  O_24 
REMARK   22  A    between atoms: O_24  and  P_25 
REMARK   23  A    between atoms: P_25  and  O_27 
REMARK   24  A    between atoms: P_25  and  O_28 
REMARK   25  A    between atoms: O_28  and  C_29 
REMARK   26  A    between atoms: C_29  and  C_30 
REMARK   27  A    between atoms: C_30  and  N_31 
REMARK   28  A    between atoms: O_35  and  C_36 
REMARK   29  A    between atoms: C_36  and  C_38 
REMARK   30  A    between atoms: C_38  and  C_39 
REMARK   31  A    between atoms: C_39  and  C_40 
REMARK   32  A    between atoms: C_40  and  C_41 
REMARK   33  A    between atoms: C_41  and  C_42 
REMARK   34  A    between atoms: C_42  and  C_43 
REMARK   35  A    between atoms: C_43  and  C_44 
REMARK   36  A    between atoms: C_44  and  C_45 
REMARK   37  A    between atoms: C_46  and  C_47 
REMARK   38  A    between atoms: C_47  and  C_48 
REMARK   39  A    between atoms: C_48  and  C_49 
REMARK   40  A    between atoms: C_49  and  C_50 
REMARK   41  A    between atoms: C_50  and  C_51 
REMARK   42  A    between atoms: C_51  and  C_52 
REMARK   43  A    between atoms: C_52  and  C_53 
ROOT
HETATM    1  C   UNK N   1      34.681  15.249  10.310  0.00  0.00     0.180 C 
ENDROOT
BRANCH   1   2
HETATM    2  C   UNK N   1      35.346  16.568   9.936  0.00  0.00     0.213 C 
BRANCH   2   3
HETATM    3  O   UNK N   1      34.355  17.487   9.690  0.00  0.00    -0.319 OA
BRANCH   3   4
HETATM    4  C   UNK N   1      34.278  18.153   8.510  0.00  0.00     0.258 C 
HETATM    5  O   UNK N   1      35.099  19.012   8.249  0.00  0.00    -0.265 OA
BRANCH   4   6
HETATM    6  C   UNK N   1      33.176  17.864   7.520  0.00  0.00     0.111 C 
BRANCH   6   7
HETATM    7  C   UNK N   1      31.987  17.166   8.191  0.00  0.00     0.010 C 
BRANCH   7   8
HETATM    8  C   UNK N   1      30.920  18.150   8.674  0.00  0.00     0.000 C 
BRANCH   8   9
HETATM    9  C   UNK N   1      29.804  17.418   9.401  0.00  0.00     0.000 C 
BRANCH   9  10
HETATM   10  C   UNK N   1      28.454  17.866   8.896  0.00  0.00     0.000 C 
BRANCH  10  11
HETATM   11  C   UNK N   1      28.647  19.031   7.944  0.00  0.00     0.004 C 
BRANCH  11  12
HETATM   12  C   UNK N   1      27.455  19.137   7.010  0.00  0.00     0.027 C 
BRANCH  12  13
HETATM   13  C   UNK N   1      27.099  20.568   6.733  0.00  0.00    -0.031 C 
HETATM   14  C   UNK N   1      27.124  21.081   5.498  0.00  0.00    -0.031 C 
BRANCH  14  15
HETATM   15  C   UNK N   1      27.524  20.265   4.304  0.00  0.00     0.027 C 
BRANCH  15  16
HETATM   16  C   UNK N   1      26.316  19.936   3.440  0.00  0.00     0.004 C 
BRANCH  16  17
HETATM   17  C   UNK N   1      25.953  18.468   3.568  0.00  0.00     0.000 C 
BRANCH  17  18
HETATM   18  C   UNK N   1      24.779  18.302   4.498  0.00  0.00     0.000 C 
BRANCH  18  19
HETATM   19  C   UNK N   1      24.058  17.014   4.173  0.00  0.00     0.000 C 
BRANCH  19  20
HETATM   20  C   UNK N   1      25.025  16.093   3.467  0.00  0.00    -0.000 C 
BRANCH  20  21
HETATM   21  C   UNK N   1      24.861  14.677   3.972  0.00  0.00    -0.005 C 
HETATM   22  C   UNK N   1      24.607  14.715   5.463  0.00  0.00     0.005 C 
ENDBRANCH  20  21
ENDBRANCH  19  20
ENDBRANCH  18  19
ENDBRANCH  17  18
ENDBRANCH  16  17
ENDBRANCH  15  16
ENDBRANCH  14  15
ENDBRANCH  12  13
ENDBRANCH  11  12
ENDBRANCH  10  11
ENDBRANCH   9  10
ENDBRANCH   8   9
ENDBRANCH   7   8
ENDBRANCH   6   7
ENDBRANCH   4   6
ENDBRANCH   3   4
ENDBRANCH   2   3
ENDBRANCH   1   2
BRANCH   1  23
HETATM   23  C   UNK N   1      35.055  14.702  11.680  0.00  0.00     0.215 C 
BRANCH  23  24
HETATM   24  O   UNK N   1      35.822  13.542  11.577  0.00  0.00    -0.294 OA
BRANCH  24  25
HETATM   25  P   UNK N   1      35.935  12.944  13.201  0.00  0.00     0.393 P 
HETATM   26  O   UNK N   1      35.807  14.483  13.371  0.00  0.00    -0.631 OA
BRANCH  25  27
HETATM   27  O   UNK N   1      34.549  12.297  12.368  0.00  0.00    -0.307 OA
HETATM   28  H   UNK N   1      33.813  12.253  11.738  0.00  0.00     0.222 HD
ENDBRANCH  25  27
BRANCH  25  29
HETATM   29  O   UNK N   1      34.581  13.105  14.293  0.00  0.00    -0.295 OA
BRANCH  29  30
HETATM   30  C   UNK N   1      34.553  11.928  15.055  0.00  0.00     0.208 C 
BRANCH  30  31
HETATM   31  C   UNK N   1      35.301  12.096  16.377  0.00  0.00     0.262 C 
BRANCH  31  32
HETATM   32  N   UNK N   1      35.552  10.807  17.028  0.00  0.00    -0.077 N 
HETATM   33  C   UNK N   1      34.463   9.878  16.763  0.00  0.00     0.271 C 
HETATM   34  C   UNK N   1      36.772  10.244  16.483  0.00  0.00     0.271 C 
HETATM   35  C   UNK N   1      35.724  10.956  18.467  0.00  0.00     0.271 C 
ENDBRANCH  31  32
ENDBRANCH  30  31
ENDBRANCH  29  30
ENDBRANCH  25  29
ENDBRANCH  24  25
ENDBRANCH  23  24
ENDBRANCH   1  23
BRANCH   1  36
HETATM   36  O   UNK N   1      34.746  14.311   9.299  0.00  0.00    -0.312 OA
BRANCH  36  37
HETATM   37  C   UNK N   1      33.774  13.414   8.988  0.00  0.00     0.259 C 
HETATM   38  O   UNK N   1      33.796  12.275   9.432  0.00  0.00    -0.265 OA
BRANCH  37  39
HETATM   39  C   UNK N   1      32.653  13.841   8.103  0.00  0.00     0.111 C 
BRANCH  39  40
HETATM   40  C   UNK N   1      32.940  13.416   6.667  0.00  0.00     0.010 C 
BRANCH  40  41
HETATM   41  C   UNK N   1      32.734  14.565   5.691  0.00  0.00     0.000 C 
BRANCH  41  42
HETATM   42  C   UNK N   1      33.998  14.875   4.907  0.00  0.00     0.000 C 
BRANCH  42  43
HETATM   43  C   UNK N   1      33.629  15.667   3.668  0.00  0.00     0.000 C 
BRANCH  43  44
HETATM   44  C   UNK N   1      32.194  15.378   3.284  0.00  0.00     0.004 C 
BRANCH  44  45
HETATM   45  C   UNK N   1      31.476  16.674   2.951  0.00  0.00     0.027 C 
BRANCH  45  46
HETATM   46  C   UNK N   1      31.493  17.583   4.144  0.00  0.00    -0.031 C 
HETATM   47  C   UNK N   1      30.449  17.724   4.970  0.00  0.00    -0.031 C 
BRANCH  47  48
HETATM   48  C   UNK N   1      29.184  16.943   4.807  0.00  0.00     0.027 C 
BRANCH  48  49
HETATM   49  C   UNK N   1      29.144  15.768   5.768  0.00  0.00     0.004 C 
BRANCH  49  50
HETATM   50  C   UNK N   1      28.322  14.624   5.203  0.00  0.00     0.000 C 
BRANCH  50  51
HETATM   51  C   UNK N   1      29.063  13.941   4.070  0.00  0.00     0.000 C 
BRANCH  51  52
HETATM   52  C   UNK N   1      28.407  14.271   2.746  0.00  0.00     0.000 C 
BRANCH  52  53
HETATM   53  C   UNK N   1      27.737  13.025   2.211  0.00  0.00    -0.000 C 
BRANCH  53  54
HETATM   54  C   UNK N   1      28.782  12.068   1.679  0.00  0.00    -0.005 C 
HETATM   55  C   UNK N   1      28.125  11.096   0.723  0.00  0.00     0.005 C 
ENDBRANCH  53  54
ENDBRANCH  52  53
ENDBRANCH  51  52
ENDBRANCH  50  51
ENDBRANCH  49  50
ENDBRANCH  48  49
ENDBRANCH  47  48
ENDBRANCH  45  46
ENDBRANCH  44  45
ENDBRANCH  43  44
ENDBRANCH  42  43
ENDBRANCH  41  42
ENDBRANCH  40  41
ENDBRANCH  39  40
ENDBRANCH  37  39
ENDBRANCH  36  37
ENDBRANCH   1  36
TORSDOF 43
ENDMDL
MODEL 7
REMARK VINA RESULT:      -5.0      3.096      7.990
REMARK WARNING: 32 MAX_TORS EXCEEDED!!!
REMARK  43 active torsions:
REMARK  status: ('A' for Active; 'I' for Inactive)
REMARK    1  A    between atoms: C_2  and  C_3 
REMARK    2  A    between atoms: C_3  and  C_4 
REMARK    3  A    between atoms: C_4  and  C_5 
REMARK    4  A    between atoms: C_5  and  C_6 
REMARK    5  A    between atoms: C_6  and  C_7 
REMARK    6  A    between atoms: C_7  and  C_8 
REMARK    7  A    between atoms: C_8  and  C_9 
REMARK    8  A    between atoms: C_10  and  C_11 
REMARK    9  A    between atoms: C_11  and  C_12 
REMARK   10  A    between atoms: C_12  and  C_13 
REMARK   11  A    between atoms: C_13  and  C_14 
REMARK   12  A    between atoms: C_14  and  C_15 
REMARK   13  A    between atoms: C_15  and  C_16 
REMARK   14  A    between atoms: C_16  and  C_17 
REMARK   15  A    between atoms: C_17  and  C_18 
REMARK   16  A    between atoms: C_18  and  O_20 
REMARK   17  A    between atoms: O_20  and  C_21 
REMARK   18  A    between atoms: C_21  and  C_22 
REMARK   19  A    between atoms: C_22  and  C_23 
REMARK   20  A    between atoms: C_22  and  O_35 
REMARK   21  A    between atoms: C_23  and  O_24 
REMARK   22  A    between atoms: O_24  and  P_25 
REMARK   23  A    between atoms: P_25  and  O_27 
REMARK   24  A    between atoms: P_25  and  O_28 
REMARK   25  A    between atoms: O_28  and  C_29 
REMARK   26  A    between atoms: C_29  and  C_30 
REMARK   27  A    between atoms: C_30  and  N_31 
REMARK   28  A    between atoms: O_35  and  C_36 
REMARK   29  A    between atoms: C_36  and  C_38 
REMARK   30  A    between atoms: C_38  and  C_39 
REMARK   31  A    between atoms: C_39  and  C_40 
REMARK   32  A    between atoms: C_40  and  C_41 
REMARK   33  A    between atoms: C_41  and  C_42 
REMARK   34  A    between atoms: C_42  and  C_43 
REMARK   35  A    between atoms: C_43  and  C_44 
REMARK   36  A    between atoms: C_44  and  C_45 
REMARK   37  A    between atoms: C_46  and  C_47 
REMARK   38  A    between atoms: C_47  and  C_48 
REMARK   39  A    between atoms: C_48  and  C_49 
REMARK   40  A    between atoms: C_49  and  C_50 
REMARK   41  A    between atoms: C_50  and  C_51 
REMARK   42  A    between atoms: C_51  and  C_52 
REMARK   43  A    between atoms: C_52  and  C_53 
ROOT
HETATM    1  C   UNK N   1      24.308  19.422   4.050  0.00  0.00     0.180 C 
ENDROOT
BRANCH   1   2
HETATM    2  C   UNK N   1      23.909  20.282   2.856  0.00  0.00     0.213 C 
BRANCH   2   3
HETATM    3  O   UNK N   1      22.636  20.747   3.076  0.00  0.00    -0.319 OA
BRANCH   3   4
HETATM    4  C   UNK N   1      21.588  20.345   2.313  0.00  0.00     0.258 C 
HETATM    5  O   UNK N   1      21.581  20.594   1.123  0.00  0.00    -0.265 OA
BRANCH   4   6
HETATM    6  C   UNK N   1      20.416  19.611   2.918  0.00  0.00     0.111 C 
BRANCH   6   7
HETATM    7  C   UNK N   1      20.350  18.159   2.430  0.00  0.00     0.010 C 
BRANCH   7   8
HETATM    8  C   UNK N   1      19.697  17.223   3.448  0.00  0.00     0.000 C 
BRANCH   8   9
HETATM    9  C   UNK N   1      20.059  15.775   3.156  0.00  0.00     0.000 C 
BRANCH   9  10
HETATM   10  C   UNK N   1      21.209  15.699   2.183  0.00  0.00     0.000 C 
BRANCH  10  11
HETATM   11  C   UNK N   1      20.734  15.023   0.911  0.00  0.00     0.004 C 
BRANCH  11  12
HETATM   12  C   UNK N   1      21.245  13.595   0.863  0.00  0.00     0.027 C 
BRANCH  12  13
HETATM   13  C   UNK N   1      20.127  12.618   0.643  0.00  0.00    -0.031 C 
HETATM   14  C   UNK N   1      20.314  11.296   0.713  0.00  0.00    -0.031 C 
BRANCH  14  15
HETATM   15  C   UNK N   1      21.658  10.695   1.003  0.00  0.00     0.027 C 
BRANCH  15  16
HETATM   16  C   UNK N   1      22.255  10.069  -0.248  0.00  0.00     0.004 C 
BRANCH  16  17
HETATM   17  C   UNK N   1      23.769  10.180  -0.229  0.00  0.00     0.000 C 
BRANCH  17  18
HETATM   18  C   UNK N   1      24.184  11.530   0.298  0.00  0.00     0.000 C 
BRANCH  18  19
HETATM   19  C   UNK N   1      25.307  11.355   1.296  0.00  0.00     0.000 C 
BRANCH  19  20
HETATM   20  C   UNK N   1      25.807  12.725   1.693  0.00  0.00    -0.000 C 
BRANCH  20  21
HETATM   21  C   UNK N   1      24.641  13.650   1.955  0.00  0.00    -0.005 C 
HETATM   22  C   UNK N   1      25.159  15.066   2.089  0.00  0.00     0.005 C 
ENDBRANCH  20  21
ENDBRANCH  19  20
ENDBRANCH  18  19
ENDBRANCH  17  18
ENDBRANCH  16  17
ENDBRANCH  15  16
ENDBRANCH  14  15
ENDBRANCH  12  13
ENDBRANCH  11  12
ENDBRANCH  10  11
ENDBRANCH   9  10
ENDBRANCH   8   9
ENDBRANCH   7   8
ENDBRANCH   6   7
ENDBRANCH   4   6
ENDBRANCH   3   4
ENDBRANCH   2   3
ENDBRANCH   1   2
BRANCH   1  23
HETATM   23  C   UNK N   1      25.806  19.249   4.251  0.00  0.00     0.215 C 
BRANCH  23  24
HETATM   24  O   UNK N   1      26.214  19.718   5.499  0.00  0.00    -0.294 OA
BRANCH  24  25
HETATM   25  P   UNK N   1      27.864  19.203   5.644  0.00  0.00     0.393 P 
HETATM   26  O   UNK N   1      27.796  20.505   6.490  0.00  0.00    -0.631 OA
BRANCH  25  27
HETATM   27  O   UNK N   1      26.757  18.009   6.260  0.00  0.00    -0.307 OA
HETATM   28  H   UNK N   1      26.074  17.320   6.252  0.00  0.00     0.222 HD
ENDBRANCH  25  27
BRANCH  25  29
HETATM   29  O   UNK N   1      28.494  18.696   7.193  0.00  0.00    -0.295 OA
BRANCH  29  30
HETATM   30  C   UNK N   1      29.311  17.587   6.936  0.00  0.00     0.208 C 
BRANCH  30  31
HETATM   31  C   UNK N   1      30.135  17.198   8.164  0.00  0.00     0.262 C 
BRANCH  31  32
HETATM   32  N   UNK N   1      31.526  16.900   7.815  0.00  0.00    -0.077 N 
HETATM   33  C   UNK N   1      31.685  16.812   6.371  0.00  0.00     0.271 C 
HETATM   34  C   UNK N   1      32.365  17.979   8.299  0.00  0.00     0.271 C 
HETATM   35  C   UNK N   1      31.981  15.660   8.430  0.00  0.00     0.271 C 
ENDBRANCH  31  32
ENDBRANCH  30  31
ENDBRANCH  29  30
ENDBRANCH  25  29
ENDBRANCH  24  25
ENDBRANCH  23  24
ENDBRANCH   1  23
BRANCH   1  36
HETATM   36  O   UNK N   1      23.596  18.241   4.119  0.00  0.00    -0.312 OA
BRANCH  36  37
HETATM   37  C   UNK N   1      22.860  17.822   5.181  0.00  0.00     0.259 C 
HETATM   38  O   UNK N   1      22.238  18.615   5.874  0.00  0.00    -0.265 OA
BRANCH  37  39
HETATM   39  C   UNK N   1      22.799  16.366   5.490  0.00  0.00     0.111 C 
BRANCH  39  40
HETATM   40  C   UNK N   1      24.204  15.774   5.464  0.00  0.00     0.010 C 
BRANCH  40  41
HETATM   41  C   UNK N   1      24.609  15.231   6.826  0.00  0.00     0.000 C 
BRANCH  41  42
HETATM   42  C   UNK N   1      24.935  13.749   6.772  0.00  0.00     0.000 C 
BRANCH  42  43
HETATM   43  C   UNK N   1      25.785  13.473   5.548  0.00  0.00     0.000 C 
BRANCH  43  44
HETATM   44  C   UNK N   1      25.662  12.016   5.158  0.00  0.00     0.004 C 
BRANCH  44  45
HETATM   45  C   UNK N   1      24.361  11.445   5.693  0.00  0.00     0.027 C 
BRANCH  45  46
HETATM   46  C   UNK N   1      23.522  10.945   4.554  0.00  0.00    -0.031 C 
HETATM   47  C   UNK N   1      22.447  11.599   4.096  0.00  0.00    -0.031 C 
BRANCH  47  48
HETATM   48  C   UNK N   1      22.017  12.921   4.647  0.00  0.00     0.027 C 
BRANCH  48  49
HETATM   49  C   UNK N   1      20.789  12.769   5.527  0.00  0.00     0.004 C 
BRANCH  49  50
HETATM   50  C   UNK N   1      21.174  12.644   6.990  0.00  0.00     0.000 C 
BRANCH  50  51
HETATM   51  C   UNK N   1      21.118  13.995   7.675  0.00  0.00     0.000 C 
BRANCH  51  52
HETATM   52  C   UNK N   1      20.841  13.818   9.153  0.00  0.00     0.000 C 
BRANCH  52  53
HETATM   53  C   UNK N   1      21.673  12.665   9.669  0.00  0.00    -0.000 C 
BRANCH  53  54
HETATM   54  C   UNK N   1      23.074  13.142   9.983  0.00  0.00    -0.005 C 
HETATM   55  C   UNK N   1      24.030  11.972   9.887  0.00  0.00     0.005 C 
ENDBRANCH  53  54
ENDBRANCH  52  53
ENDBRANCH  51  52
ENDBRANCH  50  51
ENDBRANCH  49  50
ENDBRANCH  48  49
ENDBRANCH  47  48
ENDBRANCH  45  46
ENDBRANCH  44  45
ENDBRANCH  43  44
ENDBRANCH  42  43
ENDBRANCH  41  42
ENDBRANCH  40  41
ENDBRANCH  39  40
ENDBRANCH  37  39
ENDBRANCH  36  37
ENDBRANCH   1  36
TORSDOF 43
ENDMDL
MODEL 8
REMARK VINA RESULT:      -5.0      3.076      7.582
REMARK WARNING: 32 MAX_TORS EXCEEDED!!!
REMARK  43 active torsions:
REMARK  status: ('A' for Active; 'I' for Inactive)
REMARK    1  A    between atoms: C_2  and  C_3 
REMARK    2  A    between atoms: C_3  and  C_4 
REMARK    3  A    between atoms: C_4  and  C_5 
REMARK    4  A    between atoms: C_5  and  C_6 
REMARK    5  A    between atoms: C_6  and  C_7 
REMARK    6  A    between atoms: C_7  and  C_8 
REMARK    7  A    between atoms: C_8  and  C_9 
REMARK    8  A    between atoms: C_10  and  C_11 
REMARK    9  A    between atoms: C_11  and  C_12 
REMARK   10  A    between atoms: C_12  and  C_13 
REMARK   11  A    between atoms: C_13  and  C_14 
REMARK   12  A    between atoms: C_14  and  C_15 
REMARK   13  A    between atoms: C_15  and  C_16 
REMARK   14  A    between atoms: C_16  and  C_17 
REMARK   15  A    between atoms: C_17  and  C_18 
REMARK   16  A    between atoms: C_18  and  O_20 
REMARK   17  A    between atoms: O_20  and  C_21 
REMARK   18  A    between atoms: C_21  and  C_22 
REMARK   19  A    between atoms: C_22  and  C_23 
REMARK   20  A    between atoms: C_22  and  O_35 
REMARK   21  A    between atoms: C_23  and  O_24 
REMARK   22  A    between atoms: O_24  and  P_25 
REMARK   23  A    between atoms: P_25  and  O_27 
REMARK   24  A    between atoms: P_25  and  O_28 
REMARK   25  A    between atoms: O_28  and  C_29 
REMARK   26  A    between atoms: C_29  and  C_30 
REMARK   27  A    between atoms: C_30  and  N_31 
REMARK   28  A    between atoms: O_35  and  C_36 
REMARK   29  A    between atoms: C_36  and  C_38 
REMARK   30  A    between atoms: C_38  and  C_39 
REMARK   31  A    between atoms: C_39  and  C_40 
REMARK   32  A    between atoms: C_40  and  C_41 
REMARK   33  A    between atoms: C_41  and  C_42 
REMARK   34  A    between atoms: C_42  and  C_43 
REMARK   35  A    between atoms: C_43  and  C_44 
REMARK   36  A    between atoms: C_44  and  C_45 
REMARK   37  A    between atoms: C_46  and  C_47 
REMARK   38  A    between atoms: C_47  and  C_48 
REMARK   39  A    between atoms: C_48  and  C_49 
REMARK   40  A    between atoms: C_49  and  C_50 
REMARK   41  A    between atoms: C_50  and  C_51 
REMARK   42  A    between atoms: C_51  and  C_52 
REMARK   43  A    between atoms: C_52  and  C_53 
ROOT
HETATM    1  C   UNK N   1      24.245  19.442   3.951  0.00  0.00     0.180 C 
ENDROOT
BRANCH   1   2
HETATM    2  C   UNK N   1      23.811  20.241   2.727  0.00  0.00     0.213 C 
BRANCH   2   3
HETATM    3  O   UNK N   1      22.686  20.954   3.065  0.00  0.00    -0.319 OA
BRANCH   3   4
HETATM    4  C   UNK N   1      21.485  20.709   2.483  0.00  0.00     0.258 C 
HETATM    5  O   UNK N   1      21.353  20.871   1.285  0.00  0.00    -0.265 OA
BRANCH   4   6
HETATM    6  C   UNK N   1      20.298  20.257   3.299  0.00  0.00     0.111 C 
BRANCH   6   7
HETATM    7  C   UNK N   1      19.610  19.043   2.665  0.00  0.00     0.010 C 
BRANCH   7   8
HETATM    8  C   UNK N   1      20.595  17.935   2.289  0.00  0.00     0.000 C 
BRANCH   8   9
HETATM    9  C   UNK N   1      20.192  16.617   2.930  0.00  0.00     0.000 C 
BRANCH   9  10
HETATM   10  C   UNK N   1      20.029  15.542   1.884  0.00  0.00     0.000 C 
BRANCH  10  11
HETATM   11  C   UNK N   1      19.542  14.272   2.553  0.00  0.00     0.004 C 
BRANCH  11  12
HETATM   12  C   UNK N   1      19.940  13.066   1.723  0.00  0.00     0.027 C 
BRANCH  12  13
HETATM   13  C   UNK N   1      21.134  12.366   2.307  0.00  0.00    -0.031 C 
HETATM   14  C   UNK N   1      22.355  12.481   1.775  0.00  0.00    -0.031 C 
BRANCH  14  15
HETATM   15  C   UNK N   1      22.617  13.305   0.550  0.00  0.00     0.027 C 
BRANCH  15  16
HETATM   16  C   UNK N   1      23.691  14.350   0.815  0.00  0.00     0.004 C 
BRANCH  16  17
HETATM   17  C   UNK N   1      23.535  14.934   2.208  0.00  0.00     0.000 C 
BRANCH  17  18
HETATM   18  C   UNK N   1      24.889  15.222   2.804  0.00  0.00     0.000 C 
BRANCH  18  19
HETATM   19  C   UNK N   1      25.952  14.498   2.010  0.00  0.00     0.000 C 
BRANCH  19  20
HETATM   20  C   UNK N   1      26.501  13.377   2.862  0.00  0.00    -0.000 C 
BRANCH  20  21
HETATM   21  C   UNK N   1      27.084  12.293   1.985  0.00  0.00    -0.005 C 
HETATM   22  C   UNK N   1      25.953  11.494   1.375  0.00  0.00     0.005 C 
ENDBRANCH  20  21
ENDBRANCH  19  20
ENDBRANCH  18  19
ENDBRANCH  17  18
ENDBRANCH  16  17
ENDBRANCH  15  16
ENDBRANCH  14  15
ENDBRANCH  12  13
ENDBRANCH  11  12
ENDBRANCH  10  11
ENDBRANCH   9  10
ENDBRANCH   8   9
ENDBRANCH   7   8
ENDBRANCH   6   7
ENDBRANCH   4   6
ENDBRANCH   3   4
ENDBRANCH   2   3
ENDBRANCH   1   2
BRANCH   1  23
HETATM   23  C   UNK N   1      25.748  19.264   4.105  0.00  0.00     0.215 C 
BRANCH  23  24
HETATM   24  O   UNK N   1      26.147  19.402   5.435  0.00  0.00    -0.294 OA
BRANCH  24  25
HETATM   25  P   UNK N   1      27.872  19.220   5.398  0.00  0.00     0.393 P 
HETATM   26  O   UNK N   1      27.589  19.883   6.774  0.00  0.00    -0.631 OA
BRANCH  25  27
HETATM   27  O   UNK N   1      27.056  17.686   5.273  0.00  0.00    -0.307 OA
HETATM   28  H   UNK N   1      26.880  16.743   5.410  0.00  0.00     0.222 HD
ENDBRANCH  25  27
BRANCH  25  29
HETATM   29  O   UNK N   1      28.666  18.143   6.520  0.00  0.00    -0.295 OA
BRANCH  29  30
HETATM   30  C   UNK N   1      29.614  17.432   5.773  0.00  0.00     0.208 C 
BRANCH  30  31
HETATM   31  C   UNK N   1      30.026  16.136   6.472  0.00  0.00     0.262 C 
BRANCH  31  32
HETATM   32  N   UNK N   1      31.393  16.210   6.995  0.00  0.00    -0.077 N 
HETATM   33  C   UNK N   1      32.187  17.152   6.221  0.00  0.00     0.271 C 
HETATM   34  C   UNK N   1      31.339  16.680   8.365  0.00  0.00     0.271 C 
HETATM   35  C   UNK N   1      32.042  14.905   6.987  0.00  0.00     0.271 C 
ENDBRANCH  31  32
ENDBRANCH  30  31
ENDBRANCH  29  30
ENDBRANCH  25  29
ENDBRANCH  24  25
ENDBRANCH  23  24
ENDBRANCH   1  23
BRANCH   1  36
HETATM   36  O   UNK N   1      23.526  18.274   4.110  0.00  0.00    -0.312 OA
BRANCH  36  37
HETATM   37  C   UNK N   1      22.813  17.929   5.213  0.00  0.00     0.259 C 
HETATM   38  O   UNK N   1      22.192  18.764   5.855  0.00  0.00    -0.265 OA
BRANCH  37  39
HETATM   39  C   UNK N   1      22.777  16.499   5.632  0.00  0.00     0.111 C 
BRANCH  39  40
HETATM   40  C   UNK N   1      21.573  16.256   6.535  0.00  0.00     0.010 C 
BRANCH  40  41
HETATM   41  C   UNK N   1      20.873  14.949   6.198  0.00  0.00     0.000 C 
BRANCH  41  42
HETATM   42  C   UNK N   1      20.923  13.964   7.353  0.00  0.00     0.000 C 
BRANCH  42  43
HETATM   43  C   UNK N   1      20.952  14.734   8.658  0.00  0.00     0.000 C 
BRANCH  43  44
HETATM   44  C   UNK N   1      21.362  13.813   9.787  0.00  0.00     0.004 C 
BRANCH  44  45
HETATM   45  C   UNK N   1      21.937  12.526   9.222  0.00  0.00     0.027 C 
BRANCH  45  46
HETATM   46  C   UNK N   1      23.166  12.140   9.990  0.00  0.00    -0.031 C 
HETATM   47  C   UNK N   1      24.396  12.552   9.655  0.00  0.00    -0.031 C 
BRANCH  47  48
HETATM   48  C   UNK N   1      24.648  13.482   8.512  0.00  0.00     0.027 C 
BRANCH  48  49
HETATM   49  C   UNK N   1      24.952  12.710   7.240  0.00  0.00     0.004 C 
BRANCH  49  50
HETATM   50  C   UNK N   1      24.462  13.457   6.014  0.00  0.00     0.000 C 
BRANCH  50  51
HETATM   51  C   UNK N   1      23.588  12.563   5.156  0.00  0.00     0.000 C 
BRANCH  51  52
HETATM   52  C   UNK N   1      23.135  11.358   5.952  0.00  0.00     0.000 C 
BRANCH  52  53
HETATM   53  C   UNK N   1      23.188  10.138   5.060  0.00  0.00    -0.000 C 
BRANCH  53  54
HETATM   54  C   UNK N   1      23.130   8.882   5.903  0.00  0.00    -0.005 C 
HETATM   55  C   UNK N   1      23.716   9.173   7.268  0.00  0.00     0.005 C 
ENDBRANCH  53  54
ENDBRANCH  52  53
ENDBRANCH  51  52
ENDBRANCH  50  51
ENDBRANCH  49  50
ENDBRANCH  48  49
ENDBRANCH  47  48
ENDBRANCH  45  46
ENDBRANCH  44  45
ENDBRANCH  43  44
ENDBRANCH  42  43
ENDBRANCH  41  42
ENDBRANCH  40  41
ENDBRANCH  39  40
ENDBRANCH  37  39
ENDBRANCH  36  37
ENDBRANCH   1  36
TORSDOF 43
ENDMDL
MODEL 9
REMARK VINA RESULT:      -5.0      6.592     10.183
REMARK WARNING: 32 MAX_TORS EXCEEDED!!!
REMARK  43 active torsions:
REMARK  status: ('A' for Active; 'I' for Inactive)
REMARK    1  A    between atoms: C_2  and  C_3 
REMARK    2  A    between atoms: C_3  and  C_4 
REMARK    3  A    between atoms: C_4  and  C_5 
REMARK    4  A    between atoms: C_5  and  C_6 
REMARK    5  A    between atoms: C_6  and  C_7 
REMARK    6  A    between atoms: C_7  and  C_8 
REMARK    7  A    between atoms: C_8  and  C_9 
REMARK    8  A    between atoms: C_10  and  C_11 
REMARK    9  A    between atoms: C_11  and  C_12 
REMARK   10  A    between atoms: C_12  and  C_13 
REMARK   11  A    between atoms: C_13  and  C_14 
REMARK   12  A    between atoms: C_14  and  C_15 
REMARK   13  A    between atoms: C_15  and  C_16 
REMARK   14  A    between atoms: C_16  and  C_17 
REMARK   15  A    between atoms: C_17  and  C_18 
REMARK   16  A    between atoms: C_18  and  O_20 
REMARK   17  A    between atoms: O_20  and  C_21 
REMARK   18  A    between atoms: C_21  and  C_22 
REMARK   19  A    between atoms: C_22  and  C_23 
REMARK   20  A    between atoms: C_22  and  O_35 
REMARK   21  A    between atoms: C_23  and  O_24 
REMARK   22  A    between atoms: O_24  and  P_25 
REMARK   23  A    between atoms: P_25  and  O_27 
REMARK   24  A    between atoms: P_25  and  O_28 
REMARK   25  A    between atoms: O_28  and  C_29 
REMARK   26  A    between atoms: C_29  and  C_30 
REMARK   27  A    between atoms: C_30  and  N_31 
REMARK   28  A    between atoms: O_35  and  C_36 
REMARK   29  A    between atoms: C_36  and  C_38 
REMARK   30  A    between atoms: C_38  and  C_39 
REMARK   31  A    between atoms: C_39  and  C_40 
REMARK   32  A    between atoms: C_40  and  C_41 
REMARK   33  A    between atoms: C_41  and  C_42 
REMARK   34  A    between atoms: C_42  and  C_43 
REMARK   35  A    between atoms: C_43  and  C_44 
REMARK   36  A    between atoms: C_44  and  C_45 
REMARK   37  A    between atoms: C_46  and  C_47 
REMARK   38  A    between atoms: C_47  and  C_48 
REMARK   39  A    between atoms: C_48  and  C_49 
REMARK   40  A    between atoms: C_49  and  C_50 
REMARK   41  A    between atoms: C_50  and  C_51 
REMARK   42  A    between atoms: C_51  and  C_52 
REMARK   43  A    between atoms: C_52  and  C_53 
ROOT
HETATM    1  C   UNK N   1      33.729  17.420   8.696  0.00  0.00     0.180 C 
ENDROOT
BRANCH   1   2
HETATM    2  C   UNK N   1      34.040  17.930   7.294  0.00  0.00     0.213 C 
BRANCH   2   3
HETATM    3  O   UNK N   1      34.348  16.847   6.508  0.00  0.00    -0.319 OA
BRANCH   3   4
HETATM    4  C   UNK N   1      33.741  16.637   5.312  0.00  0.00     0.258 C 
HETATM    5  O   UNK N   1      33.945  15.602   4.707  0.00  0.00    -0.265 OA
BRANCH   4   6
HETATM    6  C   UNK N   1      32.829  17.676   4.706  0.00  0.00     0.111 C 
BRANCH   6   7
HETATM    7  C   UNK N   1      31.978  17.085   3.575  0.00  0.00     0.010 C 
BRANCH   7   8
HETATM    8  C   UNK N   1      30.549  16.766   4.016  0.00  0.00     0.000 C 
BRANCH   8   9
HETATM    9  C   UNK N   1      29.682  16.418   2.817  0.00  0.00     0.000 C 
BRANCH   9  10
HETATM   10  C   UNK N   1      29.353  14.945   2.806  0.00  0.00     0.000 C 
BRANCH  10  11
HETATM   11  C   UNK N   1      27.903  14.761   3.209  0.00  0.00     0.004 C 
BRANCH  11  12
HETATM   12  C   UNK N   1      27.074  14.385   1.995  0.00  0.00     0.027 C 
BRANCH  12  13
HETATM   13  C   UNK N   1      25.825  15.214   1.903  0.00  0.00    -0.031 C 
HETATM   14  C   UNK N   1      24.605  14.674   1.993  0.00  0.00    -0.031 C 
BRANCH  14  15
HETATM   15  C   UNK N   1      24.397  13.200   2.178  0.00  0.00     0.027 C 
BRANCH  15  16
HETATM   16  C   UNK N   1      24.238  12.853   3.650  0.00  0.00     0.004 C 
BRANCH  16  17
HETATM   17  C   UNK N   1      25.194  11.741   4.042  0.00  0.00     0.000 C 
BRANCH  17  18
HETATM   18  C   UNK N   1      24.633  10.960   5.204  0.00  0.00     0.000 C 
BRANCH  18  19
HETATM   19  C   UNK N   1      23.869  11.895   6.115  0.00  0.00     0.000 C 
BRANCH  19  20
HETATM   20  C   UNK N   1      23.559  11.160   7.399  0.00  0.00    -0.000 C 
BRANCH  20  21
HETATM   21  C   UNK N   1      22.906  12.095   8.390  0.00  0.00    -0.005 C 
HETATM   22  C   UNK N   1      23.048  11.512   9.780  0.00  0.00     0.005 C 
ENDBRANCH  20  21
ENDBRANCH  19  20
ENDBRANCH  18  19
ENDBRANCH  17  18
ENDBRANCH  16  17
ENDBRANCH  15  16
ENDBRANCH  14  15
ENDBRANCH  12  13
ENDBRANCH  11  12
ENDBRANCH  10  11
ENDBRANCH   9  10
ENDBRANCH   8   9
ENDBRANCH   7   8
ENDBRANCH   6   7
ENDBRANCH   4   6
ENDBRANCH   3   4
ENDBRANCH   2   3
ENDBRANCH   1   2
BRANCH   1  23
HETATM   23  C   UNK N   1      34.902  16.784   9.427  0.00  0.00     0.215 C 
BRANCH  23  24
HETATM   24  O   UNK N   1      34.578  16.480  10.749  0.00  0.00    -0.294 OA
BRANCH  24  25
HETATM   25  P   UNK N   1      35.039  14.819  10.943  0.00  0.00     0.393 P 
HETATM   26  O   UNK N   1      35.828  15.564  12.055  0.00  0.00    -0.631 OA
BRANCH  25  27
HETATM   27  O   UNK N   1      33.324  15.043  11.147  0.00  0.00    -0.307 OA
HETATM   28  H   UNK N   1      32.384  14.813  11.212  0.00  0.00     0.222 HD
ENDBRANCH  25  27
BRANCH  25  29
HETATM   29  O   UNK N   1      34.594  13.946  12.389  0.00  0.00    -0.295 OA
BRANCH  29  30
HETATM   30  C   UNK N   1      35.762  13.313  12.837  0.00  0.00     0.208 C 
BRANCH  30  31
HETATM   31  C   UNK N   1      35.447  12.168  13.799  0.00  0.00     0.262 C 
BRANCH  31  32
HETATM   32  N   UNK N   1      35.822  12.496  15.177  0.00  0.00    -0.077 N 
HETATM   33  C   UNK N   1      36.442  11.350  15.826  0.00  0.00     0.271 C 
HETATM   34  C   UNK N   1      36.786  13.578  15.149  0.00  0.00     0.271 C 
HETATM   35  C   UNK N   1      34.671  12.933  15.957  0.00  0.00     0.271 C 
ENDBRANCH  31  32
ENDBRANCH  30  31
ENDBRANCH  29  30
ENDBRANCH  25  29
ENDBRANCH  24  25
ENDBRANCH  23  24
ENDBRANCH   1  23
BRANCH   1  36
HETATM   36  O   UNK N   1      32.568  16.674   8.749  0.00  0.00    -0.312 OA
BRANCH  36  37
HETATM   37  C   UNK N   1      31.363  17.050   8.248  0.00  0.00     0.259 C 
HETATM   38  O   UNK N   1      30.782  16.370   7.414  0.00  0.00    -0.265 OA
BRANCH  37  39
HETATM   39  C   UNK N   1      30.735  18.307   8.744  0.00  0.00     0.111 C 
BRANCH  39  40
HETATM   40  C   UNK N   1      29.498  17.974   9.571  0.00  0.00     0.010 C 
BRANCH  40  41
HETATM   41  C   UNK N   1      28.216  18.316   8.828  0.00  0.00     0.000 C 
BRANCH  41  42
HETATM   42  C   UNK N   1      28.491  19.081   7.545  0.00  0.00     0.000 C 
BRANCH  42  43
HETATM   43  C   UNK N   1      27.458  20.179   7.392  0.00  0.00     0.000 C 
BRANCH  43  44
HETATM   44  C   UNK N   1      27.477  20.705   5.973  0.00  0.00     0.004 C 
BRANCH  44  45
HETATM   45  C   UNK N   1      28.258  19.758   5.080  0.00  0.00     0.027 C 
BRANCH  45  46
HETATM   46  C   UNK N   1      27.431  19.392   3.883  0.00  0.00    -0.031 C 
HETATM   47  C   UNK N   1      26.629  18.321   3.849  0.00  0.00    -0.031 C 
BRANCH  47  48
HETATM   48  C   UNK N   1      26.444  17.418   5.027  0.00  0.00     0.027 C 
BRANCH  48  49
HETATM   49  C   UNK N   1      25.019  16.899   5.094  0.00  0.00     0.004 C 
BRANCH  49  50
HETATM   50  C   UNK N   1      24.965  15.522   5.730  0.00  0.00     0.000 C 
BRANCH  50  51
HETATM   51  C   UNK N   1      23.714  15.369   6.573  0.00  0.00     0.000 C 
BRANCH  51  52
HETATM   52  C   UNK N   1      22.481  15.534   5.709  0.00  0.00     0.000 C 
BRANCH  52  53
HETATM   53  C   UNK N   1      21.435  16.293   6.496  0.00  0.00    -0.000 C 
BRANCH  53  54
HETATM   54  C   UNK N   1      21.629  17.782   6.305  0.00  0.00    -0.005 C 
HETATM   55  C   UNK N   1      21.520  18.112   4.831  0.00  0.00     0.005 C 
ENDBRANCH  53  54
ENDBRANCH  52  53
ENDBRANCH  51  52
ENDBRANCH  50  51
ENDBRANCH  49  50
ENDBRANCH  48  49
ENDBRANCH  47  48
ENDBRANCH  45  46
ENDBRANCH  44  45
ENDBRANCH  43  44
ENDBRANCH  42  43
ENDBRANCH  41  42
ENDBRANCH  40  41
ENDBRANCH  39  40
ENDBRANCH  37  39
ENDBRANCH  36  37
ENDBRANCH   1  36
TORSDOF 43
ENDMDL
