MODEL 1
REMARK VINA RESULT:      -6.7      0.000      0.000
REMARK  5 active torsions:
REMARK  status: ('A' for Active; 'I' for Inactive)
REMARK    1  A    between atoms: N_4  and  C_14 
REMARK       I    between atoms: C_11  and  N_13 
REMARK    2  A    between atoms: C_15  and  O_22 
REMARK    3  A    between atoms: C_16  and  O_21 
REMARK    4  A    between atoms: C_17  and  C_19 
REMARK    5  A    between atoms: C_19  and  O_20 
ROOT
HETATM    1  C   UNK N   1      29.268  14.863   4.084  0.00  0.00     0.157 C 
HETATM    2  N   UNK N   1      29.937  15.548   5.176  0.00  0.00    -0.340 N 
HETATM    3  C   UNK N   1      31.272  15.552   5.421  0.00  0.00     0.190 A 
HETATM    4  N   UNK N   1      31.555  16.285   6.532  0.00  0.00    -0.296 N 
HETATM    5  C   UNK N   1      30.361  16.725   6.976  0.00  0.00     0.159 A 
HETATM    6  C   UNK N   1      29.381  16.275   6.163  0.00  0.00     0.149 A 
HETATM    7  C   UNK N   1      28.054  16.571   6.442  0.00  0.00     0.290 A 
HETATM    8  O   UNK N   1      27.146  16.169   5.735  0.00  0.00    -0.265 OA
HETATM    9  N   UNK N   1      27.785  17.326   7.563  0.00  0.00    -0.154 N 
ATOM     10  HN  UNK N   1      26.821  17.560   7.794  1.00  0.00     0.187 HD
HETATM   11  C   UNK N   1      28.802  17.768   8.375  0.00  0.00     0.680 A 
HETATM   12  N   UNK N   1      30.105  17.465   8.084  0.00  0.00    -0.174 N 
HETATM   13  N   UNK N   1      28.501  18.528   9.522  0.00  0.00    -0.234 N 
HETATM   14  H   UNK N   1      30.837  17.776   8.663  0.00  0.00     0.186 HD
HETATM   15  H   UNK N   1      29.227  18.937  10.046  0.00  0.00     0.174 HD
HETATM   16  H   UNK N   1      27.565  18.648   9.801  0.00  0.00     0.174 HD
ENDROOT
BRANCH   4  17
HETATM   17  C   UNK N   1      32.880  16.458   7.139  0.00  0.00     0.262 C 
HETATM   18  C   UNK N   1      33.444  17.846   6.951  0.00  0.00     0.198 C 
HETATM   19  C   UNK N   1      34.522  17.770   7.968  0.00  0.00     0.182 C 
HETATM   20  C   UNK N   1      33.749  17.132   9.101  0.00  0.00     0.179 C 
HETATM   21  O   UNK N   1      32.866  16.192   8.527  0.00  0.00    -0.353 OA
BRANCH  18  22
HETATM   22  O   UNK N   1      33.981  17.997   5.673  0.00  0.00    -0.388 OA
HETATM   23  H   UNK N   1      34.238  18.844   5.275  0.00  0.00     0.210 HD
ENDBRANCH  18  22
BRANCH  19  24
HETATM   24  O   UNK N   1      35.003  19.034   8.307  0.00  0.00    -0.390 OA
HETATM   25  H   UNK N   1      35.845  19.509   8.221  0.00  0.00     0.210 HD
ENDBRANCH  19  24
BRANCH  20  26
HETATM   26  C   UNK N   1      34.682  16.441  10.084  0.00  0.00     0.198 C 
BRANCH  26  27
HETATM   27  O   UNK N   1      35.670  17.322  10.523  0.00  0.00    -0.398 OA
HETATM   28  H   UNK N   1      35.537  18.137  11.033  0.00  0.00     0.209 HD
ENDBRANCH  26  27
ENDBRANCH  20  26
ENDBRANCH   4  17
TORSDOF 5
ENDMDL
MODEL 2
REMARK VINA RESULT:      -6.3      7.883     10.715
REMARK  5 active torsions:
REMARK  status: ('A' for Active; 'I' for Inactive)
REMARK    1  A    between atoms: N_4  and  C_14 
REMARK       I    between atoms: C_11  and  N_13 
REMARK    2  A    between atoms: C_15  and  O_22 
REMARK    3  A    between atoms: C_16  and  O_21 
REMARK    4  A    between atoms: C_17  and  C_19 
REMARK    5  A    between atoms: C_19  and  O_20 
ROOT
HETATM    1  C   UNK N   1      21.482  20.418   2.212  0.00  0.00     0.157 C 
HETATM    2  N   UNK N   1      22.036  19.597   3.275  0.00  0.00    -0.340 N 
HETATM    3  C   UNK N   1      21.336  18.794   4.116  0.00  0.00     0.190 A 
HETATM    4  N   UNK N   1      22.169  18.177   4.998  0.00  0.00    -0.296 N 
HETATM    5  C   UNK N   1      23.402  18.628   4.691  0.00  0.00     0.159 A 
HETATM    6  C   UNK N   1      23.323  19.492   3.655  0.00  0.00     0.149 A 
HETATM    7  C   UNK N   1      24.469  20.118   3.182  0.00  0.00     0.290 A 
HETATM    8  O   UNK N   1      24.430  20.911   2.258  0.00  0.00    -0.265 OA
HETATM    9  N   UNK N   1      25.664  19.827   3.804  0.00  0.00    -0.154 N 
ATOM     10  HN  UNK N   1      26.521  20.271   3.479  1.00  0.00     0.187 HD
HETATM   11  C   UNK N   1      25.714  18.948   4.859  0.00  0.00     0.680 A 
HETATM   12  N   UNK N   1      24.573  18.341   5.312  0.00  0.00    -0.174 N 
HETATM   13  N   UNK N   1      26.945  18.677   5.486  0.00  0.00    -0.234 N 
HETATM   14  H   UNK N   1      24.602  17.712   6.068  0.00  0.00     0.186 HD
HETATM   15  H   UNK N   1      27.006  17.969   6.168  0.00  0.00     0.174 HD
HETATM   16  H   UNK N   1      27.745  19.197   5.244  0.00  0.00     0.174 HD
ENDROOT
BRANCH   4  17
HETATM   17  C   UNK N   1      21.764  17.291   6.095  0.00  0.00     0.262 C 
HETATM   18  C   UNK N   1      20.499  17.740   6.786  0.00  0.00     0.198 C 
HETATM   19  C   UNK N   1      20.201  16.479   7.510  0.00  0.00     0.182 C 
HETATM   20  C   UNK N   1      20.453  15.488   6.396  0.00  0.00     0.179 C 
HETATM   21  O   UNK N   1      21.557  15.963   5.656  0.00  0.00    -0.353 OA
BRANCH  18  22
HETATM   22  O   UNK N   1      20.762  18.775   7.684  0.00  0.00    -0.388 OA
HETATM   23  H   UNK N   1      20.647  18.719   8.645  0.00  0.00     0.210 HD
ENDBRANCH  18  22
BRANCH  19  24
HETATM   24  O   UNK N   1      18.881  16.441   7.959  0.00  0.00    -0.390 OA
HETATM   25  H   UNK N   1      18.113  17.033   7.926  0.00  0.00     0.210 HD
ENDBRANCH  19  24
BRANCH  20  26
HETATM   26  C   UNK N   1      20.750  14.102   6.947  0.00  0.00     0.198 C 
BRANCH  26  27
HETATM   27  O   UNK N   1      20.215  13.960   8.228  0.00  0.00    -0.398 OA
HETATM   28  H   UNK N   1      19.691  13.214   8.559  0.00  0.00     0.209 HD
ENDBRANCH  26  27
ENDBRANCH  20  26
ENDBRANCH   4  17
TORSDOF 5
ENDMDL
MODEL 3
REMARK VINA RESULT:      -6.1      2.372      3.525
REMARK  5 active torsions:
REMARK  status: ('A' for Active; 'I' for Inactive)
REMARK    1  A    between atoms: N_4  and  C_14 
REMARK       I    between atoms: C_11  and  N_13 
REMARK    2  A    between atoms: C_15  and  O_22 
REMARK    3  A    between atoms: C_16  and  O_21 
REMARK    4  A    between atoms: C_17  and  C_19 
REMARK    5  A    between atoms: C_19  and  O_20 
ROOT
HETATM    1  C   UNK N   1      32.332  15.446   4.629  0.00  0.00     0.157 C 
HETATM    2  N   UNK N   1      32.528  15.766   6.032  0.00  0.00    -0.340 N 
HETATM    3  C   UNK N   1      33.547  15.333   6.818  0.00  0.00     0.190 A 
HETATM    4  N   UNK N   1      33.415  15.815   8.084  0.00  0.00    -0.296 N 
HETATM    5  C   UNK N   1      32.283  16.546   8.066  0.00  0.00     0.159 A 
HETATM    6  C   UNK N   1      31.741  16.512   6.829  0.00  0.00     0.149 A 
HETATM    7  C   UNK N   1      30.544  17.167   6.576  0.00  0.00     0.290 A 
HETATM    8  O   UNK N   1      30.023  17.145   5.474  0.00  0.00    -0.265 OA
HETATM    9  N   UNK N   1      29.943  17.837   7.619  0.00  0.00    -0.154 N 
ATOM     10  HN  UNK N   1      29.064  18.328   7.464  1.00  0.00     0.187 HD
HETATM   11  C   UNK N   1      30.515  17.852   8.869  0.00  0.00     0.680 A 
HETATM   12  N   UNK N   1      31.696  17.200   9.100  0.00  0.00    -0.174 N 
HETATM   13  N   UNK N   1      29.875  18.534   9.922  0.00  0.00    -0.234 N 
HETATM   14  H   UNK N   1      32.109  17.205   9.993  0.00  0.00     0.186 HD
HETATM   15  H   UNK N   1      30.331  18.640  10.789  0.00  0.00     0.174 HD
HETATM   16  H   UNK N   1      28.972  18.903   9.793  0.00  0.00     0.174 HD
ENDROOT
BRANCH   4  17
HETATM   17  C   UNK N   1      34.288  15.505   9.222  0.00  0.00     0.262 C 
HETATM   18  C   UNK N   1      33.699  14.482  10.163  0.00  0.00     0.198 C 
HETATM   19  C   UNK N   1      34.939  14.147  10.906  0.00  0.00     0.182 C 
HETATM   20  C   UNK N   1      35.898  14.023   9.744  0.00  0.00     0.179 C 
HETATM   21  O   UNK N   1      35.549  15.020   8.806  0.00  0.00    -0.353 OA
BRANCH  18  22
HETATM   22  O   UNK N   1      32.759  15.068  11.011  0.00  0.00    -0.388 OA
HETATM   23  H   UNK N   1      32.514  16.007  11.005  0.00  0.00     0.210 HD
ENDBRANCH  18  22
BRANCH  19  24
HETATM   24  O   UNK N   1      34.811  12.950  11.611  0.00  0.00    -0.390 OA
HETATM   25  H   UNK N   1      34.101  12.492  12.089  0.00  0.00     0.210 HD
ENDBRANCH  19  24
BRANCH  20  26
HETATM   26  C   UNK N   1      37.339  14.212  10.195  0.00  0.00     0.198 C 
BRANCH  26  27
HETATM   27  O   UNK N   1      37.492  13.808  11.521  0.00  0.00    -0.398 OA
HETATM   28  H   UNK N   1      38.207  14.061  12.126  0.00  0.00     0.209 HD
ENDBRANCH  26  27
ENDBRANCH  20  26
ENDBRANCH   4  17
TORSDOF 5
ENDMDL
MODEL 4
REMARK VINA RESULT:      -6.1      1.729      3.245
REMARK  5 active torsions:
REMARK  status: ('A' for Active; 'I' for Inactive)
REMARK    1  A    between atoms: N_4  and  C_14 
REMARK       I    between atoms: C_11  and  N_13 
REMARK    2  A    between atoms: C_15  and  O_22 
REMARK    3  A    between atoms: C_16  and  O_21 
REMARK    4  A    between atoms: C_17  and  C_19 
REMARK    5  A    between atoms: C_19  and  O_20 
ROOT
HETATM    1  C   UNK N   1      28.265  18.016   8.409  0.00  0.00     0.157 C 
HETATM    2  N   UNK N   1      29.535  17.587   7.849  0.00  0.00    -0.340 N 
HETATM    3  C   UNK N   1      30.623  17.176   8.550  0.00  0.00     0.190 A 
HETATM    4  N   UNK N   1      31.644  16.856   7.709  0.00  0.00    -0.296 N 
HETATM    5  C   UNK N   1      31.167  17.092   6.471  0.00  0.00     0.159 A 
HETATM    6  C   UNK N   1      29.895  17.541   6.553  0.00  0.00     0.149 A 
HETATM    7  C   UNK N   1      29.204  17.887   5.400  0.00  0.00     0.290 A 
HETATM    8  O   UNK N   1      28.060  18.306   5.441  0.00  0.00    -0.265 OA
HETATM    9  N   UNK N   1      29.858  17.758   4.194  0.00  0.00    -0.154 N 
ATOM     10  HN  UNK N   1      29.376  18.005   3.331  1.00  0.00     0.187 HD
HETATM   11  C   UNK N   1      31.153  17.303   4.141  0.00  0.00     0.680 A 
HETATM   12  N   UNK N   1      31.820  16.967   5.288  0.00  0.00    -0.174 N 
HETATM   13  N   UNK N   1      31.805  17.193   2.897  0.00  0.00    -0.234 N 
HETATM   14  H   UNK N   1      32.748  16.643   5.257  0.00  0.00     0.186 HD
HETATM   15  H   UNK N   1      32.691  16.767   2.841  0.00  0.00     0.174 HD
HETATM   16  H   UNK N   1      31.375  17.543   2.083  0.00  0.00     0.174 HD
ENDROOT
BRANCH   4  17
HETATM   17  C   UNK N   1      32.993  16.439   8.108  0.00  0.00     0.262 C 
HETATM   18  C   UNK N   1      33.811  17.560   8.703  0.00  0.00     0.198 C 
HETATM   19  C   UNK N   1      34.881  16.733   9.314  0.00  0.00     0.182 C 
HETATM   20  C   UNK N   1      34.030  15.652   9.943  0.00  0.00     0.179 C 
HETATM   21  O   UNK N   1      32.966  15.388   9.053  0.00  0.00    -0.353 OA
BRANCH  18  22
HETATM   22  O   UNK N   1      34.333  18.382   7.703  0.00  0.00    -0.388 OA
HETATM   23  H   UNK N   1      33.945  19.223   7.418  0.00  0.00     0.210 HD
ENDBRANCH  18  22
BRANCH  19  24
HETATM   24  O   UNK N   1      35.608  17.449  10.265  0.00  0.00    -0.390 OA
HETATM   25  H   UNK N   1      35.646  18.369  10.570  0.00  0.00     0.210 HD
ENDBRANCH  19  24
BRANCH  20  26
HETATM   26  C   UNK N   1      34.837  14.385  10.183  0.00  0.00     0.198 C 
BRANCH  26  27
HETATM   27  O   UNK N   1      33.988  13.296  10.381  0.00  0.00    -0.398 OA
HETATM   28  H   UNK N   1      33.029  13.324  10.519  0.00  0.00     0.209 HD
ENDBRANCH  26  27
ENDBRANCH  20  26
ENDBRANCH   4  17
TORSDOF 5
ENDMDL
MODEL 5
REMARK VINA RESULT:      -6.1      4.698      7.221
REMARK  5 active torsions:
REMARK  status: ('A' for Active; 'I' for Inactive)
REMARK    1  A    between atoms: N_4  and  C_14 
REMARK       I    between atoms: C_11  and  N_13 
REMARK    2  A    between atoms: C_15  and  O_22 
REMARK    3  A    between atoms: C_16  and  O_21 
REMARK    4  A    between atoms: C_17  and  C_19 
REMARK    5  A    between atoms: C_19  and  O_20 
ROOT
HETATM    1  C   UNK N   1      35.460  10.904   9.458  0.00  0.00     0.157 C 
HETATM    2  N   UNK N   1      35.247  12.231  10.009  0.00  0.00    -0.340 N 
HETATM    3  C   UNK N   1      34.527  13.229   9.437  0.00  0.00     0.190 A 
HETATM    4  N   UNK N   1      34.543  14.343  10.220  0.00  0.00    -0.296 N 
HETATM    5  C   UNK N   1      35.302  14.014  11.284  0.00  0.00     0.159 A 
HETATM    6  C   UNK N   1      35.735  12.740  11.155  0.00  0.00     0.149 A 
HETATM    7  C   UNK N   1      36.569  12.188  12.118  0.00  0.00     0.290 A 
HETATM    8  O   UNK N   1      36.986  11.047  12.025  0.00  0.00    -0.265 OA
HETATM    9  N   UNK N   1      36.930  12.979  13.187  0.00  0.00    -0.154 N 
ATOM     10  HN  UNK N   1      37.541  12.601  13.909  1.00  0.00     0.187 HD
HETATM   11  C   UNK N   1      36.479  14.272  13.290  0.00  0.00     0.680 A 
HETATM   12  N   UNK N   1      35.657  14.801  12.330  0.00  0.00    -0.174 N 
HETATM   13  N   UNK N   1      36.872  15.066  14.386  0.00  0.00    -0.234 N 
HETATM   14  H   UNK N   1      35.332  15.727  12.397  0.00  0.00     0.186 HD
HETATM   15  H   UNK N   1      36.467  15.953  14.522  0.00  0.00     0.174 HD
HETATM   16  H   UNK N   1      37.553  14.733  15.014  0.00  0.00     0.174 HD
ENDROOT
BRANCH   4  17
HETATM   17  C   UNK N   1      33.932  15.637   9.895  0.00  0.00     0.262 C 
HETATM   18  C   UNK N   1      34.916  16.636   9.338  0.00  0.00     0.198 C 
HETATM   19  C   UNK N   1      33.936  17.606   8.788  0.00  0.00     0.182 C 
HETATM   20  C   UNK N   1      32.980  16.642   8.122  0.00  0.00     0.179 C 
HETATM   21  O   UNK N   1      32.883  15.507   8.956  0.00  0.00    -0.353 OA
BRANCH  18  22
HETATM   22  O   UNK N   1      35.668  17.219  10.359  0.00  0.00    -0.388 OA
HETATM   23  H   UNK N   1      36.557  16.937  10.623  0.00  0.00     0.210 HD
ENDBRANCH  18  22
BRANCH  19  24
HETATM   24  O   UNK N   1      34.528  18.476   7.873  0.00  0.00    -0.390 OA
HETATM   25  H   UNK N   1      34.793  18.437   6.941  0.00  0.00     0.210 HD
ENDBRANCH  19  24
BRANCH  20  26
HETATM   26  C   UNK N   1      31.608  17.270   7.932  0.00  0.00     0.198 C 
BRANCH  26  27
HETATM   27  O   UNK N   1      31.212  17.940   9.089  0.00  0.00    -0.398 OA
HETATM   28  H   UNK N   1      30.890  18.853   9.150  0.00  0.00     0.209 HD
ENDBRANCH  26  27
ENDBRANCH  20  26
ENDBRANCH   4  17
TORSDOF 5
ENDMDL
MODEL 6
REMARK VINA RESULT:      -6.0     10.189     11.672
REMARK  5 active torsions:
REMARK  status: ('A' for Active; 'I' for Inactive)
REMARK    1  A    between atoms: N_4  and  C_14 
REMARK       I    between atoms: C_11  and  N_13 
REMARK    2  A    between atoms: C_15  and  O_22 
REMARK    3  A    between atoms: C_16  and  O_21 
REMARK    4  A    between atoms: C_17  and  C_19 
REMARK    5  A    between atoms: C_19  and  O_20 
ROOT
HETATM    1  C   UNK N   1      22.708  12.926   6.666  0.00  0.00     0.157 C 
HETATM    2  N   UNK N   1      22.083  14.189   6.317  0.00  0.00    -0.340 N 
HETATM    3  C   UNK N   1      22.070  14.764   5.087  0.00  0.00     0.190 A 
HETATM    4  N   UNK N   1      21.404  15.952   5.118  0.00  0.00    -0.296 N 
HETATM    5  C   UNK N   1      21.017  16.104   6.400  0.00  0.00     0.159 A 
HETATM    6  C   UNK N   1      21.433  15.044   7.129  0.00  0.00     0.149 A 
HETATM    7  C   UNK N   1      21.180  14.995   8.493  0.00  0.00     0.290 A 
HETATM    8  O   UNK N   1      21.552  14.059   9.179  0.00  0.00    -0.265 OA
HETATM    9  N   UNK N   1      20.504  16.053   9.060  0.00  0.00    -0.154 N 
ATOM     10  HN  UNK N   1      20.305  16.045  10.060  1.00  0.00     0.187 HD
HETATM   11  C   UNK N   1      20.098  17.120   8.297  0.00  0.00     0.680 A 
HETATM   12  N   UNK N   1      20.356  17.152   6.952  0.00  0.00    -0.174 N 
HETATM   13  N   UNK N   1      19.420  18.196   8.903  0.00  0.00    -0.234 N 
HETATM   14  H   UNK N   1      20.069  17.914   6.400  0.00  0.00     0.186 HD
HETATM   15  H   UNK N   1      19.031  18.910   8.346  0.00  0.00     0.174 HD
HETATM   16  H   UNK N   1      19.335  18.235   9.883  0.00  0.00     0.174 HD
ENDROOT
BRANCH   4  17
HETATM   17  C   UNK N   1      21.246  16.883   3.996  0.00  0.00     0.262 C 
HETATM   18  C   UNK N   1      19.820  16.996   3.513  0.00  0.00     0.198 C 
HETATM   19  C   UNK N   1      19.973  18.233   2.708  0.00  0.00     0.182 C 
HETATM   20  C   UNK N   1      20.785  19.061   3.678  0.00  0.00     0.179 C 
HETATM   21  O   UNK N   1      21.686  18.186   4.322  0.00  0.00    -0.353 OA
BRANCH  18  22
HETATM   22  O   UNK N   1      19.483  15.915   2.697  0.00  0.00    -0.388 OA
HETATM   23  H   UNK N   1      19.547  15.908   1.730  0.00  0.00     0.210 HD
ENDBRANCH  18  22
BRANCH  19  24
HETATM   24  O   UNK N   1      18.739  18.818   2.421  0.00  0.00    -0.390 OA
HETATM   25  H   UNK N   1      17.840  18.502   2.238  0.00  0.00     0.210 HD
ENDBRANCH  19  24
BRANCH  20  26
HETATM   26  C   UNK N   1      21.549  20.162   2.958  0.00  0.00     0.198 C 
BRANCH  26  27
HETATM   27  O   UNK N   1      20.817  21.350   2.965  0.00  0.00    -0.398 OA
HETATM   28  H   UNK N   1      21.112  22.212   3.296  0.00  0.00     0.209 HD
ENDBRANCH  26  27
ENDBRANCH  20  26
ENDBRANCH   4  17
TORSDOF 5
ENDMDL
MODEL 7
REMARK VINA RESULT:      -5.8      5.957     10.027
REMARK  5 active torsions:
REMARK  status: ('A' for Active; 'I' for Inactive)
REMARK    1  A    between atoms: N_4  and  C_14 
REMARK       I    between atoms: C_11  and  N_13 
REMARK    2  A    between atoms: C_15  and  O_22 
REMARK    3  A    between atoms: C_16  and  O_21 
REMARK    4  A    between atoms: C_17  and  C_19 
REMARK    5  A    between atoms: C_19  and  O_20 
ROOT
HETATM    1  C   UNK N   1      26.874  15.943   3.204  0.00  0.00     0.157 C 
HETATM    2  N   UNK N   1      26.090  17.090   3.628  0.00  0.00    -0.340 N 
HETATM    3  C   UNK N   1      24.764  17.280   3.408  0.00  0.00     0.190 A 
HETATM    4  N   UNK N   1      24.354  18.468   3.931  0.00  0.00    -0.296 N 
HETATM    5  C   UNK N   1      25.462  19.015   4.470  0.00  0.00     0.159 A 
HETATM    6  C   UNK N   1      26.514  18.188   4.281  0.00  0.00     0.149 A 
HETATM    7  C   UNK N   1      27.778  18.558   4.722  0.00  0.00     0.290 A 
HETATM    8  O   UNK N   1      28.748  17.840   4.556  0.00  0.00    -0.265 OA
HETATM    9  N   UNK N   1      27.910  19.780   5.343  0.00  0.00    -0.154 N 
ATOM     10  HN  UNK N   1      28.826  20.079   5.677  1.00  0.00     0.187 HD
HETATM   11  C   UNK N   1      26.824  20.603   5.518  0.00  0.00     0.680 A 
HETATM   12  N   UNK N   1      25.585  20.222   5.077  0.00  0.00    -0.174 N 
HETATM   13  N   UNK N   1      26.988  21.854   6.145  0.00  0.00    -0.234 N 
HETATM   14  H   UNK N   1      24.804  20.808   5.197  0.00  0.00     0.186 HD
HETATM   15  H   UNK N   1      26.199  22.399   6.371  0.00  0.00     0.174 HD
HETATM   16  H   UNK N   1      27.890  22.184   6.357  0.00  0.00     0.174 HD
ENDROOT
BRANCH   4  17
HETATM   17  C   UNK N   1      23.007  19.039   3.828  0.00  0.00     0.262 C 
HETATM   18  C   UNK N   1      22.869  20.038   2.704  0.00  0.00     0.198 C 
HETATM   19  C   UNK N   1      21.387  20.090   2.656  0.00  0.00     0.182 C 
HETATM   20  C   UNK N   1      21.084  18.611   2.742  0.00  0.00     0.179 C 
HETATM   21  O   UNK N   1      22.022  18.044   3.632  0.00  0.00    -0.353 OA
BRANCH  18  22
HETATM   22  O   UNK N   1      23.394  21.277   3.072  0.00  0.00    -0.388 OA
HETATM   23  H   UNK N   1      22.882  22.006   3.456  0.00  0.00     0.210 HD
ENDBRANCH  18  22
BRANCH  19  24
HETATM   24  O   UNK N   1      20.929  20.651   1.464  0.00  0.00    -0.390 OA
HETATM   25  H   UNK N   1      20.100  20.644   0.959  0.00  0.00     0.210 HD
ENDBRANCH  19  24
BRANCH  20  26
HETATM   26  C   UNK N   1      19.671  18.366   3.248  0.00  0.00     0.198 C 
BRANCH  26  27
HETATM   27  O   UNK N   1      18.736  18.695   2.266  0.00  0.00    -0.398 OA
HETATM   28  H   UNK N   1      18.558  19.578   1.907  0.00  0.00     0.209 HD
ENDBRANCH  26  27
ENDBRANCH  20  26
ENDBRANCH   4  17
TORSDOF 5
ENDMDL
MODEL 8
REMARK VINA RESULT:      -5.8     12.696     14.352
REMARK  5 active torsions:
REMARK  status: ('A' for Active; 'I' for Inactive)
REMARK    1  A    between atoms: N_4  and  C_14 
REMARK       I    between atoms: C_11  and  N_13 
REMARK    2  A    between atoms: C_15  and  O_22 
REMARK    3  A    between atoms: C_16  and  O_21 
REMARK    4  A    between atoms: C_17  and  C_19 
REMARK    5  A    between atoms: C_19  and  O_20 
ROOT
HETATM    1  C   UNK N   1      26.520  26.421  -3.420  0.00  0.00     0.157 C 
HETATM    2  N   UNK N   1      27.221  25.317  -4.052  0.00  0.00    -0.340 N 
HETATM    3  C   UNK N   1      28.434  24.824  -3.690  0.00  0.00     0.190 A 
HETATM    4  N   UNK N   1      28.798  23.796  -4.504  0.00  0.00    -0.296 N 
HETATM    5  C   UNK N   1      27.788  23.673  -5.388  0.00  0.00     0.159 A 
HETATM    6  C   UNK N   1      26.838  24.596  -5.122  0.00  0.00     0.149 A 
HETATM    7  C   UNK N   1      25.710  24.686  -5.927  0.00  0.00     0.290 A 
HETATM    8  O   UNK N   1      24.842  25.515  -5.721  0.00  0.00    -0.265 OA
HETATM    9  N   UNK N   1      25.607  23.813  -6.989  0.00  0.00    -0.154 N 
ATOM     10  HN  UNK N   1      24.791  23.856  -7.598  1.00  0.00     0.187 HD
HETATM   11  C   UNK N   1      26.591  22.888  -7.239  0.00  0.00     0.680 A 
HETATM   12  N   UNK N   1      27.696  22.814  -6.434  0.00  0.00    -0.174 N 
HETATM   13  N   UNK N   1      26.468  22.016  -8.338  0.00  0.00    -0.234 N 
HETATM   14  H   UNK N   1      28.406  22.155  -6.609  0.00  0.00     0.186 HD
HETATM   15  H   UNK N   1      27.113  21.281  -8.458  0.00  0.00     0.174 HD
HETATM   16  H   UNK N   1      25.739  22.141  -8.986  0.00  0.00     0.174 HD
ENDROOT
BRANCH   4  17
HETATM   17  C   UNK N   1      30.070  23.066  -4.457  0.00  0.00     0.262 C 
HETATM   18  C   UNK N   1      30.688  23.036  -3.080  0.00  0.00     0.198 C 
HETATM   19  C   UNK N   1      31.672  21.951  -3.319  0.00  0.00     0.182 C 
HETATM   20  C   UNK N   1      30.786  20.972  -4.056  0.00  0.00     0.179 C 
HETATM   21  O   UNK N   1      29.929  21.727  -4.886  0.00  0.00    -0.353 OA
BRANCH  18  22
HETATM   22  O   UNK N   1      31.338  24.238  -2.799  0.00  0.00    -0.388 OA
HETATM   23  H   UNK N   1      31.959  24.376  -2.067  0.00  0.00     0.210 HD
ENDBRANCH  18  22
BRANCH  19  24
HETATM   24  O   UNK N   1      32.159  21.423  -2.124  0.00  0.00    -0.390 OA
HETATM   25  H   UNK N   1      32.416  20.545  -1.799  0.00  0.00     0.210 HD
ENDBRANCH  19  24
BRANCH  20  26
HETATM   26  C   UNK N   1      31.609  20.007  -4.895  0.00  0.00     0.198 C 
BRANCH  26  27
HETATM   27  O   UNK N   1      32.508  19.304  -4.092  0.00  0.00    -0.398 OA
HETATM   28  H   UNK N   1      32.291  18.627  -3.433  0.00  0.00     0.209 HD
ENDBRANCH  26  27
ENDBRANCH  20  26
ENDBRANCH   4  17
TORSDOF 5
ENDMDL
MODEL 9
REMARK VINA RESULT:      -5.8     13.160     14.574
REMARK  5 active torsions:
REMARK  status: ('A' for Active; 'I' for Inactive)
REMARK    1  A    between atoms: N_4  and  C_14 
REMARK       I    between atoms: C_11  and  N_13 
REMARK    2  A    between atoms: C_15  and  O_22 
REMARK    3  A    between atoms: C_16  and  O_21 
REMARK    4  A    between atoms: C_17  and  C_19 
REMARK    5  A    between atoms: C_19  and  O_20 
ROOT
HETATM    1  C   UNK N   1      26.834  21.183  -8.303  0.00  0.00     0.157 C 
HETATM    2  N   UNK N   1      27.403  22.132  -7.362  0.00  0.00    -0.340 N 
HETATM    3  C   UNK N   1      28.530  21.953  -6.626  0.00  0.00     0.190 A 
HETATM    4  N   UNK N   1      28.768  23.038  -5.840  0.00  0.00    -0.296 N 
HETATM    5  C   UNK N   1      27.754  23.888  -6.098  0.00  0.00     0.159 A 
HETATM    6  C   UNK N   1      26.923  23.340  -7.011  0.00  0.00     0.149 A 
HETATM    7  C   UNK N   1      25.780  24.019  -7.409  0.00  0.00     0.290 A 
HETATM    8  O   UNK N   1      25.005  23.546  -8.222  0.00  0.00    -0.265 OA
HETATM    9  N   UNK N   1      25.533  25.250  -6.842  0.00  0.00    -0.154 N 
ATOM     10  HN  UNK N   1      24.701  25.772  -7.114  1.00  0.00     0.187 HD
HETATM   11  C   UNK N   1      26.392  25.782  -5.912  0.00  0.00     0.680 A 
HETATM   12  N   UNK N   1      27.515  25.097  -5.531  0.00  0.00    -0.174 N 
HETATM   13  N   UNK N   1      26.111  27.037  -5.336  0.00  0.00    -0.234 N 
HETATM   14  H   UNK N   1      28.133  25.472  -4.863  0.00  0.00     0.186 HD
HETATM   15  H   UNK N   1      26.775  27.471  -4.753  0.00  0.00     0.174 HD
HETATM   16  H   UNK N   1      25.250  27.479  -5.516  0.00  0.00     0.174 HD
ENDROOT
BRANCH   4  17
HETATM   17  C   UNK N   1      29.854  23.176  -4.864  0.00  0.00     0.262 C 
HETATM   18  C   UNK N   1      29.365  23.455  -3.463  0.00  0.00     0.198 C 
HETATM   19  C   UNK N   1      30.623  23.149  -2.740  0.00  0.00     0.182 C 
HETATM   20  C   UNK N   1      31.008  21.867  -3.444  0.00  0.00     0.179 C 
HETATM   21  O   UNK N   1      30.665  22.020  -4.805  0.00  0.00    -0.353 OA
BRANCH  18  22
HETATM   22  O   UNK N   1      29.024  24.800  -3.313  0.00  0.00    -0.388 OA
HETATM   23  H   UNK N   1      28.766  25.392  -4.037  0.00  0.00     0.210 HD
ENDBRANCH  18  22
BRANCH  19  24
HETATM   24  O   UNK N   1      30.400  22.953  -1.377  0.00  0.00    -0.390 OA
HETATM   25  H   UNK N   1      29.695  22.571  -0.830  0.00  0.00     0.210 HD
ENDBRANCH  19  24
BRANCH  20  26
HETATM   26  C   UNK N   1      32.498  21.590  -3.309  0.00  0.00     0.198 C 
BRANCH  26  27
HETATM   27  O   UNK N   1      32.802  21.175  -2.012  0.00  0.00    -0.398 OA
HETATM   28  H   UNK N   1      32.538  20.342  -1.592  0.00  0.00     0.209 HD
ENDBRANCH  26  27
ENDBRANCH  20  26
ENDBRANCH   4  17
TORSDOF 5
ENDMDL
