MODEL 1
REMARK VINA RESULT:      -5.4      0.000      0.000
REMARK WARNING: 32 MAX_TORS EXCEEDED!!!
REMARK  35 active torsions:
REMARK  status: ('A' for Active; 'I' for Inactive)
REMARK    1  A    between atoms: C_17  and  C_11 
REMARK    2  A    between atoms: C_19  and  C_11 
REMARK    3  A    between atoms: C_18  and  C_12 
REMARK    4  A    between atoms: C_20  and  C_12 
REMARK    5  A    between atoms: C_21  and  C_13 
REMARK    6  A    between atoms: C_23  and  C_13 
REMARK    7  A    between atoms: C_22  and  C_14 
REMARK    8  A    between atoms: C_24  and  C_14 
REMARK    9  A    between atoms: C_25  and  C_15 
REMARK   10  A    between atoms: C_27  and  C_15 
REMARK   11  A    between atoms: C_26  and  C_16 
REMARK   12  A    between atoms: C_28  and  C_16 
REMARK   13  A    between atoms: C_35  and  C_17 
REMARK   14  A    between atoms: C_36  and  C_18 
REMARK   15  A    between atoms: C_37  and  C_19 
REMARK   16  A    between atoms: C_38  and  C_20 
REMARK   17  A    between atoms: C_37  and  C_21 
REMARK   18  A    between atoms: C_38  and  C_22 
REMARK   19  A    between atoms: C_39  and  C_23 
REMARK   20  A    between atoms: C_40  and  C_24 
REMARK   21  A    between atoms: C_39  and  C_25 
REMARK   22  A    between atoms: C_40  and  C_26 
REMARK   23  A    between atoms: C_41  and  C_27 
REMARK   24  A    between atoms: C_42  and  C_28 
REMARK   25  A    between atoms: C_31  and  C_29 
REMARK   26  A    between atoms: C_41  and  C_29 
REMARK   27  A    between atoms: C_32  and  C_30 
REMARK   28  A    between atoms: C_42  and  C_30 
REMARK   29  A    between atoms: O_45  and  C_31 
REMARK   30  A    between atoms: O_46  and  C_32 
REMARK   31  A    between atoms: C_43  and  C_33 
REMARK   32  A    between atoms: O_44  and  C_33 
REMARK   33  A    between atoms: C_43  and  C_34 
REMARK   34  A    between atoms: O_45  and  C_34 
REMARK   35  A    between atoms: C_43  and  O_46 
ROOT
HETATM    1  C   UNK N   1      21.610  20.775   2.672  0.00  0.00     0.168 C 
ENDROOT
BRANCH   1   2
HETATM    2  C   UNK N   1      20.987  20.281   1.378  0.00  0.00     0.198 C 
BRANCH   2   3
HETATM    3  O   UNK N   1      21.661  20.807   0.276  0.00  0.00    -0.398 OA
HETATM    4  H   UNK N   1      22.480  21.311   0.150  0.00  0.00     0.209 HD
ENDBRANCH   2   3
ENDBRANCH   1   2
BRANCH   1   5
HETATM    5  C   UNK N   1      23.009  20.158   2.734  0.00  0.00     0.201 C 
BRANCH   5   6
HETATM    6  O   UNK N   1      24.062  21.000   2.311  0.00  0.00    -0.389 OA
BRANCH   6   7
HETATM    7  C   UNK N   1      25.334  20.578   2.776  0.00  0.00     0.168 C 
BRANCH   7   8
HETATM    8  C   UNK N   1      25.371  19.369   3.718  0.00  0.00     0.030 C 
BRANCH   8   9
HETATM    9  C   UNK N   1      26.379  19.476   4.858  0.00  0.00    -0.017 C 
HETATM   10  C   UNK N   1      26.407  20.901   5.371  0.00  0.00     0.010 C 
BRANCH   9  11
HETATM   11  C   UNK N   1      27.755  19.028   4.359  0.00  0.00     0.004 C 
BRANCH  11  12
HETATM   12  C   UNK N   1      28.629  18.449   5.471  0.00  0.00     0.001 C 
BRANCH  12  13
HETATM   13  C   UNK N   1      27.782  17.709   6.498  0.00  0.00     0.004 C 
BRANCH  13  14
HETATM   14  C   UNK N   1      28.620  17.195   7.667  0.00  0.00    -0.019 C 
HETATM   15  C   UNK N   1      27.957  17.516   9.003  0.00  0.00     0.010 C 
BRANCH  14  16
HETATM   16  C   UNK N   1      30.029  17.764   7.605  0.00  0.00     0.004 C 
BRANCH  16  17
HETATM   17  C   UNK N   1      31.069  16.815   8.181  0.00  0.00     0.001 C 
BRANCH  17  18
HETATM   18  C   UNK N   1      31.879  16.192   7.051  0.00  0.00     0.004 C 
BRANCH  18  19
HETATM   19  C   UNK N   1      33.354  16.621   7.040  0.00  0.00    -0.019 C 
HETATM   20  C   UNK N   1      33.758  17.269   8.357  0.00  0.00     0.010 C 
BRANCH  19  21
HETATM   21  C   UNK N   1      33.599  17.583   5.882  0.00  0.00     0.004 C 
BRANCH  21  22
HETATM   22  C   UNK N   1      32.526  17.471   4.807  0.00  0.00     0.001 C 
BRANCH  22  23
HETATM   23  C   UNK N   1      33.062  16.688   3.624  0.00  0.00     0.004 C 
BRANCH  23  24
HETATM   24  C   UNK N   1      32.060  15.654   3.137  0.00  0.00    -0.023 C 
HETATM   25  C   UNK N   1      30.663  16.151   3.435  0.00  0.00     0.009 C 
HETATM   26  C   UNK N   1      32.269  14.322   3.835  0.00  0.00     0.009 C 
ENDBRANCH  23  24
ENDBRANCH  22  23
ENDBRANCH  21  22
ENDBRANCH  19  21
ENDBRANCH  18  19
ENDBRANCH  17  18
ENDBRANCH  16  17
ENDBRANCH  14  16
ENDBRANCH  13  14
ENDBRANCH  12  13
ENDBRANCH  11  12
ENDBRANCH   9  11
ENDBRANCH   8   9
ENDBRANCH   7   8
ENDBRANCH   6   7
ENDBRANCH   5   6
ENDBRANCH   1   5
BRANCH   1  27
HETATM   27  O   UNK N   1      20.809  20.335   3.745  0.00  0.00    -0.382 OA
BRANCH  27  28
HETATM   28  C   UNK N   1      20.514  18.972   3.573  0.00  0.00     0.168 C 
BRANCH  28  29
HETATM   29  C   UNK N   1      20.825  18.168   4.840  0.00  0.00     0.030 C 
BRANCH  29  30
HETATM   30  C   UNK N   1      20.678  16.660   4.638  0.00  0.00    -0.017 C 
HETATM   31  C   UNK N   1      19.549  16.108   5.487  0.00  0.00     0.010 C 
BRANCH  30  32
HETATM   32  C   UNK N   1      20.362  16.337   3.182  0.00  0.00     0.004 C 
BRANCH  32  33
HETATM   33  C   UNK N   1      20.975  15.023   2.691  0.00  0.00     0.001 C 
BRANCH  33  34
HETATM   34  C   UNK N   1      21.394  15.048   1.218  0.00  0.00     0.004 C 
BRANCH  34  35
HETATM   35  C   UNK N   1      22.055  13.756   0.732  0.00  0.00    -0.019 C 
HETATM   36  C   UNK N   1      21.778  12.654   1.740  0.00  0.00     0.010 C 
BRANCH  35  37
HETATM   37  C   UNK N   1      23.554  13.923   0.507  0.00  0.00     0.004 C 
BRANCH  37  38
HETATM   38  C   UNK N   1      24.340  13.760   1.796  0.00  0.00     0.001 C 
BRANCH  38  39
HETATM   39  C   UNK N   1      25.687  14.455   1.693  0.00  0.00     0.004 C 
BRANCH  39  40
HETATM   40  C   UNK N   1      25.805  15.693   2.593  0.00  0.00    -0.019 C 
HETATM   41  C   UNK N   1      27.021  15.611   3.508  0.00  0.00     0.010 C 
BRANCH  40  42
HETATM   42  C   UNK N   1      24.536  15.834   3.426  0.00  0.00     0.004 C 
BRANCH  42  43
HETATM   43  C   UNK N   1      24.846  15.872   4.919  0.00  0.00     0.001 C 
BRANCH  43  44
HETATM   44  C   UNK N   1      23.734  15.210   5.708  0.00  0.00     0.004 C 
BRANCH  44  45
HETATM   45  C   UNK N   1      23.438  13.817   5.181  0.00  0.00    -0.023 C 
HETATM   46  C   UNK N   1      22.157  13.316   5.813  0.00  0.00     0.009 C 
HETATM   47  C   UNK N   1      24.565  12.860   5.520  0.00  0.00     0.009 C 
ENDBRANCH  44  45
ENDBRANCH  43  44
ENDBRANCH  42  43
ENDBRANCH  40  42
ENDBRANCH  39  40
ENDBRANCH  38  39
ENDBRANCH  37  38
ENDBRANCH  35  37
ENDBRANCH  34  35
ENDBRANCH  33  34
ENDBRANCH  32  33
ENDBRANCH  30  32
ENDBRANCH  29  30
ENDBRANCH  28  29
ENDBRANCH  27  28
ENDBRANCH   1  27
TORSDOF 35
ENDMDL
MODEL 2
REMARK VINA RESULT:      -5.3      1.536      2.525
REMARK WARNING: 32 MAX_TORS EXCEEDED!!!
REMARK  35 active torsions:
REMARK  status: ('A' for Active; 'I' for Inactive)
REMARK    1  A    between atoms: C_17  and  C_11 
REMARK    2  A    between atoms: C_19  and  C_11 
REMARK    3  A    between atoms: C_18  and  C_12 
REMARK    4  A    between atoms: C_20  and  C_12 
REMARK    5  A    between atoms: C_21  and  C_13 
REMARK    6  A    between atoms: C_23  and  C_13 
REMARK    7  A    between atoms: C_22  and  C_14 
REMARK    8  A    between atoms: C_24  and  C_14 
REMARK    9  A    between atoms: C_25  and  C_15 
REMARK   10  A    between atoms: C_27  and  C_15 
REMARK   11  A    between atoms: C_26  and  C_16 
REMARK   12  A    between atoms: C_28  and  C_16 
REMARK   13  A    between atoms: C_35  and  C_17 
REMARK   14  A    between atoms: C_36  and  C_18 
REMARK   15  A    between atoms: C_37  and  C_19 
REMARK   16  A    between atoms: C_38  and  C_20 
REMARK   17  A    between atoms: C_37  and  C_21 
REMARK   18  A    between atoms: C_38  and  C_22 
REMARK   19  A    between atoms: C_39  and  C_23 
REMARK   20  A    between atoms: C_40  and  C_24 
REMARK   21  A    between atoms: C_39  and  C_25 
REMARK   22  A    between atoms: C_40  and  C_26 
REMARK   23  A    between atoms: C_41  and  C_27 
REMARK   24  A    between atoms: C_42  and  C_28 
REMARK   25  A    between atoms: C_31  and  C_29 
REMARK   26  A    between atoms: C_41  and  C_29 
REMARK   27  A    between atoms: C_32  and  C_30 
REMARK   28  A    between atoms: C_42  and  C_30 
REMARK   29  A    between atoms: O_45  and  C_31 
REMARK   30  A    between atoms: O_46  and  C_32 
REMARK   31  A    between atoms: C_43  and  C_33 
REMARK   32  A    between atoms: O_44  and  C_33 
REMARK   33  A    between atoms: C_43  and  C_34 
REMARK   34  A    between atoms: O_45  and  C_34 
REMARK   35  A    between atoms: C_43  and  O_46 
ROOT
HETATM    1  C   UNK N   1      20.690  20.248   2.445  0.00  0.00     0.168 C 
ENDROOT
BRANCH   1   2
HETATM    2  C   UNK N   1      20.735  21.136   1.214  0.00  0.00     0.198 C 
BRANCH   2   3
HETATM    3  O   UNK N   1      20.624  20.372   0.053  0.00  0.00    -0.398 OA
HETATM    4  H   UNK N   1      21.210  20.167  -0.692  0.00  0.00     0.209 HD
ENDBRANCH   2   3
ENDBRANCH   1   2
BRANCH   1   5
HETATM    5  C   UNK N   1      22.146  20.005   2.849  0.00  0.00     0.201 C 
BRANCH   5   6
HETATM    6  O   UNK N   1      23.022  21.095   2.644  0.00  0.00    -0.389 OA
BRANCH   6   7
HETATM    7  C   UNK N   1      24.288  20.915   3.259  0.00  0.00     0.168 C 
BRANCH   7   8
HETATM    8  C   UNK N   1      25.242  19.900   2.618  0.00  0.00     0.030 C 
BRANCH   8   9
HETATM    9  C   UNK N   1      26.035  19.053   3.608  0.00  0.00    -0.017 C 
HETATM   10  C   UNK N   1      25.094  18.495   4.655  0.00  0.00     0.010 C 
BRANCH   9  11
HETATM   11  C   UNK N   1      27.138  19.909   4.236  0.00  0.00     0.004 C 
BRANCH  11  12
HETATM   12  C   UNK N   1      27.707  19.297   5.515  0.00  0.00     0.001 C 
BRANCH  12  13
HETATM   13  C   UNK N   1      28.826  18.314   5.196  0.00  0.00     0.004 C 
BRANCH  13  14
HETATM   14  C   UNK N   1      28.916  17.193   6.230  0.00  0.00    -0.019 C 
HETATM   15  C   UNK N   1      27.575  16.482   6.388  0.00  0.00     0.010 C 
BRANCH  14  16
HETATM   16  C   UNK N   1      29.406  17.736   7.563  0.00  0.00     0.004 C 
BRANCH  16  17
HETATM   17  C   UNK N   1      30.615  16.979   8.093  0.00  0.00     0.001 C 
BRANCH  17  18
HETATM   18  C   UNK N   1      31.884  17.777   7.819  0.00  0.00     0.004 C 
BRANCH  18  19
HETATM   19  C   UNK N   1      33.156  16.917   7.773  0.00  0.00    -0.019 C 
HETATM   20  C   UNK N   1      33.971  17.056   9.052  0.00  0.00     0.010 C 
BRANCH  19  21
HETATM   21  C   UNK N   1      33.998  17.311   6.565  0.00  0.00     0.004 C 
BRANCH  21  22
HETATM   22  C   UNK N   1      33.178  17.348   5.283  0.00  0.00     0.001 C 
BRANCH  22  23
HETATM   23  C   UNK N   1      33.478  16.119   4.445  0.00  0.00     0.004 C 
BRANCH  23  24
HETATM   24  C   UNK N   1      32.237  15.613   3.729  0.00  0.00    -0.023 C 
HETATM   25  C   UNK N   1      31.548  16.784   3.062  0.00  0.00     0.009 C 
HETATM   26  C   UNK N   1      31.272  14.963   4.704  0.00  0.00     0.009 C 
ENDBRANCH  23  24
ENDBRANCH  22  23
ENDBRANCH  21  22
ENDBRANCH  19  21
ENDBRANCH  18  19
ENDBRANCH  17  18
ENDBRANCH  16  17
ENDBRANCH  14  16
ENDBRANCH  13  14
ENDBRANCH  12  13
ENDBRANCH  11  12
ENDBRANCH   9  11
ENDBRANCH   8   9
ENDBRANCH   7   8
ENDBRANCH   6   7
ENDBRANCH   5   6
ENDBRANCH   1   5
BRANCH   1  27
HETATM   27  O   UNK N   1      20.048  19.043   2.098  0.00  0.00    -0.382 OA
BRANCH  27  28
HETATM   28  C   UNK N   1      20.586  17.995   2.865  0.00  0.00     0.168 C 
BRANCH  28  29
HETATM   29  C   UNK N   1      19.986  16.644   2.465  0.00  0.00     0.030 C 
BRANCH  29  30
HETATM   30  C   UNK N   1      21.040  15.549   2.303  0.00  0.00    -0.017 C 
HETATM   31  C   UNK N   1      21.152  14.713   3.563  0.00  0.00     0.010 C 
BRANCH  30  32
HETATM   32  C   UNK N   1      20.675  14.612   1.157  0.00  0.00     0.004 C 
BRANCH  32  33
HETATM   33  C   UNK N   1      21.083  13.156   1.392  0.00  0.00     0.001 C 
BRANCH  33  34
HETATM   34  C   UNK N   1      22.038  12.602   0.331  0.00  0.00     0.004 C 
BRANCH  34  35
HETATM   35  C   UNK N   1      23.507  12.575   0.761  0.00  0.00    -0.019 C 
HETATM   36  C   UNK N   1      23.576  12.294   2.252  0.00  0.00     0.010 C 
BRANCH  35  37
HETATM   37  C   UNK N   1      24.233  13.871   0.419  0.00  0.00     0.004 C 
BRANCH  37  38
HETATM   38  C   UNK N   1      24.509  14.709   1.655  0.00  0.00     0.001 C 
BRANCH  38  39
HETATM   39  C   UNK N   1      25.886  15.346   1.575  0.00  0.00     0.004 C 
BRANCH  39  40
HETATM   40  C   UNK N   1      26.604  15.419   2.930  0.00  0.00    -0.019 C 
HETATM   41  C   UNK N   1      28.051  15.869   2.777  0.00  0.00     0.010 C 
BRANCH  40  42
HETATM   42  C   UNK N   1      26.554  14.051   3.602  0.00  0.00     0.004 C 
BRANCH  42  43
HETATM   43  C   UNK N   1      27.951  13.480   3.820  0.00  0.00     0.001 C 
BRANCH  43  44
HETATM   44  C   UNK N   1      28.088  12.138   3.132  0.00  0.00     0.004 C 
BRANCH  44  45
HETATM   45  C   UNK N   1      27.880  12.262   1.633  0.00  0.00    -0.023 C 
HETATM   46  C   UNK N   1      26.938  11.170   1.176  0.00  0.00     0.009 C 
HETATM   47  C   UNK N   1      29.196  12.124   0.890  0.00  0.00     0.009 C 
ENDBRANCH  44  45
ENDBRANCH  43  44
ENDBRANCH  42  43
ENDBRANCH  40  42
ENDBRANCH  39  40
ENDBRANCH  38  39
ENDBRANCH  37  38
ENDBRANCH  35  37
ENDBRANCH  34  35
ENDBRANCH  33  34
ENDBRANCH  32  33
ENDBRANCH  30  32
ENDBRANCH  29  30
ENDBRANCH  28  29
ENDBRANCH  27  28
ENDBRANCH   1  27
TORSDOF 35
ENDMDL
MODEL 3
REMARK VINA RESULT:      -5.3      2.242      7.470
REMARK WARNING: 32 MAX_TORS EXCEEDED!!!
REMARK  35 active torsions:
REMARK  status: ('A' for Active; 'I' for Inactive)
REMARK    1  A    between atoms: C_17  and  C_11 
REMARK    2  A    between atoms: C_19  and  C_11 
REMARK    3  A    between atoms: C_18  and  C_12 
REMARK    4  A    between atoms: C_20  and  C_12 
REMARK    5  A    between atoms: C_21  and  C_13 
REMARK    6  A    between atoms: C_23  and  C_13 
REMARK    7  A    between atoms: C_22  and  C_14 
REMARK    8  A    between atoms: C_24  and  C_14 
REMARK    9  A    between atoms: C_25  and  C_15 
REMARK   10  A    between atoms: C_27  and  C_15 
REMARK   11  A    between atoms: C_26  and  C_16 
REMARK   12  A    between atoms: C_28  and  C_16 
REMARK   13  A    between atoms: C_35  and  C_17 
REMARK   14  A    between atoms: C_36  and  C_18 
REMARK   15  A    between atoms: C_37  and  C_19 
REMARK   16  A    between atoms: C_38  and  C_20 
REMARK   17  A    between atoms: C_37  and  C_21 
REMARK   18  A    between atoms: C_38  and  C_22 
REMARK   19  A    between atoms: C_39  and  C_23 
REMARK   20  A    between atoms: C_40  and  C_24 
REMARK   21  A    between atoms: C_39  and  C_25 
REMARK   22  A    between atoms: C_40  and  C_26 
REMARK   23  A    between atoms: C_41  and  C_27 
REMARK   24  A    between atoms: C_42  and  C_28 
REMARK   25  A    between atoms: C_31  and  C_29 
REMARK   26  A    between atoms: C_41  and  C_29 
REMARK   27  A    between atoms: C_32  and  C_30 
REMARK   28  A    between atoms: C_42  and  C_30 
REMARK   29  A    between atoms: O_45  and  C_31 
REMARK   30  A    between atoms: O_46  and  C_32 
REMARK   31  A    between atoms: C_43  and  C_33 
REMARK   32  A    between atoms: O_44  and  C_33 
REMARK   33  A    between atoms: C_43  and  C_34 
REMARK   34  A    between atoms: O_45  and  C_34 
REMARK   35  A    between atoms: C_43  and  O_46 
ROOT
HETATM    1  C   UNK N   1      21.876  20.077   2.542  0.00  0.00     0.168 C 
ENDROOT
BRANCH   1   2
HETATM    2  C   UNK N   1      21.329  20.617   1.232  0.00  0.00     0.198 C 
BRANCH   2   3
HETATM    3  O   UNK N   1      19.937  20.537   1.211  0.00  0.00    -0.398 OA
HETATM    4  H   UNK N   1      19.230  21.005   0.739  0.00  0.00     0.209 HD
ENDBRANCH   2   3
ENDBRANCH   1   2
BRANCH   1   5
HETATM    5  C   UNK N   1      20.671  19.901   3.468  0.00  0.00     0.201 C 
BRANCH   5   6
HETATM    6  O   UNK N   1      20.980  19.647   4.823  0.00  0.00    -0.389 OA
BRANCH   6   7
HETATM    7  C   UNK N   1      21.180  18.270   5.100  0.00  0.00     0.168 C 
BRANCH   7   8
HETATM    8  C   UNK N   1      21.190  17.845   6.574  0.00  0.00     0.030 C 
BRANCH   8   9
HETATM    9  C   UNK N   1      20.688  16.428   6.834  0.00  0.00    -0.017 C 
HETATM   10  C   UNK N   1      19.517  16.135   5.919  0.00  0.00     0.010 C 
BRANCH   9  11
HETATM   11  C   UNK N   1      20.303  16.291   8.309  0.00  0.00     0.004 C 
BRANCH  11  12
HETATM   12  C   UNK N   1      21.074  15.181   9.022  0.00  0.00     0.001 C 
BRANCH  12  13
HETATM   13  C   UNK N   1      20.907  13.851   8.297  0.00  0.00     0.004 C 
BRANCH  13  14
HETATM   14  C   UNK N   1      21.615  12.710   9.024  0.00  0.00    -0.019 C 
HETATM   15  C   UNK N   1      21.324  12.748  10.522  0.00  0.00     0.010 C 
BRANCH  14  16
HETATM   16  C   UNK N   1      23.112  12.754   8.757  0.00  0.00     0.004 C 
BRANCH  16  17
HETATM   17  C   UNK N   1      23.437  12.853   7.274  0.00  0.00     0.001 C 
BRANCH  17  18
HETATM   18  C   UNK N   1      24.298  14.083   7.016  0.00  0.00     0.004 C 
BRANCH  18  19
HETATM   19  C   UNK N   1      24.184  14.626   5.584  0.00  0.00    -0.019 C 
HETATM   20  C   UNK N   1      24.169  16.149   5.562  0.00  0.00     0.010 C 
BRANCH  19  21
HETATM   21  C   UNK N   1      22.923  14.076   4.925  0.00  0.00     0.004 C 
BRANCH  21  22
HETATM   22  C   UNK N   1      22.390  15.006   3.844  0.00  0.00     0.001 C 
BRANCH  22  23
HETATM   23  C   UNK N   1      21.444  14.248   2.934  0.00  0.00     0.004 C 
BRANCH  23  24
HETATM   24  C   UNK N   1      20.272  15.112   2.498  0.00  0.00    -0.023 C 
HETATM   25  C   UNK N   1      19.464  14.353   1.468  0.00  0.00     0.009 C 
HETATM   26  C   UNK N   1      20.754  16.415   1.885  0.00  0.00     0.009 C 
ENDBRANCH  23  24
ENDBRANCH  22  23
ENDBRANCH  21  22
ENDBRANCH  19  21
ENDBRANCH  18  19
ENDBRANCH  17  18
ENDBRANCH  16  17
ENDBRANCH  14  16
ENDBRANCH  13  14
ENDBRANCH  12  13
ENDBRANCH  11  12
ENDBRANCH   9  11
ENDBRANCH   8   9
ENDBRANCH   7   8
ENDBRANCH   6   7
ENDBRANCH   5   6
ENDBRANCH   1   5
BRANCH   1  27
HETATM   27  O   UNK N   1      22.787  21.018   3.063  0.00  0.00    -0.382 OA
BRANCH  27  28
HETATM   28  C   UNK N   1      24.094  20.526   2.916  0.00  0.00     0.168 C 
BRANCH  28  29
HETATM   29  C   UNK N   1      24.597  19.878   4.211  0.00  0.00     0.030 C 
BRANCH  29  30
HETATM   30  C   UNK N   1      26.113  19.976   4.376  0.00  0.00    -0.017 C 
HETATM   31  C   UNK N   1      26.751  20.610   3.155  0.00  0.00     0.010 C 
BRANCH  30  32
HETATM   32  C   UNK N   1      26.471  20.835   5.584  0.00  0.00     0.004 C 
BRANCH  32  33
HETATM   33  C   UNK N   1      27.262  20.089   6.662  0.00  0.00     0.001 C 
BRANCH  33  34
HETATM   34  C   UNK N   1      28.088  18.918   6.123  0.00  0.00     0.004 C 
BRANCH  34  35
HETATM   35  C   UNK N   1      27.852  17.595   6.857  0.00  0.00    -0.019 C 
HETATM   36  C   UNK N   1      28.188  17.782   8.326  0.00  0.00     0.010 C 
BRANCH  35  37
HETATM   37  C   UNK N   1      28.661  16.449   6.256  0.00  0.00     0.004 C 
BRANCH  37  38
HETATM   38  C   UNK N   1      27.804  15.552   5.380  0.00  0.00     0.001 C 
BRANCH  38  39
HETATM   39  C   UNK N   1      28.526  15.221   4.085  0.00  0.00     0.004 C 
BRANCH  39  40
HETATM   40  C   UNK N   1      27.791  15.718   2.833  0.00  0.00    -0.019 C 
HETATM   41  C   UNK N   1      26.650  16.663   3.187  0.00  0.00     0.010 C 
BRANCH  40  42
HETATM   42  C   UNK N   1      27.251  14.522   2.055  0.00  0.00     0.004 C 
BRANCH  42  43
HETATM   43  C   UNK N   1      25.727  14.500   2.044  0.00  0.00     0.001 C 
BRANCH  43  44
HETATM   44  C   UNK N   1      25.216  13.084   2.224  0.00  0.00     0.004 C 
BRANCH  44  45
HETATM   45  C   UNK N   1      24.469  12.607   0.992  0.00  0.00    -0.023 C 
HETATM   46  C   UNK N   1      23.791  13.792   0.340  0.00  0.00     0.009 C 
HETATM   47  C   UNK N   1      23.418  11.577   1.361  0.00  0.00     0.009 C 
ENDBRANCH  44  45
ENDBRANCH  43  44
ENDBRANCH  42  43
ENDBRANCH  40  42
ENDBRANCH  39  40
ENDBRANCH  38  39
ENDBRANCH  37  38
ENDBRANCH  35  37
ENDBRANCH  34  35
ENDBRANCH  33  34
ENDBRANCH  32  33
ENDBRANCH  30  32
ENDBRANCH  29  30
ENDBRANCH  28  29
ENDBRANCH  27  28
ENDBRANCH   1  27
TORSDOF 35
ENDMDL
MODEL 4
REMARK VINA RESULT:      -5.2      3.337      6.233
REMARK WARNING: 32 MAX_TORS EXCEEDED!!!
REMARK  35 active torsions:
REMARK  status: ('A' for Active; 'I' for Inactive)
REMARK    1  A    between atoms: C_17  and  C_11 
REMARK    2  A    between atoms: C_19  and  C_11 
REMARK    3  A    between atoms: C_18  and  C_12 
REMARK    4  A    between atoms: C_20  and  C_12 
REMARK    5  A    between atoms: C_21  and  C_13 
REMARK    6  A    between atoms: C_23  and  C_13 
REMARK    7  A    between atoms: C_22  and  C_14 
REMARK    8  A    between atoms: C_24  and  C_14 
REMARK    9  A    between atoms: C_25  and  C_15 
REMARK   10  A    between atoms: C_27  and  C_15 
REMARK   11  A    between atoms: C_26  and  C_16 
REMARK   12  A    between atoms: C_28  and  C_16 
REMARK   13  A    between atoms: C_35  and  C_17 
REMARK   14  A    between atoms: C_36  and  C_18 
REMARK   15  A    between atoms: C_37  and  C_19 
REMARK   16  A    between atoms: C_38  and  C_20 
REMARK   17  A    between atoms: C_37  and  C_21 
REMARK   18  A    between atoms: C_38  and  C_22 
REMARK   19  A    between atoms: C_39  and  C_23 
REMARK   20  A    between atoms: C_40  and  C_24 
REMARK   21  A    between atoms: C_39  and  C_25 
REMARK   22  A    between atoms: C_40  and  C_26 
REMARK   23  A    between atoms: C_41  and  C_27 
REMARK   24  A    between atoms: C_42  and  C_28 
REMARK   25  A    between atoms: C_31  and  C_29 
REMARK   26  A    between atoms: C_41  and  C_29 
REMARK   27  A    between atoms: C_32  and  C_30 
REMARK   28  A    between atoms: C_42  and  C_30 
REMARK   29  A    between atoms: O_45  and  C_31 
REMARK   30  A    between atoms: O_46  and  C_32 
REMARK   31  A    between atoms: C_43  and  C_33 
REMARK   32  A    between atoms: O_44  and  C_33 
REMARK   33  A    between atoms: C_43  and  C_34 
REMARK   34  A    between atoms: O_45  and  C_34 
REMARK   35  A    between atoms: C_43  and  O_46 
ROOT
HETATM    1  C   UNK N   1      23.406  12.163   9.848  0.00  0.00     0.168 C 
ENDROOT
BRANCH   1   2
HETATM    2  C   UNK N   1      23.796  11.943  11.299  0.00  0.00     0.198 C 
BRANCH   2   3
HETATM    3  O   UNK N   1      25.085  12.419  11.539  0.00  0.00    -0.398 OA
HETATM    4  H   UNK N   1      25.901  12.479  11.018  0.00  0.00     0.209 HD
ENDBRANCH   2   3
ENDBRANCH   1   2
BRANCH   1   5
HETATM    5  C   UNK N   1      24.197  13.384   9.373  0.00  0.00     0.201 C 
BRANCH   5   6
HETATM    6  O   UNK N   1      25.187  13.123   8.400  0.00  0.00    -0.389 OA
BRANCH   6   7
HETATM    7  C   UNK N   1      24.953  13.796   7.172  0.00  0.00     0.168 C 
BRANCH   7   8
HETATM    8  C   UNK N   1      26.167  14.410   6.466  0.00  0.00     0.030 C 
BRANCH   8   9
HETATM    9  C   UNK N   1      25.916  15.775   5.834  0.00  0.00    -0.017 C 
HETATM   10  C   UNK N   1      24.424  16.004   5.710  0.00  0.00     0.010 C 
BRANCH   9  11
HETATM   11  C   UNK N   1      26.614  15.838   4.473  0.00  0.00     0.004 C 
BRANCH  11  12
HETATM   12  C   UNK N   1      25.853  16.688   3.456  0.00  0.00     0.001 C 
BRANCH  12  13
HETATM   13  C   UNK N   1      26.380  18.118   3.441  0.00  0.00     0.004 C 
BRANCH  13  14
HETATM   14  C   UNK N   1      25.316  19.125   3.873  0.00  0.00    -0.019 C 
HETATM   15  C   UNK N   1      25.209  20.275   2.876  0.00  0.00     0.010 C 
BRANCH  14  16
HETATM   16  C   UNK N   1      25.607  19.640   5.274  0.00  0.00     0.004 C 
BRANCH  16  17
HETATM   17  C   UNK N   1      26.676  20.723   5.287  0.00  0.00     0.001 C 
BRANCH  17  18
HETATM   18  C   UNK N   1      27.674  20.448   6.405  0.00  0.00     0.004 C 
BRANCH  18  19
HETATM   19  C   UNK N   1      27.810  18.959   6.758  0.00  0.00    -0.019 C 
HETATM   20  C   UNK N   1      28.108  18.760   8.238  0.00  0.00     0.010 C 
BRANCH  19  21
HETATM   21  C   UNK N   1      28.908  18.329   5.908  0.00  0.00     0.004 C 
BRANCH  21  22
HETATM   22  C   UNK N   1      29.407  17.017   6.499  0.00  0.00     0.001 C 
BRANCH  22  23
HETATM   23  C   UNK N   1      30.408  16.376   5.558  0.00  0.00     0.004 C 
BRANCH  23  24
HETATM   24  C   UNK N   1      30.569  17.181   4.278  0.00  0.00    -0.023 C 
HETATM   25  C   UNK N   1      30.073  16.350   3.115  0.00  0.00     0.009 C 
HETATM   26  C   UNK N   1      32.024  17.542   4.041  0.00  0.00     0.009 C 
ENDBRANCH  23  24
ENDBRANCH  22  23
ENDBRANCH  21  22
ENDBRANCH  19  21
ENDBRANCH  18  19
ENDBRANCH  17  18
ENDBRANCH  16  17
ENDBRANCH  14  16
ENDBRANCH  13  14
ENDBRANCH  12  13
ENDBRANCH  11  12
ENDBRANCH   9  11
ENDBRANCH   8   9
ENDBRANCH   7   8
ENDBRANCH   6   7
ENDBRANCH   5   6
ENDBRANCH   1   5
BRANCH   1  27
HETATM   27  O   UNK N   1      22.018  12.400   9.794  0.00  0.00    -0.382 OA
BRANCH  27  28
HETATM   28  C   UNK N   1      21.785  13.785   9.819  0.00  0.00     0.168 C 
BRANCH  28  29
HETATM   29  C   UNK N   1      20.717  14.192   8.799  0.00  0.00     0.030 C 
BRANCH  29  30
HETATM   30  C   UNK N   1      21.287  14.998   7.631  0.00  0.00    -0.017 C 
HETATM   31  C   UNK N   1      21.268  14.185   6.351  0.00  0.00     0.010 C 
BRANCH  30  32
HETATM   32  C   UNK N   1      20.463  16.258   7.391  0.00  0.00     0.004 C 
BRANCH  32  33
HETATM   33  C   UNK N   1      21.230  17.373   6.674  0.00  0.00     0.001 C 
BRANCH  33  34
HETATM   34  C   UNK N   1      20.669  17.719   5.292  0.00  0.00     0.004 C 
BRANCH  34  35
HETATM   35  C   UNK N   1      21.720  18.215   4.295  0.00  0.00    -0.019 C 
HETATM   36  C   UNK N   1      21.159  19.413   3.548  0.00  0.00     0.010 C 
BRANCH  35  37
HETATM   37  C   UNK N   1      22.155  17.123   3.323  0.00  0.00     0.004 C 
BRANCH  37  38
HETATM   38  C   UNK N   1      21.062  16.092   3.106  0.00  0.00     0.001 C 
BRANCH  38  39
HETATM   39  C   UNK N   1      20.970  15.709   1.638  0.00  0.00     0.004 C 
BRANCH  39  40
HETATM   40  C   UNK N   1      21.482  14.293   1.344  0.00  0.00    -0.019 C 
HETATM   41  C   UNK N   1      21.320  13.373   2.547  0.00  0.00     0.010 C 
BRANCH  40  42
HETATM   42  C   UNK N   1      22.950  14.361   0.937  0.00  0.00     0.004 C 
BRANCH  42  43
HETATM   43  C   UNK N   1      23.875  14.102   2.121  0.00  0.00     0.001 C 
BRANCH  43  44
HETATM   44  C   UNK N   1      25.166  13.461   1.655  0.00  0.00     0.004 C 
BRANCH  44  45
HETATM   45  C   UNK N   1      25.394  12.122   2.333  0.00  0.00    -0.023 C 
HETATM   46  C   UNK N   1      24.663  11.048   1.558  0.00  0.00     0.009 C 
HETATM   47  C   UNK N   1      24.876  12.143   3.759  0.00  0.00     0.009 C 
ENDBRANCH  44  45
ENDBRANCH  43  44
ENDBRANCH  42  43
ENDBRANCH  40  42
ENDBRANCH  39  40
ENDBRANCH  38  39
ENDBRANCH  37  38
ENDBRANCH  35  37
ENDBRANCH  34  35
ENDBRANCH  33  34
ENDBRANCH  32  33
ENDBRANCH  30  32
ENDBRANCH  29  30
ENDBRANCH  28  29
ENDBRANCH  27  28
ENDBRANCH   1  27
TORSDOF 35
ENDMDL
MODEL 5
REMARK VINA RESULT:      -5.2      2.641      8.088
REMARK WARNING: 32 MAX_TORS EXCEEDED!!!
REMARK  35 active torsions:
REMARK  status: ('A' for Active; 'I' for Inactive)
REMARK    1  A    between atoms: C_17  and  C_11 
REMARK    2  A    between atoms: C_19  and  C_11 
REMARK    3  A    between atoms: C_18  and  C_12 
REMARK    4  A    between atoms: C_20  and  C_12 
REMARK    5  A    between atoms: C_21  and  C_13 
REMARK    6  A    between atoms: C_23  and  C_13 
REMARK    7  A    between atoms: C_22  and  C_14 
REMARK    8  A    between atoms: C_24  and  C_14 
REMARK    9  A    between atoms: C_25  and  C_15 
REMARK   10  A    between atoms: C_27  and  C_15 
REMARK   11  A    between atoms: C_26  and  C_16 
REMARK   12  A    between atoms: C_28  and  C_16 
REMARK   13  A    between atoms: C_35  and  C_17 
REMARK   14  A    between atoms: C_36  and  C_18 
REMARK   15  A    between atoms: C_37  and  C_19 
REMARK   16  A    between atoms: C_38  and  C_20 
REMARK   17  A    between atoms: C_37  and  C_21 
REMARK   18  A    between atoms: C_38  and  C_22 
REMARK   19  A    between atoms: C_39  and  C_23 
REMARK   20  A    between atoms: C_40  and  C_24 
REMARK   21  A    between atoms: C_39  and  C_25 
REMARK   22  A    between atoms: C_40  and  C_26 
REMARK   23  A    between atoms: C_41  and  C_27 
REMARK   24  A    between atoms: C_42  and  C_28 
REMARK   25  A    between atoms: C_31  and  C_29 
REMARK   26  A    between atoms: C_41  and  C_29 
REMARK   27  A    between atoms: C_32  and  C_30 
REMARK   28  A    between atoms: C_42  and  C_30 
REMARK   29  A    between atoms: O_45  and  C_31 
REMARK   30  A    between atoms: O_46  and  C_32 
REMARK   31  A    between atoms: C_43  and  C_33 
REMARK   32  A    between atoms: O_44  and  C_33 
REMARK   33  A    between atoms: C_43  and  C_34 
REMARK   34  A    between atoms: O_45  and  C_34 
REMARK   35  A    between atoms: C_43  and  O_46 
ROOT
HETATM    1  C   UNK N   1      20.919  19.619   2.339  0.00  0.00     0.168 C 
ENDROOT
BRANCH   1   2
HETATM    2  C   UNK N   1      20.912  20.725   1.297  0.00  0.00     0.198 C 
BRANCH   2   3
HETATM    3  O   UNK N   1      20.622  20.209   0.035  0.00  0.00    -0.398 OA
HETATM    4  H   UNK N   1      20.576  20.576  -0.862  0.00  0.00     0.209 HD
ENDBRANCH   2   3
ENDBRANCH   1   2
BRANCH   1   5
HETATM    5  C   UNK N   1      19.455  19.241   2.570  0.00  0.00     0.201 C 
BRANCH   5   6
HETATM    6  O   UNK N   1      19.116  17.907   2.253  0.00  0.00    -0.389 OA
BRANCH   6   7
HETATM    7  C   UNK N   1      20.199  17.173   1.702  0.00  0.00     0.168 C 
BRANCH   7   8
HETATM    8  C   UNK N   1      19.863  16.115   0.644  0.00  0.00     0.030 C 
BRANCH   8   9
HETATM    9  C   UNK N   1      20.271  14.692   1.011  0.00  0.00    -0.017 C 
HETATM   10  C   UNK N   1      19.188  13.729   0.571  0.00  0.00     0.010 C 
BRANCH   9  11
HETATM   11  C   UNK N   1      20.522  14.611   2.519  0.00  0.00     0.004 C 
BRANCH  11  12
HETATM   12  C   UNK N   1      21.930  14.123   2.860  0.00  0.00     0.001 C 
BRANCH  12  13
HETATM   13  C   UNK N   1      22.983  14.967   2.155  0.00  0.00     0.004 C 
BRANCH  13  14
HETATM   14  C   UNK N   1      24.092  14.109   1.547  0.00  0.00    -0.019 C 
HETATM   15  C   UNK N   1      25.388  14.902   1.408  0.00  0.00     0.010 C 
BRANCH  14  16
HETATM   16  C   UNK N   1      23.652  13.540   0.208  0.00  0.00     0.004 C 
BRANCH  16  17
HETATM   17  C   UNK N   1      23.777  12.025   0.147  0.00  0.00     0.001 C 
BRANCH  17  18
HETATM   18  C   UNK N   1      22.409  11.387   0.359  0.00  0.00     0.004 C 
BRANCH  18  19
HETATM   19  C   UNK N   1      22.159  10.930   1.805  0.00  0.00    -0.019 C 
HETATM   20  C   UNK N   1      22.924   9.654   2.129  0.00  0.00     0.010 C 
BRANCH  19  21
HETATM   21  C   UNK N   1      20.665  10.722   2.025  0.00  0.00     0.004 C 
BRANCH  21  22
HETATM   22  C   UNK N   1      20.365  10.144   3.402  0.00  0.00     0.001 C 
BRANCH  22  23
HETATM   23  C   UNK N   1      19.724  11.204   4.276  0.00  0.00     0.004 C 
BRANCH  23  24
HETATM   24  C   UNK N   1      20.369  11.261   5.651  0.00  0.00    -0.023 C 
HETATM   25  C   UNK N   1      20.702  12.702   5.974  0.00  0.00     0.009 C 
HETATM   26  C   UNK N   1      21.645  10.440   5.689  0.00  0.00     0.009 C 
ENDBRANCH  23  24
ENDBRANCH  22  23
ENDBRANCH  21  22
ENDBRANCH  19  21
ENDBRANCH  18  19
ENDBRANCH  17  18
ENDBRANCH  16  17
ENDBRANCH  14  16
ENDBRANCH  13  14
ENDBRANCH  12  13
ENDBRANCH  11  12
ENDBRANCH   9  11
ENDBRANCH   8   9
ENDBRANCH   7   8
ENDBRANCH   6   7
ENDBRANCH   5   6
ENDBRANCH   1   5
BRANCH   1  27
HETATM   27  O   UNK N   1      21.509  20.123   3.516  0.00  0.00    -0.382 OA
BRANCH  27  28
HETATM   28  C   UNK N   1      21.352  19.185   4.550  0.00  0.00     0.168 C 
BRANCH  28  29
HETATM   29  C   UNK N   1      22.476  18.144   4.536  0.00  0.00     0.030 C 
BRANCH  29  30
HETATM   30  C   UNK N   1      22.364  17.133   5.677  0.00  0.00    -0.017 C 
HETATM   31  C   UNK N   1      20.997  16.477   5.688  0.00  0.00     0.010 C 
BRANCH  30  32
HETATM   32  C   UNK N   1      23.406  16.030   5.527  0.00  0.00     0.004 C 
BRANCH  32  33
HETATM   33  C   UNK N   1      23.455  15.058   6.709  0.00  0.00     0.001 C 
BRANCH  33  34
HETATM   34  C   UNK N   1      24.471  13.925   6.536  0.00  0.00     0.004 C 
BRANCH  34  35
HETATM   35  C   UNK N   1      24.934  13.713   5.092  0.00  0.00    -0.019 C 
HETATM   36  C   UNK N   1      24.624  12.285   4.681  0.00  0.00     0.010 C 
BRANCH  35  37
HETATM   37  C   UNK N   1      26.417  14.021   4.910  0.00  0.00     0.004 C 
BRANCH  37  38
HETATM   38  C   UNK N   1      26.959  14.876   6.043  0.00  0.00     0.001 C 
BRANCH  38  39
HETATM   39  C   UNK N   1      27.632  16.124   5.497  0.00  0.00     0.004 C 
BRANCH  39  40
HETATM   40  C   UNK N   1      27.352  16.366   4.007  0.00  0.00    -0.019 C 
HETATM   41  C   UNK N   1      28.639  16.551   3.214  0.00  0.00     0.010 C 
BRANCH  40  42
HETATM   42  C   UNK N   1      26.465  17.596   3.853  0.00  0.00     0.004 C 
BRANCH  42  43
HETATM   43  C   UNK N   1      26.197  18.268   5.195  0.00  0.00     0.001 C 
BRANCH  43  44
HETATM   44  C   UNK N   1      26.346  19.771   5.075  0.00  0.00     0.004 C 
BRANCH  44  45
HETATM   45  C   UNK N   1      26.781  20.390   6.391  0.00  0.00    -0.023 C 
HETATM   46  C   UNK N   1      27.291  21.791   6.130  0.00  0.00     0.009 C 
HETATM   47  C   UNK N   1      27.887  19.572   7.034  0.00  0.00     0.009 C 
ENDBRANCH  44  45
ENDBRANCH  43  44
ENDBRANCH  42  43
ENDBRANCH  40  42
ENDBRANCH  39  40
ENDBRANCH  38  39
ENDBRANCH  37  38
ENDBRANCH  35  37
ENDBRANCH  34  35
ENDBRANCH  33  34
ENDBRANCH  32  33
ENDBRANCH  30  32
ENDBRANCH  29  30
ENDBRANCH  28  29
ENDBRANCH  27  28
ENDBRANCH   1  27
TORSDOF 35
ENDMDL
MODEL 6
REMARK VINA RESULT:      -5.2      1.745      3.579
REMARK WARNING: 32 MAX_TORS EXCEEDED!!!
REMARK  35 active torsions:
REMARK  status: ('A' for Active; 'I' for Inactive)
REMARK    1  A    between atoms: C_17  and  C_11 
REMARK    2  A    between atoms: C_19  and  C_11 
REMARK    3  A    between atoms: C_18  and  C_12 
REMARK    4  A    between atoms: C_20  and  C_12 
REMARK    5  A    between atoms: C_21  and  C_13 
REMARK    6  A    between atoms: C_23  and  C_13 
REMARK    7  A    between atoms: C_22  and  C_14 
REMARK    8  A    between atoms: C_24  and  C_14 
REMARK    9  A    between atoms: C_25  and  C_15 
REMARK   10  A    between atoms: C_27  and  C_15 
REMARK   11  A    between atoms: C_26  and  C_16 
REMARK   12  A    between atoms: C_28  and  C_16 
REMARK   13  A    between atoms: C_35  and  C_17 
REMARK   14  A    between atoms: C_36  and  C_18 
REMARK   15  A    between atoms: C_37  and  C_19 
REMARK   16  A    between atoms: C_38  and  C_20 
REMARK   17  A    between atoms: C_37  and  C_21 
REMARK   18  A    between atoms: C_38  and  C_22 
REMARK   19  A    between atoms: C_39  and  C_23 
REMARK   20  A    between atoms: C_40  and  C_24 
REMARK   21  A    between atoms: C_39  and  C_25 
REMARK   22  A    between atoms: C_40  and  C_26 
REMARK   23  A    between atoms: C_41  and  C_27 
REMARK   24  A    between atoms: C_42  and  C_28 
REMARK   25  A    between atoms: C_31  and  C_29 
REMARK   26  A    between atoms: C_41  and  C_29 
REMARK   27  A    between atoms: C_32  and  C_30 
REMARK   28  A    between atoms: C_42  and  C_30 
REMARK   29  A    between atoms: O_45  and  C_31 
REMARK   30  A    between atoms: O_46  and  C_32 
REMARK   31  A    between atoms: C_43  and  C_33 
REMARK   32  A    between atoms: O_44  and  C_33 
REMARK   33  A    between atoms: C_43  and  C_34 
REMARK   34  A    between atoms: O_45  and  C_34 
REMARK   35  A    between atoms: C_43  and  O_46 
ROOT
HETATM    1  C   UNK N   1      21.442  20.843   2.907  0.00  0.00     0.168 C 
ENDROOT
BRANCH   1   2
HETATM    2  C   UNK N   1      20.708  20.614   1.597  0.00  0.00     0.198 C 
BRANCH   2   3
HETATM    3  O   UNK N   1      21.571  20.785   0.514  0.00  0.00    -0.398 OA
HETATM    4  H   UNK N   1      22.200  21.471   0.241  0.00  0.00     0.209 HD
ENDBRANCH   2   3
ENDBRANCH   1   2
BRANCH   1   5
HETATM    5  C   UNK N   1      22.812  20.179   2.751  0.00  0.00     0.201 C 
BRANCH   5   6
HETATM    6  O   UNK N   1      23.911  21.065   2.692  0.00  0.00    -0.389 OA
BRANCH   6   7
HETATM    7  C   UNK N   1      25.155  20.426   2.938  0.00  0.00     0.168 C 
BRANCH   7   8
HETATM    8  C   UNK N   1      25.144  19.201   3.860  0.00  0.00     0.030 C 
BRANCH   8   9
HETATM    9  C   UNK N   1      26.182  19.234   4.978  0.00  0.00    -0.017 C 
HETATM   10  C   UNK N   1      26.229  20.623   5.579  0.00  0.00     0.010 C 
BRANCH   9  11
HETATM   11  C   UNK N   1      27.542  18.813   4.417  0.00  0.00     0.004 C 
BRANCH  11  12
HETATM   12  C   UNK N   1      28.554  18.472   5.510  0.00  0.00     0.001 C 
BRANCH  12  13
HETATM   13  C   UNK N   1      28.107  17.251   6.304  0.00  0.00     0.004 C 
BRANCH  13  14
HETATM   14  C   UNK N   1      28.713  17.226   7.706  0.00  0.00    -0.019 C 
HETATM   15  C   UNK N   1      27.631  17.066   8.770  0.00  0.00     0.010 C 
BRANCH  14  16
HETATM   16  C   UNK N   1      29.540  18.478   7.951  0.00  0.00     0.004 C 
BRANCH  16  17
HETATM   17  C   UNK N   1      30.820  18.191   8.722  0.00  0.00     0.001 C 
BRANCH  17  18
HETATM   18  C   UNK N   1      31.287  16.769   8.433  0.00  0.00     0.004 C 
BRANCH  18  19
HETATM   19  C   UNK N   1      32.530  16.699   7.532  0.00  0.00    -0.019 C 
HETATM   20  C   UNK N   1      33.313  18.005   7.557  0.00  0.00     0.010 C 
BRANCH  19  21
HETATM   21  C   UNK N   1      32.111  16.362   6.105  0.00  0.00     0.004 C 
BRANCH  21  22
HETATM   22  C   UNK N   1      32.456  17.478   5.128  0.00  0.00     0.001 C 
BRANCH  22  23
HETATM   23  C   UNK N   1      32.063  17.070   3.722  0.00  0.00     0.004 C 
BRANCH  23  24
HETATM   24  C   UNK N   1      31.098  15.896   3.727  0.00  0.00    -0.023 C 
HETATM   25  C   UNK N   1      31.778  14.704   3.088  0.00  0.00     0.009 C 
HETATM   26  C   UNK N   1      29.838  16.223   2.946  0.00  0.00     0.009 C 
ENDBRANCH  23  24
ENDBRANCH  22  23
ENDBRANCH  21  22
ENDBRANCH  19  21
ENDBRANCH  18  19
ENDBRANCH  17  18
ENDBRANCH  16  17
ENDBRANCH  14  16
ENDBRANCH  13  14
ENDBRANCH  12  13
ENDBRANCH  11  12
ENDBRANCH   9  11
ENDBRANCH   8   9
ENDBRANCH   7   8
ENDBRANCH   6   7
ENDBRANCH   5   6
ENDBRANCH   1   5
BRANCH   1  27
HETATM   27  O   UNK N   1      20.698  20.242   3.942  0.00  0.00    -0.382 OA
BRANCH  27  28
HETATM   28  C   UNK N   1      20.837  18.846   3.862  0.00  0.00     0.168 C 
BRANCH  28  29
HETATM   29  C   UNK N   1      21.325  18.255   5.188  0.00  0.00     0.030 C 
BRANCH  29  30
HETATM   30  C   UNK N   1      21.796  16.807   5.056  0.00  0.00    -0.017 C 
HETATM   31  C   UNK N   1      22.442  16.568   3.705  0.00  0.00     0.010 C 
BRANCH  30  32
HETATM   32  C   UNK N   1      22.828  16.474   6.128  0.00  0.00     0.004 C 
BRANCH  32  33
HETATM   33  C   UNK N   1      24.096  15.811   5.584  0.00  0.00     0.001 C 
BRANCH  33  34
HETATM   34  C   UNK N   1      25.066  15.345   6.673  0.00  0.00     0.004 C 
BRANCH  34  35
HETATM   35  C   UNK N   1      25.386  13.848   6.628  0.00  0.00    -0.019 C 
HETATM   36  C   UNK N   1      24.835  13.267   5.338  0.00  0.00     0.010 C 
BRANCH  35  37
HETATM   37  C   UNK N   1      24.834  13.104   7.839  0.00  0.00     0.004 C 
BRANCH  37  38
HETATM   38  C   UNK N   1      24.053  11.866   7.434  0.00  0.00     0.001 C 
BRANCH  38  39
HETATM   39  C   UNK N   1      22.658  11.892   8.036  0.00  0.00     0.004 C 
BRANCH  39  40
HETATM   40  C   UNK N   1      22.216  13.290   8.490  0.00  0.00    -0.019 C 
HETATM   41  C   UNK N   1      21.689  13.278   9.919  0.00  0.00     0.010 C 
BRANCH  40  42
HETATM   42  C   UNK N   1      21.140  13.811   7.544  0.00  0.00     0.004 C 
BRANCH  42  43
HETATM   43  C   UNK N   1      20.782  12.783   6.477  0.00  0.00     0.001 C 
BRANCH  43  44
HETATM   44  C   UNK N   1      21.268  13.239   5.117  0.00  0.00     0.004 C 
BRANCH  44  45
HETATM   45  C   UNK N   1      20.131  13.284   4.111  0.00  0.00    -0.023 C 
HETATM   46  C   UNK N   1      19.000  14.110   4.686  0.00  0.00     0.009 C 
HETATM   47  C   UNK N   1      19.620  11.887   3.810  0.00  0.00     0.009 C 
ENDBRANCH  44  45
ENDBRANCH  43  44
ENDBRANCH  42  43
ENDBRANCH  40  42
ENDBRANCH  39  40
ENDBRANCH  38  39
ENDBRANCH  37  38
ENDBRANCH  35  37
ENDBRANCH  34  35
ENDBRANCH  33  34
ENDBRANCH  32  33
ENDBRANCH  30  32
ENDBRANCH  29  30
ENDBRANCH  28  29
ENDBRANCH  27  28
ENDBRANCH   1  27
TORSDOF 35
ENDMDL
MODEL 7
REMARK VINA RESULT:      -5.1      3.647      7.126
REMARK WARNING: 32 MAX_TORS EXCEEDED!!!
REMARK  35 active torsions:
REMARK  status: ('A' for Active; 'I' for Inactive)
REMARK    1  A    between atoms: C_17  and  C_11 
REMARK    2  A    between atoms: C_19  and  C_11 
REMARK    3  A    between atoms: C_18  and  C_12 
REMARK    4  A    between atoms: C_20  and  C_12 
REMARK    5  A    between atoms: C_21  and  C_13 
REMARK    6  A    between atoms: C_23  and  C_13 
REMARK    7  A    between atoms: C_22  and  C_14 
REMARK    8  A    between atoms: C_24  and  C_14 
REMARK    9  A    between atoms: C_25  and  C_15 
REMARK   10  A    between atoms: C_27  and  C_15 
REMARK   11  A    between atoms: C_26  and  C_16 
REMARK   12  A    between atoms: C_28  and  C_16 
REMARK   13  A    between atoms: C_35  and  C_17 
REMARK   14  A    between atoms: C_36  and  C_18 
REMARK   15  A    between atoms: C_37  and  C_19 
REMARK   16  A    between atoms: C_38  and  C_20 
REMARK   17  A    between atoms: C_37  and  C_21 
REMARK   18  A    between atoms: C_38  and  C_22 
REMARK   19  A    between atoms: C_39  and  C_23 
REMARK   20  A    between atoms: C_40  and  C_24 
REMARK   21  A    between atoms: C_39  and  C_25 
REMARK   22  A    between atoms: C_40  and  C_26 
REMARK   23  A    between atoms: C_41  and  C_27 
REMARK   24  A    between atoms: C_42  and  C_28 
REMARK   25  A    between atoms: C_31  and  C_29 
REMARK   26  A    between atoms: C_41  and  C_29 
REMARK   27  A    between atoms: C_32  and  C_30 
REMARK   28  A    between atoms: C_42  and  C_30 
REMARK   29  A    between atoms: O_45  and  C_31 
REMARK   30  A    between atoms: O_46  and  C_32 
REMARK   31  A    between atoms: C_43  and  C_33 
REMARK   32  A    between atoms: O_44  and  C_33 
REMARK   33  A    between atoms: C_43  and  C_34 
REMARK   34  A    between atoms: O_45  and  C_34 
REMARK   35  A    between atoms: C_43  and  O_46 
ROOT
HETATM    1  C   UNK N   1      21.342  12.458  10.256  0.00  0.00     0.168 C 
ENDROOT
BRANCH   1   2
HETATM    2  C   UNK N   1      21.120  12.045  11.701  0.00  0.00     0.198 C 
BRANCH   2   3
HETATM    3  O   UNK N   1      22.337  11.776  12.327  0.00  0.00    -0.398 OA
HETATM    4  H   UNK N   1      22.796  12.120  13.110  0.00  0.00     0.209 HD
ENDBRANCH   2   3
ENDBRANCH   1   2
BRANCH   1   5
HETATM    5  C   UNK N   1      22.738  13.081  10.200  0.00  0.00     0.201 C 
BRANCH   5   6
HETATM    6  O   UNK N   1      23.774  12.209   9.798  0.00  0.00    -0.389 OA
BRANCH   6   7
HETATM    7  C   UNK N   1      23.810  11.994   8.395  0.00  0.00     0.168 C 
BRANCH   7   8
HETATM    8  C   UNK N   1      23.715  13.231   7.494  0.00  0.00     0.030 C 
BRANCH   8   9
HETATM    9  C   UNK N   1      22.824  13.061   6.268  0.00  0.00    -0.017 C 
HETATM   10  C   UNK N   1      21.760  12.024   6.560  0.00  0.00     0.010 C 
BRANCH   9  11
HETATM   11  C   UNK N   1      23.686  12.664   5.067  0.00  0.00     0.004 C 
BRANCH  11  12
HETATM   12  C   UNK N   1      24.387  13.858   4.420  0.00  0.00     0.001 C 
BRANCH  12  13
HETATM   13  C   UNK N   1      25.878  13.848   4.735  0.00  0.00     0.004 C 
BRANCH  13  14
HETATM   14  C   UNK N   1      26.411  15.251   5.021  0.00  0.00    -0.019 C 
HETATM   15  C   UNK N   1      26.261  15.606   6.497  0.00  0.00     0.010 C 
BRANCH  14  16
HETATM   16  C   UNK N   1      25.716  16.276   4.139  0.00  0.00     0.004 C 
BRANCH  16  17
HETATM   17  C   UNK N   1      26.678  16.981   3.193  0.00  0.00     0.001 C 
BRANCH  17  18
HETATM   18  C   UNK N   1      27.250  18.220   3.871  0.00  0.00     0.004 C 
BRANCH  18  19
HETATM   19  C   UNK N   1      26.181  19.240   4.293  0.00  0.00    -0.019 C 
HETATM   20  C   UNK N   1      25.998  20.326   3.242  0.00  0.00     0.010 C 
BRANCH  19  21
HETATM   21  C   UNK N   1      26.565  19.860   5.633  0.00  0.00     0.004 C 
BRANCH  21  22
HETATM   22  C   UNK N   1      27.893  19.325   6.151  0.00  0.00     0.001 C 
BRANCH  22  23
HETATM   23  C   UNK N   1      27.880  19.296   7.667  0.00  0.00     0.004 C 
BRANCH  23  24
HETATM   24  C   UNK N   1      28.600  18.072   8.210  0.00  0.00    -0.023 C 
HETATM   25  C   UNK N   1      29.467  18.496   9.376  0.00  0.00     0.009 C 
HETATM   26  C   UNK N   1      29.478  17.440   7.146  0.00  0.00     0.009 C 
ENDBRANCH  23  24
ENDBRANCH  22  23
ENDBRANCH  21  22
ENDBRANCH  19  21
ENDBRANCH  18  19
ENDBRANCH  17  18
ENDBRANCH  16  17
ENDBRANCH  14  16
ENDBRANCH  13  14
ENDBRANCH  12  13
ENDBRANCH  11  12
ENDBRANCH   9  11
ENDBRANCH   8   9
ENDBRANCH   7   8
ENDBRANCH   6   7
ENDBRANCH   5   6
ENDBRANCH   1   5
BRANCH   1  27
HETATM   27  O   UNK N   1      20.349  13.396   9.907  0.00  0.00    -0.382 OA
BRANCH  27  28
HETATM   28  C   UNK N   1      20.965  14.598   9.520  0.00  0.00     0.168 C 
BRANCH  28  29
HETATM   29  C   UNK N   1      20.061  15.417   8.593  0.00  0.00     0.030 C 
BRANCH  29  30
HETATM   30  C   UNK N   1      20.630  15.557   7.181  0.00  0.00    -0.017 C 
HETATM   31  C   UNK N   1      19.519  15.577   6.148  0.00  0.00     0.010 C 
BRANCH  30  32
HETATM   32  C   UNK N   1      21.416  16.856   7.041  0.00  0.00     0.004 C 
BRANCH  32  33
HETATM   33  C   UNK N   1      22.554  16.786   6.020  0.00  0.00     0.001 C 
BRANCH  33  34
HETATM   34  C   UNK N   1      22.710  18.055   5.178  0.00  0.00     0.004 C 
BRANCH  34  35
HETATM   35  C   UNK N   1      22.167  17.932   3.751  0.00  0.00    -0.019 C 
HETATM   36  C   UNK N   1      20.709  18.354   3.743  0.00  0.00     0.010 C 
BRANCH  35  37
HETATM   37  C   UNK N   1      22.329  16.522   3.192  0.00  0.00     0.004 C 
BRANCH  37  38
HETATM   38  C   UNK N   1      20.995  15.917   2.791  0.00  0.00     0.001 C 
BRANCH  38  39
HETATM   39  C   UNK N   1      20.993  15.554   1.316  0.00  0.00     0.004 C 
BRANCH  39  40
HETATM   40  C   UNK N   1      21.362  14.089   1.048  0.00  0.00    -0.019 C 
HETATM   41  C   UNK N   1      20.984  13.189   2.219  0.00  0.00     0.010 C 
BRANCH  40  42
HETATM   42  C   UNK N   1      22.859  13.985   0.777  0.00  0.00     0.004 C 
BRANCH  42  43
HETATM   43  C   UNK N   1      23.303  12.536   0.618  0.00  0.00     0.001 C 
BRANCH  43  44
HETATM   44  C   UNK N   1      24.784  12.401   0.906  0.00  0.00     0.004 C 
BRANCH  44  45
HETATM   45  C   UNK N   1      25.057  11.259   1.869  0.00  0.00    -0.023 C 
HETATM   46  C   UNK N   1      26.165  10.396   1.306  0.00  0.00     0.009 C 
HETATM   47  C   UNK N   1      23.816  10.407   2.064  0.00  0.00     0.009 C 
ENDBRANCH  44  45
ENDBRANCH  43  44
ENDBRANCH  42  43
ENDBRANCH  40  42
ENDBRANCH  39  40
ENDBRANCH  38  39
ENDBRANCH  37  38
ENDBRANCH  35  37
ENDBRANCH  34  35
ENDBRANCH  33  34
ENDBRANCH  32  33
ENDBRANCH  30  32
ENDBRANCH  29  30
ENDBRANCH  28  29
ENDBRANCH  27  28
ENDBRANCH   1  27
TORSDOF 35
ENDMDL
MODEL 8
REMARK VINA RESULT:      -5.1     11.366     15.458
REMARK WARNING: 32 MAX_TORS EXCEEDED!!!
REMARK  35 active torsions:
REMARK  status: ('A' for Active; 'I' for Inactive)
REMARK    1  A    between atoms: C_17  and  C_11 
REMARK    2  A    between atoms: C_19  and  C_11 
REMARK    3  A    between atoms: C_18  and  C_12 
REMARK    4  A    between atoms: C_20  and  C_12 
REMARK    5  A    between atoms: C_21  and  C_13 
REMARK    6  A    between atoms: C_23  and  C_13 
REMARK    7  A    between atoms: C_22  and  C_14 
REMARK    8  A    between atoms: C_24  and  C_14 
REMARK    9  A    between atoms: C_25  and  C_15 
REMARK   10  A    between atoms: C_27  and  C_15 
REMARK   11  A    between atoms: C_26  and  C_16 
REMARK   12  A    between atoms: C_28  and  C_16 
REMARK   13  A    between atoms: C_35  and  C_17 
REMARK   14  A    between atoms: C_36  and  C_18 
REMARK   15  A    between atoms: C_37  and  C_19 
REMARK   16  A    between atoms: C_38  and  C_20 
REMARK   17  A    between atoms: C_37  and  C_21 
REMARK   18  A    between atoms: C_38  and  C_22 
REMARK   19  A    between atoms: C_39  and  C_23 
REMARK   20  A    between atoms: C_40  and  C_24 
REMARK   21  A    between atoms: C_39  and  C_25 
REMARK   22  A    between atoms: C_40  and  C_26 
REMARK   23  A    between atoms: C_41  and  C_27 
REMARK   24  A    between atoms: C_42  and  C_28 
REMARK   25  A    between atoms: C_31  and  C_29 
REMARK   26  A    between atoms: C_41  and  C_29 
REMARK   27  A    between atoms: C_32  and  C_30 
REMARK   28  A    between atoms: C_42  and  C_30 
REMARK   29  A    between atoms: O_45  and  C_31 
REMARK   30  A    between atoms: O_46  and  C_32 
REMARK   31  A    between atoms: C_43  and  C_33 
REMARK   32  A    between atoms: O_44  and  C_33 
REMARK   33  A    between atoms: C_43  and  C_34 
REMARK   34  A    between atoms: O_45  and  C_34 
REMARK   35  A    between atoms: C_43  and  O_46 
ROOT
HETATM    1  C   UNK N   1      28.806  30.342  -1.119  0.00  0.00     0.168 C 
ENDROOT
BRANCH   1   2
HETATM    2  C   UNK N   1      28.151  30.509   0.242  0.00  0.00     0.198 C 
BRANCH   2   3
HETATM    3  O   UNK N   1      28.935  29.928   1.238  0.00  0.00    -0.398 OA
HETATM    4  H   UNK N   1      29.152  30.151   2.157  0.00  0.00     0.209 HD
ENDBRANCH   2   3
ENDBRANCH   1   2
BRANCH   1   5
HETATM    5  C   UNK N   1      27.853  29.478  -1.947  0.00  0.00     0.201 C 
BRANCH   5   6
HETATM    6  O   UNK N   1      26.790  30.171  -2.568  0.00  0.00    -0.389 OA
BRANCH   6   7
HETATM    7  C   UNK N   1      26.323  29.535  -3.748  0.00  0.00     0.168 C 
BRANCH   7   8
HETATM    8  C   UNK N   1      25.845  28.083  -3.620  0.00  0.00     0.030 C 
BRANCH   8   9
HETATM    9  C   UNK N   1      25.824  27.299  -4.928  0.00  0.00    -0.017 C 
HETATM   10  C   UNK N   1      24.479  27.480  -5.599  0.00  0.00     0.010 C 
BRANCH   9  11
HETATM   11  C   UNK N   1      26.120  25.826  -4.638  0.00  0.00     0.004 C 
BRANCH  11  12
HETATM   12  C   UNK N   1      25.669  24.898  -5.766  0.00  0.00     0.001 C 
BRANCH  12  13
HETATM   13  C   UNK N   1      26.095  23.462  -5.491  0.00  0.00     0.004 C 
BRANCH  13  14
HETATM   14  C   UNK N   1      26.770  22.824  -6.704  0.00  0.00    -0.019 C 
HETATM   15  C   UNK N   1      27.954  23.661  -7.179  0.00  0.00     0.010 C 
BRANCH  14  16
HETATM   16  C   UNK N   1      25.764  22.613  -7.825  0.00  0.00     0.004 C 
BRANCH  16  17
HETATM   17  C   UNK N   1      26.125  23.384  -9.086  0.00  0.00     0.001 C 
BRANCH  17  18
HETATM   18  C   UNK N   1      25.125  24.512  -9.304  0.00  0.00     0.004 C 
BRANCH  18  19
HETATM   19  C   UNK N   1      25.753  25.792  -9.877  0.00  0.00    -0.019 C 
HETATM   20  C   UNK N   1      24.911  26.370 -11.007  0.00  0.00     0.010 C 
BRANCH  19  21
HETATM   21  C   UNK N   1      27.165  25.493 -10.370  0.00  0.00     0.004 C 
BRANCH  21  22
HETATM   22  C   UNK N   1      28.219  26.262  -9.585  0.00  0.00     0.001 C 
BRANCH  22  23
HETATM   23  C   UNK N   1      27.548  27.155  -8.559  0.00  0.00     0.004 C 
BRANCH  23  24
HETATM   24  C   UNK N   1      28.419  27.349  -7.330  0.00  0.00    -0.023 C 
HETATM   25  C   UNK N   1      28.395  28.811  -6.941  0.00  0.00     0.009 C 
HETATM   26  C   UNK N   1      29.854  26.936  -7.608  0.00  0.00     0.009 C 
ENDBRANCH  23  24
ENDBRANCH  22  23
ENDBRANCH  21  22
ENDBRANCH  19  21
ENDBRANCH  18  19
ENDBRANCH  17  18
ENDBRANCH  16  17
ENDBRANCH  14  16
ENDBRANCH  13  14
ENDBRANCH  12  13
ENDBRANCH  11  12
ENDBRANCH   9  11
ENDBRANCH   8   9
ENDBRANCH   7   8
ENDBRANCH   6   7
ENDBRANCH   5   6
ENDBRANCH   1   5
BRANCH   1  27
HETATM   27  O   UNK N   1      30.048  29.702  -0.937  0.00  0.00    -0.382 OA
BRANCH  27  28
HETATM   28  C   UNK N   1      30.777  29.758  -2.137  0.00  0.00     0.168 C 
BRANCH  28  29
HETATM   29  C   UNK N   1      31.428  28.409  -2.459  0.00  0.00     0.030 C 
BRANCH  29  30
HETATM   30  C   UNK N   1      31.008  27.856  -3.821  0.00  0.00    -0.017 C 
HETATM   31  C   UNK N   1      32.172  27.171  -4.510  0.00  0.00     0.010 C 
BRANCH  30  32
HETATM   32  C   UNK N   1      29.892  26.829  -3.667  0.00  0.00     0.004 C 
BRANCH  32  33
HETATM   33  C   UNK N   1      30.380  25.378  -3.665  0.00  0.00     0.001 C 
BRANCH  33  34
HETATM   34  C   UNK N   1      29.283  24.356  -3.978  0.00  0.00     0.004 C 
BRANCH  34  35
HETATM   35  C   UNK N   1      29.555  22.955  -3.423  0.00  0.00    -0.019 C 
HETATM   36  C   UNK N   1      29.954  23.075  -1.963  0.00  0.00     0.010 C 
BRANCH  35  37
HETATM   37  C   UNK N   1      30.623  22.215  -4.220  0.00  0.00     0.004 C 
BRANCH  37  38
HETATM   38  C   UNK N   1      30.035  21.495  -5.421  0.00  0.00     0.001 C 
BRANCH  38  39
HETATM   39  C   UNK N   1      31.080  21.333  -6.513  0.00  0.00     0.004 C 
BRANCH  39  40
HETATM   40  C   UNK N   1      31.203  19.894  -7.031  0.00  0.00    -0.019 C 
HETATM   41  C   UNK N   1      32.094  19.813  -8.264  0.00  0.00     0.010 C 
BRANCH  40  42
HETATM   42  C   UNK N   1      29.815  19.354  -7.356  0.00  0.00     0.004 C 
BRANCH  42  43
HETATM   43  C   UNK N   1      29.521  19.422  -8.851  0.00  0.00     0.001 C 
BRANCH  43  44
HETATM   44  C   UNK N   1      28.534  20.533  -9.147  0.00  0.00     0.004 C 
BRANCH  44  45
HETATM   45  C   UNK N   1      28.949  21.327 -10.373  0.00  0.00    -0.023 C 
HETATM   46  C   UNK N   1      29.588  20.387 -11.373  0.00  0.00     0.009 C 
HETATM   47  C   UNK N   1      29.946  22.410 -10.005  0.00  0.00     0.009 C 
ENDBRANCH  44  45
ENDBRANCH  43  44
ENDBRANCH  42  43
ENDBRANCH  40  42
ENDBRANCH  39  40
ENDBRANCH  38  39
ENDBRANCH  37  38
ENDBRANCH  35  37
ENDBRANCH  34  35
ENDBRANCH  33  34
ENDBRANCH  32  33
ENDBRANCH  30  32
ENDBRANCH  29  30
ENDBRANCH  28  29
ENDBRANCH  27  28
ENDBRANCH   1  27
TORSDOF 35
ENDMDL
MODEL 9
REMARK VINA RESULT:      -5.0      1.632      4.166
REMARK WARNING: 32 MAX_TORS EXCEEDED!!!
REMARK  35 active torsions:
REMARK  status: ('A' for Active; 'I' for Inactive)
REMARK    1  A    between atoms: C_17  and  C_11 
REMARK    2  A    between atoms: C_19  and  C_11 
REMARK    3  A    between atoms: C_18  and  C_12 
REMARK    4  A    between atoms: C_20  and  C_12 
REMARK    5  A    between atoms: C_21  and  C_13 
REMARK    6  A    between atoms: C_23  and  C_13 
REMARK    7  A    between atoms: C_22  and  C_14 
REMARK    8  A    between atoms: C_24  and  C_14 
REMARK    9  A    between atoms: C_25  and  C_15 
REMARK   10  A    between atoms: C_27  and  C_15 
REMARK   11  A    between atoms: C_26  and  C_16 
REMARK   12  A    between atoms: C_28  and  C_16 
REMARK   13  A    between atoms: C_35  and  C_17 
REMARK   14  A    between atoms: C_36  and  C_18 
REMARK   15  A    between atoms: C_37  and  C_19 
REMARK   16  A    between atoms: C_38  and  C_20 
REMARK   17  A    between atoms: C_37  and  C_21 
REMARK   18  A    between atoms: C_38  and  C_22 
REMARK   19  A    between atoms: C_39  and  C_23 
REMARK   20  A    between atoms: C_40  and  C_24 
REMARK   21  A    between atoms: C_39  and  C_25 
REMARK   22  A    between atoms: C_40  and  C_26 
REMARK   23  A    between atoms: C_41  and  C_27 
REMARK   24  A    between atoms: C_42  and  C_28 
REMARK   25  A    between atoms: C_31  and  C_29 
REMARK   26  A    between atoms: C_41  and  C_29 
REMARK   27  A    between atoms: C_32  and  C_30 
REMARK   28  A    between atoms: C_42  and  C_30 
REMARK   29  A    between atoms: O_45  and  C_31 
REMARK   30  A    between atoms: O_46  and  C_32 
REMARK   31  A    between atoms: C_43  and  C_33 
REMARK   32  A    between atoms: O_44  and  C_33 
REMARK   33  A    between atoms: C_43  and  C_34 
REMARK   34  A    between atoms: O_45  and  C_34 
REMARK   35  A    between atoms: C_43  and  O_46 
ROOT
HETATM    1  C   UNK N   1      21.318  20.895   2.881  0.00  0.00     0.168 C 
ENDROOT
BRANCH   1   2
HETATM    2  C   UNK N   1      20.648  20.924   1.518  0.00  0.00     0.198 C 
BRANCH   2   3
HETATM    3  O   UNK N   1      21.593  20.770   0.504  0.00  0.00    -0.398 OA
HETATM    4  H   UNK N   1      22.477  20.375   0.445  0.00  0.00     0.209 HD
ENDBRANCH   2   3
ENDBRANCH   1   2
BRANCH   1   5
HETATM    5  C   UNK N   1      22.656  20.180   2.685  0.00  0.00     0.201 C 
BRANCH   5   6
HETATM    6  O   UNK N   1      23.795  21.017   2.673  0.00  0.00    -0.389 OA
BRANCH   6   7
HETATM    7  C   UNK N   1      25.005  20.308   2.452  0.00  0.00     0.168 C 
BRANCH   7   8
HETATM    8  C   UNK N   1      26.232  20.748   3.259  0.00  0.00     0.030 C 
BRANCH   8   9
HETATM    9  C   UNK N   1      26.392  20.056   4.609  0.00  0.00    -0.017 C 
HETATM   10  C   UNK N   1      27.100  20.988   5.569  0.00  0.00     0.010 C 
BRANCH   9  11
HETATM   11  C   UNK N   1      27.161  18.747   4.418  0.00  0.00     0.004 C 
BRANCH  11  12
HETATM   12  C   UNK N   1      28.570  18.797   5.008  0.00  0.00     0.001 C 
BRANCH  12  13
HETATM   13  C   UNK N   1      28.796  17.640   5.974  0.00  0.00     0.004 C 
BRANCH  13  14
HETATM   14  C   UNK N   1      30.132  16.942   5.728  0.00  0.00    -0.019 C 
HETATM   15  C   UNK N   1      31.040  17.045   6.950  0.00  0.00     0.010 C 
BRANCH  14  16
HETATM   16  C   UNK N   1      30.812  17.512   4.493  0.00  0.00     0.004 C 
BRANCH  16  17
HETATM   17  C   UNK N   1      31.010  16.469   3.402  0.00  0.00     0.001 C 
BRANCH  17  18
HETATM   18  C   UNK N   1      29.666  16.113   2.779  0.00  0.00     0.004 C 
BRANCH  18  19
HETATM   19  C   UNK N   1      29.297  14.628   2.917  0.00  0.00    -0.019 C 
HETATM   20  C   UNK N   1      28.891  14.027   1.578  0.00  0.00     0.010 C 
BRANCH  19  21
HETATM   21  C   UNK N   1      28.168  14.472   3.930  0.00  0.00     0.004 C 
BRANCH  21  22
HETATM   22  C   UNK N   1      26.905  15.203   3.497  0.00  0.00     0.001 C 
BRANCH  22  23
HETATM   23  C   UNK N   1      25.895  15.201   4.629  0.00  0.00     0.004 C 
BRANCH  23  24
HETATM   24  C   UNK N   1      26.488  14.634   5.908  0.00  0.00    -0.023 C 
HETATM   25  C   UNK N   1      25.831  13.303   6.202  0.00  0.00     0.009 C 
HETATM   26  C   UNK N   1      26.252  15.570   7.079  0.00  0.00     0.009 C 
ENDBRANCH  23  24
ENDBRANCH  22  23
ENDBRANCH  21  22
ENDBRANCH  19  21
ENDBRANCH  18  19
ENDBRANCH  17  18
ENDBRANCH  16  17
ENDBRANCH  14  16
ENDBRANCH  13  14
ENDBRANCH  12  13
ENDBRANCH  11  12
ENDBRANCH   9  11
ENDBRANCH   8   9
ENDBRANCH   7   8
ENDBRANCH   6   7
ENDBRANCH   5   6
ENDBRANCH   1   5
BRANCH   1  27
HETATM   27  O   UNK N   1      20.485  20.185   3.769  0.00  0.00    -0.382 OA
BRANCH  27  28
HETATM   28  C   UNK N   1      20.858  18.831   3.770  0.00  0.00     0.168 C 
BRANCH  28  29
HETATM   29  C   UNK N   1      19.684  17.927   3.379  0.00  0.00     0.030 C 
BRANCH  29  30
HETATM   30  C   UNK N   1      20.091  16.798   2.433  0.00  0.00    -0.017 C 
HETATM   31  C   UNK N   1      20.138  17.284   0.997  0.00  0.00     0.010 C 
BRANCH  30  32
HETATM   32  C   UNK N   1      21.476  16.268   2.788  0.00  0.00     0.004 C 
BRANCH  32  33
HETATM   33  C   UNK N   1      21.940  15.106   1.906  0.00  0.00     0.001 C 
BRANCH  33  34
HETATM   34  C   UNK N   1      22.983  14.203   2.571  0.00  0.00     0.004 C 
BRANCH  34  35
HETATM   35  C   UNK N   1      22.526  12.754   2.764  0.00  0.00    -0.019 C 
HETATM   36  C   UNK N   1      21.072  12.753   3.201  0.00  0.00     0.010 C 
BRANCH  35  37
HETATM   37  C   UNK N   1      23.396  12.003   3.767  0.00  0.00     0.004 C 
BRANCH  37  38
HETATM   38  C   UNK N   1      22.595  10.983   4.556  0.00  0.00     0.001 C 
BRANCH  38  39
HETATM   39  C   UNK N   1      23.226  10.744   5.918  0.00  0.00     0.004 C 
BRANCH  39  40
HETATM   40  C   UNK N   1      22.795  11.768   6.977  0.00  0.00    -0.019 C 
HETATM   41  C   UNK N   1      23.173  11.318   8.383  0.00  0.00     0.010 C 
BRANCH  40  42
HETATM   42  C   UNK N   1      21.288  11.983   6.889  0.00  0.00     0.004 C 
BRANCH  42  43
HETATM   43  C   UNK N   1      20.924  13.460   6.988  0.00  0.00     0.001 C 
BRANCH  43  44
HETATM   44  C   UNK N   1      22.067  14.322   6.493  0.00  0.00     0.004 C 
BRANCH  44  45
HETATM   45  C   UNK N   1      21.629  15.764   6.306  0.00  0.00    -0.023 C 
HETATM   46  C   UNK N   1      22.847  16.611   6.003  0.00  0.00     0.009 C 
HETATM   47  C   UNK N   1      20.958  16.293   7.560  0.00  0.00     0.009 C 
ENDBRANCH  44  45
ENDBRANCH  43  44
ENDBRANCH  42  43
ENDBRANCH  40  42
ENDBRANCH  39  40
ENDBRANCH  38  39
ENDBRANCH  37  38
ENDBRANCH  35  37
ENDBRANCH  34  35
ENDBRANCH  33  34
ENDBRANCH  32  33
ENDBRANCH  30  32
ENDBRANCH  29  30
ENDBRANCH  28  29
ENDBRANCH  27  28
ENDBRANCH   1  27
TORSDOF 35
ENDMDL
