REMARK  25 active torsions:
REMARK  status: ('A' for Active; 'I' for Inactive)
REMARK    1  A    between atoms: N_8  and  C_12 
REMARK    2  A    between atoms: C_15  and  C_16 
REMARK    3  A    between atoms: C_16  and  C_17 
REMARK    4  A    between atoms: C_17  and  O_18 
REMARK    5  A    between atoms: C_17  and  C_19 
REMARK    6  A    between atoms: C_19  and  O_20 
REMARK    7  A    between atoms: C_19  and  C_21 
REMARK    8  A    between atoms: C_21  and  O_22 
REMARK    9  A    between atoms: C_21  and  C_23 
REMARK   10  A    between atoms: C_23  and  O_24 
REMARK   11  A    between atoms: C_25  and  O_24 
REMARK   12  A    between atoms: C_27  and  C_28 
REMARK   13  A    between atoms: C_28  and  O_29 
REMARK   14  A    between atoms: P_30  and  O_29 
REMARK   15  A    between atoms: P_30  and  O_31 
REMARK   16  A    between atoms: P_30  and  O_33 
REMARK   17  A    between atoms: C_34  and  O_33 
REMARK   18  A    between atoms: C_34  and  C_35 
REMARK   19  A    between atoms: C_34  and  C_40 
REMARK   20  A    between atoms: C_35  and  C_36 
REMARK   21  A    between atoms: C_36  and  C_37 
REMARK   22  A    between atoms: C_37  and  O_38 
REMARK   23  A    between atoms: C_40  and  O_41 
REMARK   24  A    between atoms: C_43  and  O_44 
REMARK   25  A    between atoms: C_45  and  O_46 
REMARK       I    between atoms: C_52  and  N_53 
ROOT
HETATM    1  C   UNK N   1     -15.120   2.534  -0.160  0.00  0.00     0.177 C 
ENDROOT
BRANCH   1   2
HETATM    2  C   UNK N   1     -16.280   3.114  -0.960  0.00  0.00     0.153 C 
BRANCH   2   3
HETATM    3  C   UNK N   1     -16.041   4.448  -1.668  0.00  0.00     0.073 C 
BRANCH   3   4
HETATM    4  C   UNK N   1     -17.237   5.256  -1.310  0.00  0.00    -0.056 A 
HETATM    5  C   UNK N   1     -17.112   6.334  -0.427  0.00  0.00     0.009 A 
HETATM    6  C   UNK N   1     -18.255   6.891   0.157  0.00  0.00     0.030 A 
HETATM    7  C   UNK N   1     -19.516   6.349  -0.126  0.00  0.00     0.031 A 
HETATM    8  C   UNK N   1     -19.631   5.301  -1.049  0.00  0.00     0.030 A 
HETATM    9  C   UNK N   1     -18.503   4.771  -1.651  0.00  0.00     0.009 A 
BRANCH   7  10
HETATM   10  N   UNK N   1     -20.622   6.681   0.690  0.00  0.00    -0.358 N 
HETATM   11  C   UNK N   1     -21.439   5.583   1.129  0.00  0.00     0.251 C 
HETATM   12  N   UNK N   1     -22.767   6.001   0.848  0.00  0.00    -0.348 N 
HETATM   13  C   UNK N   1     -23.777   5.094   0.389  0.00  0.00     0.146 A 
HETATM   14  C   UNK N   1     -22.859   7.429   0.647  0.00  0.00     0.131 C 
HETATM   15  C   UNK N   1     -24.928   5.617  -0.207  0.00  0.00     0.149 A 
HETATM   16  C   UNK N   1     -23.676   3.692   0.518  0.00  0.00     0.290 A 
HETATM   17  N   UNK N   1     -25.024   7.012  -0.419  0.00  0.00    -0.367 N 
HETATM   18  N   UNK N   1     -25.925   4.790  -0.618  0.00  0.00    -0.175 N 
HETATM   19  C   UNK N   1     -23.811   7.798  -0.490  0.00  0.00     0.104 C 
HETATM   20  H   UNK N   1     -25.903   7.443  -0.517  0.00  0.00     0.161 HD
HETATM   21  C   UNK N   1     -24.144   9.276  -0.463  0.00  0.00     0.034 C 
HETATM   22  C   UNK N   1     -25.816   3.443  -0.479  0.00  0.00     0.680 A 
ATOM     23  HN  UNK N   1     -26.766   5.187  -1.037  1.00  0.00     0.186 HD
HETATM   24  N   UNK N   1     -24.702   2.900   0.075  0.00  0.00    -0.154 N 
HETATM   25  N   UNK N   1     -26.856   2.605  -0.926  0.00  0.00    -0.234 N 
HETATM   26  H   UNK N   1     -24.630   1.921   0.159  0.00  0.00     0.187 HD
HETATM   27  H   UNK N   1     -27.727   2.942  -1.238  0.00  0.00     0.174 HD
HETATM   28  H   UNK N   1     -26.705   1.632  -0.926  0.00  0.00     0.174 HD
HETATM   29  O   UNK N   1     -22.697   3.171   1.023  0.00  0.00    -0.265 OA
HETATM   30  C   UNK N   1     -21.409   7.851   0.361  0.00  0.00     0.107 C 
HETATM   31  C   UNK N   1     -21.022   9.020   1.246  0.00  0.00     0.034 C 
ENDBRANCH   7  10
ENDBRANCH   3   4
ENDBRANCH   2   3
BRANCH   2  32
HETATM   32  O   UNK N   1     -16.836   2.183  -1.838  0.00  0.00    -0.393 OA
HETATM   33  H   UNK N   1     -17.590   2.193  -2.448  0.00  0.00     0.210 HD
ENDBRANCH   2  32
ENDBRANCH   1   2
BRANCH   1  34
HETATM   34  O   UNK N   1     -14.451   3.550   0.528  0.00  0.00    -0.390 OA
HETATM   35  H   UNK N   1     -13.608   3.500   1.005  0.00  0.00     0.210 HD
ENDBRANCH   1  34
BRANCH   1  36
HETATM   36  C   UNK N   1     -15.633   1.507   0.863  0.00  0.00     0.173 C 
BRANCH  36  37
HETATM   37  O   UNK N   1     -16.519   2.086   1.774  0.00  0.00    -0.391 OA
HETATM   38  H   UNK N   1     -16.479   2.820   2.406  0.00  0.00     0.210 HD
ENDBRANCH  36  37
BRANCH  36  39
HETATM   39  C   UNK N   1     -16.273   0.282   0.203  0.00  0.00     0.205 C 
BRANCH  39  40
HETATM   40  O   UNK N   1     -15.715  -0.900   0.705  0.00  0.00    -0.356 OA
BRANCH  40  41
HETATM   41  C   UNK N   1     -14.506  -1.031   0.014  0.00  0.00     0.291 C 
HETATM   42  O   UNK N   1     -13.479  -0.392   0.719  0.00  0.00    -0.348 OA
HETATM   43  C   UNK N   1     -12.306  -0.862   0.113  0.00  0.00     0.180 C 
HETATM   44  C   UNK N   1     -12.639  -2.181  -0.573  0.00  0.00     0.182 C 
HETATM   45  C   UNK N   1     -14.069  -2.460  -0.164  0.00  0.00     0.204 C 
BRANCH  43  46
HETATM   46  C   UNK N   1     -11.822   0.145  -0.932  0.00  0.00     0.215 C 
BRANCH  46  47
HETATM   47  O   UNK N   1     -12.091   1.466  -0.547  0.00  0.00    -0.294 OA
BRANCH  47  48
HETATM   48  P   UNK N   1     -10.813   2.008   0.515  0.00  0.00     0.393 P 
HETATM   49  O   UNK N   1     -11.496   2.256   1.886  0.00  0.00    -0.631 OA
BRANCH  48  50
HETATM   50  O   UNK N   1     -10.182   3.551   0.031  0.00  0.00    -0.307 OA
HETATM   51  H   UNK N   1      -9.259   3.677  -0.239  0.00  0.00     0.222 HD
ENDBRANCH  48  50
BRANCH  48  52
HETATM   52  O   UNK N   1      -9.543   0.854   0.830  0.00  0.00    -0.281 OA
BRANCH  52  53
HETATM   53  C   UNK N   1      -8.904   0.618  -0.393  0.00  0.00     0.231 C 
BRANCH  53  54
HETATM   54  C   UNK N   1      -7.552   1.326  -0.461  0.00  0.00     0.054 C 
BRANCH  54  55
HETATM   55  C   UNK N   1      -6.613   0.894   0.655  0.00  0.00     0.113 C 
BRANCH  55  56
HETATM   56  C   UNK N   1      -5.197   0.996   0.200  0.00  0.00     0.139 C 
HETATM   57  O   UNK N   1      -4.722   2.079  -0.101  0.00  0.00    -0.650 OA
BRANCH  56  58
HETATM   58  O   UNK N   1      -4.439  -0.113   0.125  0.00  0.00    -0.776 OA
HETATM   59  H   UNK N   1      -4.844  -0.957   0.073  0.00  0.00     0.167 HD
ENDBRANCH  56  58
ENDBRANCH  55  56
ENDBRANCH  54  55
ENDBRANCH  53  54
BRANCH  53  60
HETATM   60  C   UNK N   1      -8.782  -0.859  -0.628  0.00  0.00     0.170 C 
HETATM   61  O   UNK N   1      -9.300  -1.362  -1.611  0.00  0.00    -0.648 OA
BRANCH  60  62
HETATM   62  O   UNK N   1      -8.120  -1.638   0.250  0.00  0.00    -0.774 OA
HETATM   63  H   UNK N   1      -8.359  -2.307   0.860  0.00  0.00     0.167 HD
ENDBRANCH  60  62
ENDBRANCH  53  60
ENDBRANCH  52  53
ENDBRANCH  48  52
ENDBRANCH  47  48
ENDBRANCH  46  47
ENDBRANCH  43  46
BRANCH  44  64
HETATM   64  O   UNK N   1     -11.769  -3.198  -0.176  0.00  0.00    -0.390 OA
HETATM   65  H   UNK N   1     -12.079  -4.075   0.100  0.00  0.00     0.210 HD
ENDBRANCH  44  64
BRANCH  45  66
HETATM   66  O   UNK N   1     -14.106  -3.108   1.075  0.00  0.00    -0.388 OA
HETATM   67  H   UNK N   1     -14.508  -3.311   1.935  0.00  0.00     0.210 HD
ENDBRANCH  45  66
ENDBRANCH  40  41
ENDBRANCH  39  40
ENDBRANCH  36  39
ENDBRANCH   1  36
TORSDOF 25
