REMARK  5 active torsions:
REMARK  status: ('A' for Active; 'I' for Inactive)
REMARK    1  A    between atoms: C_13  and  C_15 
REMARK    2  A    between atoms: C_15  and  O_16 
REMARK    3  A    between atoms: C_15  and  C_17 
REMARK    4  A    between atoms: C_24  and  C_27 
REMARK    5  A    between atoms: C_27  and  O_28 
ROOT
HETATM    1  C   UNK N   1      -1.555  -2.770  -0.650  0.00  0.00     0.184 C 
ENDROOT
BRANCH   1   2
HETATM    2  C   UNK N   1      -2.828  -1.953  -0.579  0.00  0.00    -0.025 A 
HETATM    3  C   UNK N   1      -2.827  -0.654  -1.103  0.00  0.00     0.011 A 
HETATM    4  C   UNK N   1      -3.920   0.183  -0.927  0.00  0.00     0.009 A 
HETATM    5  C   UNK N   1      -5.068  -0.274  -0.268  0.00  0.00    -0.043 A 
HETATM    6  C   UNK N   1      -5.136  -1.632   0.146  0.00  0.00    -0.043 A 
HETATM    7  C   UNK N   1      -6.190   0.711   0.018  0.00  0.00    -0.020 C 
HETATM    8  C   UNK N   1      -6.416  -2.225   0.711  0.00  0.00    -0.020 C 
HETATM    9  C   UNK N   1      -3.994  -2.447   0.018  0.00  0.00     0.018 A 
HETATM   10  C   UNK N   1      -7.610  -1.281   0.559  0.00  0.00     0.015 C 
HETATM   11  C   UNK N   1      -6.782  -3.480  -0.066  0.00  0.00     0.020 C 
HETATM   12  C   UNK N   1      -6.222  -2.600   2.170  0.00  0.00     0.020 C 
HETATM   13  C   UNK N   1      -7.243   0.130   0.961  0.00  0.00     0.015 C 
HETATM   14  C   UNK N   1      -6.832   1.171  -1.278  0.00  0.00     0.020 C 
HETATM   15  C   UNK N   1      -5.625   1.929   0.734  0.00  0.00     0.020 C 
ENDBRANCH   1   2
BRANCH   1  16
HETATM   16  O   UNK N   1      -1.676  -4.008  -0.012  0.00  0.00    -0.386 OA
HETATM   17  H   UNK N   1      -2.461  -4.365   0.431  0.00  0.00     0.210 HD
ENDBRANCH   1  16
BRANCH   1  18
HETATM   18  C   UNK N   1      -0.331  -2.024  -0.159  0.00  0.00    -0.024 A 
HETATM   19  C   UNK N   1       0.939  -2.454  -0.567  0.00  0.00     0.022 A 
HETATM   20  C   UNK N   1       2.059  -1.645  -0.338  0.00  0.00    -0.025 A 
HETATM   21  C   UNK N   1       1.905  -0.395   0.303  0.00  0.00    -0.025 A 
HETATM   22  C   UNK N   1       3.316  -2.034  -0.804  0.00  0.00     0.013 A 
HETATM   23  C   UNK N   1       0.656   0.002   0.766  0.00  0.00     0.013 A 
HETATM   24  C   UNK N   1       2.993   0.467   0.423  0.00  0.00     0.030 A 
HETATM   25  C   UNK N   1      -0.454  -0.804   0.532  0.00  0.00     0.011 A 
HETATM   26  C   UNK N   1       4.242   0.100  -0.087  0.00  0.00     0.038 A 
HETATM   27  C   UNK N   1       4.405  -1.164  -0.680  0.00  0.00     0.019 A 
BRANCH  26  28
HETATM   28  C   UNK N   1       5.358   1.065  -0.059  0.00  0.00     0.176 C 
HETATM   29  O   UNK N   1       6.446   0.765  -0.519  0.00  0.00    -0.646 OA
BRANCH  28  30
HETATM   30  O   UNK N   1       5.164   2.307   0.430  0.00  0.00    -0.773 OA
HETATM   31  H   UNK N   1       5.844   2.855   0.770  0.00  0.00     0.167 HD
ENDBRANCH  28  30
ENDBRANCH  26  28
ENDBRANCH   1  18
TORSDOF 5
