REMARK  9 active torsions:
REMARK  status: ('A' for Active; 'I' for Inactive)
REMARK    1  A    between atoms: C_3  and  C_2 
REMARK    2  A    between atoms: O_21  and  C_2 
REMARK    3  A    between atoms: O_14  and  C_4 
REMARK    4  A    between atoms: C_5  and  O_15 
REMARK    5  A    between atoms: C_6  and  O_16 
REMARK    6  A    between atoms: C_7  and  N_13 
REMARK    7  A    between atoms: P_23  and  O_18 
REMARK    8  A    between atoms: P_23  and  O_19 
REMARK    9  A    between atoms: P_23  and  O_21 
ROOT
HETATM    1  C   UNK N   1       1.891   3.409  -0.489  0.00  0.00     0.180 C 
HETATM    2  C   UNK N   1       0.851   4.372   0.156  0.00  0.00     0.182 C 
HETATM    3  C   UNK N   1      -0.429   3.567  -0.003  0.00  0.00     0.200 C 
HETATM    4  C   UNK N   1       0.157   2.182   0.177  0.00  0.00     0.280 C 
HETATM    5  O   UNK N   1       1.236   2.179  -0.718  0.00  0.00    -0.352 OA
ENDROOT
BRANCH   4   6
HETATM    6  N   UNK N   1      -0.725   1.038  -0.082  0.00  0.00    -0.210 N 
HETATM    7  C   UNK N   1      -0.209  -0.244  -0.002  0.00  0.00     0.345 A 
HETATM    8  N   UNK N   1      -1.028  -1.318  -0.195  0.00  0.00    -0.287 N 
HETATM    9  O   UNK N   1       0.973  -0.427   0.245  0.00  0.00    -0.245 OA
HETATM   10  C   UNK N   1      -2.342  -1.134  -0.459  0.00  0.00     0.161 A 
ATOM     11  HN  UNK N   1      -0.649  -2.263  -0.139  1.00  0.00     0.172 HD
HETATM   12  C   UNK N   1      -2.853   0.159  -0.545  0.00  0.00     0.163 A 
HETATM   13  N   UNK N   1      -2.022   1.217  -0.353  0.00  0.00    -0.299 N 
ATOM     14  HN  UNK N   1      -2.394   2.164  -0.417  1.00  0.00     0.186 HD
BRANCH  10  15
HETATM   15  O   UNK N   1      -3.145  -2.195  -0.634  0.00  0.00    -0.345 OA
HETATM   16  H   UNK N   1      -4.067  -2.079  -0.756  0.00  0.00     0.219 HD
ENDBRANCH  10  15
ENDBRANCH   4   6
BRANCH   3  17
HETATM   17  O   UNK N   1      -1.404   3.893   0.944  0.00  0.00    -0.388 OA
HETATM   18  H   UNK N   1      -1.547   4.592   1.601  0.00  0.00     0.210 HD
ENDBRANCH   3  17
BRANCH   2  19
HETATM   19  O   UNK N   1       1.125   4.552   1.519  0.00  0.00    -0.390 OA
HETATM   20  H   UNK N   1       1.328   4.451   2.463  0.00  0.00     0.210 HD
ENDBRANCH   2  19
BRANCH   1  21
HETATM   21  C   UNK N   1       3.078   3.045   0.407  0.00  0.00     0.215 C 
BRANCH  21  22
HETATM   22  O   UNK N   1       3.983   4.085   0.632  0.00  0.00    -0.294 OA
BRANCH  22  23
HETATM   23  P   UNK N   1       5.382   3.673  -0.327  0.00  0.00     0.390 P 
HETATM   24  O   UNK N   1       5.568   5.196  -0.101  0.00  0.00    -0.632 OA
BRANCH  23  25
HETATM   25  O   UNK N   1       7.008   3.794   0.263  0.00  0.00    -0.307 OA
HETATM   26  H   UNK N   1       7.521   3.040   0.593  0.00  0.00     0.222 HD
ENDBRANCH  23  25
BRANCH  23  27
HETATM   27  O   UNK N   1       5.601   2.862   1.200  0.00  0.00    -0.307 OA
HETATM   28  H   UNK N   1       5.271   2.531   2.051  0.00  0.00     0.222 HD
ENDBRANCH  23  27
ENDBRANCH  22  23
ENDBRANCH  21  22
ENDBRANCH   1  21
TORSDOF 9
