MODEL 1
REMARK VINA RESULT:      -5.0      0.000      0.000
REMARK  2 active torsions:
REMARK  status: ('A' for Active; 'I' for Inactive)
REMARK    1  A    between atoms: O_1  and  C_2 
REMARK    2  A    between atoms: C_5  and  C_8 
ROOT
HETATM    1  C   UNK N   1      20.373  13.762   9.978  0.00  0.00     0.065 A 
HETATM    2  C   UNK N   1      20.652  12.709  10.855  0.00  0.00     0.037 A 
HETATM    3  C   UNK N   1      21.958  12.229  10.980  0.00  0.00     0.019 A 
HETATM    4  C   UNK N   1      22.995  12.795  10.222  0.00  0.00     0.048 A 
HETATM    5  C   UNK N   1      22.708  13.843   9.336  0.00  0.00     0.019 A 
HETATM    6  C   UNK N   1      21.402  14.328   9.219  0.00  0.00     0.037 A 
ENDROOT
BRANCH   4   7
HETATM    7  C   UNK N   1      24.406  12.299  10.358  0.00  0.00     0.417 C 
HETATM    8  F   UNK N   1      24.584  11.737  11.608  0.00  0.00    -0.166 F 
HETATM    9  F   UNK N   1      24.653  11.342   9.391  0.00  0.00    -0.166 F 
HETATM   10  F   UNK N   1      25.315  13.333  10.200  0.00  0.00    -0.166 F 
ENDBRANCH   4   7
BRANCH   1  11
HETATM   11  O   UNK N   1      19.121  14.231   9.869  0.00  0.00    -0.361 OA
HETATM   12  H   UNK N   1      18.468  13.975  10.489  0.00  0.00     0.217 HD
ENDBRANCH   1  11
TORSDOF 2
ENDMDL
MODEL 2
REMARK VINA RESULT:      -4.8     13.280     14.480
REMARK  2 active torsions:
REMARK  status: ('A' for Active; 'I' for Inactive)
REMARK    1  A    between atoms: O_1  and  C_2 
REMARK    2  A    between atoms: C_5  and  C_8 
ROOT
HETATM    1  C   UNK N   1      35.374  12.489  18.966  0.00  0.00     0.065 A 
HETATM    2  C   UNK N   1      35.105  13.469  18.005  0.00  0.00     0.037 A 
HETATM    3  C   UNK N   1      34.814  13.099  16.690  0.00  0.00     0.019 A 
HETATM    4  C   UNK N   1      34.797  11.744  16.323  0.00  0.00     0.048 A 
HETATM    5  C   UNK N   1      35.080  10.766  17.288  0.00  0.00     0.019 A 
HETATM    6  C   UNK N   1      35.362  11.138  18.606  0.00  0.00     0.037 A 
ENDROOT
BRANCH   4   7
HETATM    7  C   UNK N   1      34.471  11.332  14.917  0.00  0.00     0.417 C 
HETATM    8  F   UNK N   1      34.516  12.435  14.086  0.00  0.00    -0.166 F 
HETATM    9  F   UNK N   1      35.397  10.400  14.484  0.00  0.00    -0.166 F 
HETATM   10  F   UNK N   1      33.208  10.769  14.843  0.00  0.00    -0.166 F 
ENDBRANCH   4   7
BRANCH   1  11
HETATM   11  O   UNK N   1      35.640  12.844  20.232  0.00  0.00    -0.361 OA
HETATM   12  H   UNK N   1      35.156  12.465  20.938  0.00  0.00     0.217 HD
ENDBRANCH   1  11
TORSDOF 2
ENDMDL
MODEL 3
REMARK VINA RESULT:      -4.8      8.761      9.853
REMARK  2 active torsions:
REMARK  status: ('A' for Active; 'I' for Inactive)
REMARK    1  A    between atoms: O_1  and  C_2 
REMARK    2  A    between atoms: C_5  and  C_8 
ROOT
HETATM    1  C   UNK N   1      28.553  17.999   8.843  0.00  0.00     0.065 A 
HETATM    2  C   UNK N   1      28.675  17.294   7.641  0.00  0.00     0.037 A 
HETATM    3  C   UNK N   1      29.934  17.095   7.070  0.00  0.00     0.019 A 
HETATM    4  C   UNK N   1      31.082  17.606   7.695  0.00  0.00     0.048 A 
HETATM    5  C   UNK N   1      30.953  18.323   8.893  0.00  0.00     0.019 A 
HETATM    6  C   UNK N   1      29.693  18.514   9.467  0.00  0.00     0.037 A 
ENDROOT
BRANCH   4   7
HETATM    7  C   UNK N   1      32.443  17.386   7.101  0.00  0.00     0.417 C 
HETATM    8  F   UNK N   1      32.386  17.553   5.730  0.00  0.00    -0.166 F 
HETATM    9  F   UNK N   1      33.332  18.304   7.632  0.00  0.00    -0.166 F 
HETATM   10  F   UNK N   1      32.908  16.110   7.376  0.00  0.00    -0.166 F 
ENDBRANCH   4   7
BRANCH   1  11
HETATM   11  O   UNK N   1      27.345  18.179   9.396  0.00  0.00    -0.361 OA
HETATM   12  H   UNK N   1      26.890  17.454   9.778  0.00  0.00     0.217 HD
ENDBRANCH   1  11
TORSDOF 2
ENDMDL
MODEL 4
REMARK VINA RESULT:      -4.8     19.472     20.329
REMARK  2 active torsions:
REMARK  status: ('A' for Active; 'I' for Inactive)
REMARK    1  A    between atoms: O_1  and  C_2 
REMARK    2  A    between atoms: C_5  and  C_8 
ROOT
HETATM    1  C   UNK N   1      25.642  27.476  -3.962  0.00  0.00     0.065 A 
HETATM    2  C   UNK N   1      26.346  26.385  -3.442  0.00  0.00     0.037 A 
HETATM    3  C   UNK N   1      26.491  25.221  -4.199  0.00  0.00     0.019 A 
HETATM    4  C   UNK N   1      25.928  25.136  -5.482  0.00  0.00     0.048 A 
HETATM    5  C   UNK N   1      25.214  26.229  -5.994  0.00  0.00     0.019 A 
HETATM    6  C   UNK N   1      25.076  27.397  -5.238  0.00  0.00     0.037 A 
ENDROOT
BRANCH   4   7
HETATM    7  C   UNK N   1      26.090  23.897  -6.313  0.00  0.00     0.417 C 
HETATM    8  F   UNK N   1      25.343  22.869  -5.768  0.00  0.00    -0.166 F 
HETATM    9  F   UNK N   1      25.650  24.144  -7.601  0.00  0.00    -0.166 F 
HETATM   10  F   UNK N   1      27.418  23.502  -6.367  0.00  0.00    -0.166 F 
ENDBRANCH   4   7
BRANCH   1  11
HETATM   11  O   UNK N   1      25.514  28.599  -3.239  0.00  0.00    -0.361 OA
HETATM   12  H   UNK N   1      25.392  28.549  -2.312  0.00  0.00     0.217 HD
ENDBRANCH   1  11
TORSDOF 2
ENDMDL
MODEL 5
REMARK VINA RESULT:      -4.7      2.919      3.780
REMARK  2 active torsions:
REMARK  status: ('A' for Active; 'I' for Inactive)
REMARK    1  A    between atoms: O_1  and  C_2 
REMARK    2  A    between atoms: C_5  and  C_8 
ROOT
HETATM    1  C   UNK N   1      23.389  11.975  12.542  0.00  0.00     0.065 A 
HETATM    2  C   UNK N   1      24.437  12.013  11.617  0.00  0.00     0.037 A 
HETATM    3  C   UNK N   1      24.162  12.102  10.250  0.00  0.00     0.019 A 
HETATM    4  C   UNK N   1      22.834  12.147   9.798  0.00  0.00     0.048 A 
HETATM    5  C   UNK N   1      21.787  12.096  10.729  0.00  0.00     0.019 A 
HETATM    6  C   UNK N   1      22.065  12.016  12.097  0.00  0.00     0.037 A 
ENDROOT
BRANCH   4   7
HETATM    7  C   UNK N   1      22.524  12.258   8.333  0.00  0.00     0.417 C 
HETATM    8  F   UNK N   1      23.144  13.377   7.810  0.00  0.00    -0.166 F 
HETATM    9  F   UNK N   1      22.990  11.133   7.676  0.00  0.00    -0.166 F 
HETATM   10  F   UNK N   1      21.159  12.363   8.119  0.00  0.00    -0.166 F 
ENDBRANCH   4   7
BRANCH   1  11
HETATM   11  O   UNK N   1      23.655  11.902  13.855  0.00  0.00    -0.361 OA
HETATM   12  H   UNK N   1      24.220  12.532  14.255  0.00  0.00     0.217 HD
ENDBRANCH   1  11
TORSDOF 2
ENDMDL
MODEL 6
REMARK VINA RESULT:      -4.6     21.149     22.148
REMARK  2 active torsions:
REMARK  status: ('A' for Active; 'I' for Inactive)
REMARK    1  A    between atoms: O_1  and  C_2 
REMARK    2  A    between atoms: C_5  and  C_8 
ROOT
HETATM    1  C   UNK N   1      27.768  29.570  -4.012  0.00  0.00     0.065 A 
HETATM    2  C   UNK N   1      28.002  29.154  -5.327  0.00  0.00     0.037 A 
HETATM    3  C   UNK N   1      27.108  28.284  -5.955  0.00  0.00     0.019 A 
HETATM    4  C   UNK N   1      25.976  27.817  -5.270  0.00  0.00     0.048 A 
HETATM    5  C   UNK N   1      25.753  28.228  -3.948  0.00  0.00     0.019 A 
HETATM    6  C   UNK N   1      26.644  29.106  -3.324  0.00  0.00     0.037 A 
ENDROOT
BRANCH   4   7
HETATM    7  C   UNK N   1      24.999  26.894  -5.938  0.00  0.00     0.417 C 
HETATM    8  F   UNK N   1      23.727  27.429  -5.866  0.00  0.00    -0.166 F 
HETATM    9  F   UNK N   1      25.349  26.736  -7.267  0.00  0.00    -0.166 F 
HETATM   10  F   UNK N   1      24.994  25.648  -5.331  0.00  0.00    -0.166 F 
ENDBRANCH   4   7
BRANCH   1  11
HETATM   11  O   UNK N   1      28.620  30.416  -3.414  0.00  0.00    -0.361 OA
HETATM   12  H   UNK N   1      29.049  31.083  -3.914  0.00  0.00     0.217 HD
ENDBRANCH   1  11
TORSDOF 2
ENDMDL
MODEL 7
REMARK VINA RESULT:      -4.6     11.661     12.708
REMARK  2 active torsions:
REMARK  status: ('A' for Active; 'I' for Inactive)
REMARK    1  A    between atoms: O_1  and  C_2 
REMARK    2  A    between atoms: C_5  and  C_8 
ROOT
HETATM    1  C   UNK N   1      34.162  14.896  10.840  0.00  0.00     0.065 A 
HETATM    2  C   UNK N   1      35.034  15.978  11.003  0.00  0.00     0.037 A 
HETATM    3  C   UNK N   1      35.021  17.031  10.085  0.00  0.00     0.019 A 
HETATM    4  C   UNK N   1      34.141  17.006   8.992  0.00  0.00     0.048 A 
HETATM    5  C   UNK N   1      33.277  15.914   8.828  0.00  0.00     0.019 A 
HETATM    6  C   UNK N   1      33.285  14.865   9.752  0.00  0.00     0.037 A 
ENDROOT
BRANCH   4   7
HETATM    7  C   UNK N   1      34.106  18.139   8.007  0.00  0.00     0.417 C 
HETATM    8  F   UNK N   1      35.020  19.107   8.378  0.00  0.00    -0.166 F 
HETATM    9  F   UNK N   1      34.431  17.665   6.749  0.00  0.00    -0.166 F 
HETATM   10  F   UNK N   1      32.846  18.713   7.952  0.00  0.00    -0.166 F 
ENDBRANCH   4   7
BRANCH   1  11
HETATM   11  O   UNK N   1      34.166  13.891  11.729  0.00  0.00    -0.361 OA
HETATM   12  H   UNK N   1      34.825  13.227  11.685  0.00  0.00     0.217 HD
ENDBRANCH   1  11
TORSDOF 2
ENDMDL
MODEL 8
REMARK VINA RESULT:      -4.6     13.788     14.729
REMARK  2 active torsions:
REMARK  status: ('A' for Active; 'I' for Inactive)
REMARK    1  A    between atoms: O_1  and  C_2 
REMARK    2  A    between atoms: C_5  and  C_8 
ROOT
HETATM    1  C   UNK N   1      34.505  12.028  15.101  0.00  0.00     0.065 A 
HETATM    2  C   UNK N   1      34.765  13.085  15.980  0.00  0.00     0.037 A 
HETATM    3  C   UNK N   1      35.109  12.823  17.308  0.00  0.00     0.019 A 
HETATM    4  C   UNK N   1      35.189  11.500  17.770  0.00  0.00     0.048 A 
HETATM    5  C   UNK N   1      34.916  10.445  16.888  0.00  0.00     0.019 A 
HETATM    6  C   UNK N   1      34.580  10.709  15.557  0.00  0.00     0.037 A 
ENDROOT
BRANCH   4   7
HETATM    7  C   UNK N   1      35.573  11.203  19.191  0.00  0.00     0.417 C 
HETATM    8  F   UNK N   1      34.576  10.464  19.798  0.00  0.00    -0.166 F 
HETATM    9  F   UNK N   1      36.751  10.477  19.208  0.00  0.00    -0.166 F 
HETATM   10  F   UNK N   1      35.763  12.372  19.910  0.00  0.00    -0.166 F 
ENDBRANCH   4   7
BRANCH   1  11
HETATM   11  O   UNK N   1      34.187  12.280  13.823  0.00  0.00    -0.361 OA
HETATM   12  H   UNK N   1      34.660  11.863  13.130  0.00  0.00     0.217 HD
ENDBRANCH   1  11
TORSDOF 2
ENDMDL
MODEL 9
REMARK VINA RESULT:      -4.5      2.023      2.416
REMARK  2 active torsions:
REMARK  status: ('A' for Active; 'I' for Inactive)
REMARK    1  A    between atoms: O_1  and  C_2 
REMARK    2  A    between atoms: C_5  and  C_8 
ROOT
HETATM    1  C   UNK N   1      20.489  14.185   7.520  0.00  0.00     0.065 A 
HETATM    2  C   UNK N   1      20.383  14.663   8.830  0.00  0.00     0.037 A 
HETATM    3  C   UNK N   1      21.023  13.992   9.875  0.00  0.00     0.019 A 
HETATM    4  C   UNK N   1      21.768  12.830   9.618  0.00  0.00     0.048 A 
HETATM    5  C   UNK N   1      21.861  12.348   8.304  0.00  0.00     0.019 A 
HETATM    6  C   UNK N   1      21.227  13.027   7.259  0.00  0.00     0.037 A 
ENDROOT
BRANCH   4   7
HETATM    7  C   UNK N   1      22.473  12.107  10.728  0.00  0.00     0.417 C 
HETATM    8  F   UNK N   1      21.635  12.003  11.822  0.00  0.00    -0.166 F 
HETATM    9  F   UNK N   1      22.823  10.838  10.303  0.00  0.00    -0.166 F 
HETATM   10  F   UNK N   1      23.623  12.779  11.110  0.00  0.00    -0.166 F 
ENDBRANCH   4   7
BRANCH   1  11
HETATM   11  O   UNK N   1      19.885  14.837   6.516  0.00  0.00    -0.361 OA
HETATM   12  H   UNK N   1      19.951  15.770   6.455  0.00  0.00     0.217 HD
ENDBRANCH   1  11
TORSDOF 2
ENDMDL
