REMARK  11 active torsions:
REMARK  status: ('A' for Active; 'I' for Inactive)
REMARK    1  A    between atoms: C_2  and  N_3 
REMARK    2  A    between atoms: C_2  and  C_4 
REMARK    3  A    between atoms: C_4  and  C_5 
REMARK    4  A    between atoms: C_4  and  N_13 
REMARK    5  A    between atoms: C_5  and  C_6 
REMARK    6  A    between atoms: C_6  and  C_7 
REMARK    7  A    between atoms: C_7  and  C_8 
REMARK    8  A    between atoms: C_8  and  C_9 
REMARK    9  A    between atoms: C_9  and  C_10 
REMARK   10  A    between atoms: C_10  and  O_11 
REMARK       I    between atoms: N_13  and  C_14 
REMARK   11  A    between atoms: C_14  and  O_15 
ROOT
HETATM    1  C   UNK N   1       9.838   2.835   0.108  0.00  0.00     0.109 C 
ENDROOT
BRANCH   1   2
HETATM    2  C   UNK N   1       9.532   1.458  -0.515  0.00  0.00     0.092 C 
HETATM    3  C   UNK N   1      10.553   0.412  -0.107  0.00  0.00     0.033 C 
BRANCH   2   4
HETATM    4  N   UNK N   1       8.215   0.983  -0.124  0.00  0.00    -0.424 N 
HETATM    5  H   UNK N   1       7.465   1.617   0.150  0.00  0.00     0.150 HD
HETATM    6  H   UNK N   1       8.035  -0.021  -0.124  0.00  0.00     0.150 HD
ENDBRANCH   2   4
ENDBRANCH   1   2
BRANCH   1   7
HETATM    7  C   UNK N   1       8.718   3.818  -0.218  0.00  0.00     0.027 C 
BRANCH   7   8
HETATM    8  C   UNK N   1       7.669   3.809   0.879  0.00  0.00     0.002 C 
BRANCH   8   9
HETATM    9  C   UNK N   1       6.369   4.408   0.378  0.00  0.00     0.001 C 
BRANCH   9  10
HETATM   10  C   UNK N   1       5.498   3.304  -0.187  0.00  0.00     0.010 C 
BRANCH  10  11
HETATM   11  C   UNK N   1       4.039   3.726  -0.128  0.00  0.00     0.110 C 
BRANCH  11  12
HETATM   12  C   UNK N   1       3.105   2.551  -0.069  0.00  0.00     0.139 C 
HETATM   13  O   UNK N   1       3.531   1.406  -0.082  0.00  0.00    -0.650 OA
BRANCH  12  14
HETATM   14  O   UNK N   1       1.779   2.765   0.017  0.00  0.00    -0.776 OA
HETATM   15  H   UNK N   1       1.447   3.639   0.077  0.00  0.00     0.167 HD
ENDBRANCH  12  14
ENDBRANCH  11  12
ENDBRANCH  10  11
ENDBRANCH   9  10
ENDBRANCH   8   9
ENDBRANCH   7   8
ENDBRANCH   1   7
BRANCH   1  16
HETATM   16  N   UNK N   1      11.065   3.383  -0.434  0.00  0.00    -0.331 N 
HETATM   17  C   UNK N   1      12.299   3.077   0.038  0.00  0.00     0.250 C 
HETATM   18  O   UNK N   1      12.442   2.296   0.964  0.00  0.00    -0.632 OA
HETATM   19  H   UNK N   1      10.999   4.012  -1.188  0.00  0.00     0.165 HD
BRANCH  17  20
HETATM   20  O   UNK N   1      13.381   3.655  -0.518  0.00  0.00    -0.760 OA
HETATM   21  H   UNK N   1      14.105   3.204  -0.905  0.00  0.00     0.169 HD
ENDBRANCH  17  20
ENDBRANCH   1  16
TORSDOF 11
