MODEL 1
REMARK VINA RESULT:      -6.3      0.000      0.000
REMARK  12 active torsions:
REMARK  status: ('A' for Active; 'I' for Inactive)
REMARK    1  A    between atoms: C_4  and  C_1 
REMARK    2  A    between atoms: O_26  and  C_1 
REMARK    3  A    between atoms: C_6  and  O_18 
REMARK    4  A    between atoms: C_7  and  O_19 
REMARK    5  A    between atoms: O_28  and  C_9 
REMARK    6  A    between atoms: C_10  and  N_17 
REMARK    7  A    between atoms: P_29  and  O_20 
REMARK    8  A    between atoms: P_29  and  O_21 
REMARK    9  A    between atoms: P_30  and  O_23 
REMARK   10  A    between atoms: P_30  and  O_24 
REMARK   11  A    between atoms: P_29  and  O_26 
REMARK   12  A    between atoms: P_30  and  O_28 
ROOT
HETATM    1  C   UNK N   1      35.554   8.926  16.127  0.00  0.00     0.184 A 
HETATM    2  C   UNK N   1      35.282  13.326  15.654  0.00  0.00     0.188 A 
HETATM    3  C   UNK N   1      35.384  11.549  16.844  0.00  0.00     0.130 A 
HETATM    4  C   UNK N   1      35.378  11.186  15.554  0.00  0.00     0.143 A 
HETATM    5  C   UNK N   1      35.475  10.588  17.834  0.00  0.00     0.185 A 
HETATM    6  N   UNK N   1      35.455   9.890  15.162  0.00  0.00    -0.336 N 
ATOM      7  HN  UNK N   1      35.438   9.640  14.174  1.00  0.00     0.168 HD
HETATM    8  N   UNK N   1      35.570   9.276  17.455  0.00  0.00    -0.331 N 
ATOM      9  HN  UNK N   1      35.654   8.550  18.166  1.00  0.00     0.168 HD
HETATM   10  N   UNK N   1      35.322  12.889  16.946  0.00  0.00    -0.346 N 
ATOM     11  HN  UNK N   1      35.308  13.452  17.797  1.00  0.00     0.167 HD
HETATM   12  N   UNK N   1      35.303  12.285  14.782  0.00  0.00    -0.297 N 
ENDROOT
BRANCH  12  13
HETATM   13  C   UNK N   1      35.224  12.339  13.314  0.00  0.00     0.262 C 
HETATM   14  C   UNK N   1      36.581  11.992  12.639  0.00  0.00     0.198 C 
HETATM   15  C   UNK N   1      36.723  13.142  11.672  0.00  0.00     0.182 C 
HETATM   16  C   UNK N   1      36.099  14.227  12.516  0.00  0.00     0.180 C 
HETATM   17  O   UNK N   1      34.883  13.660  12.924  0.00  0.00    -0.353 OA
BRANCH  14  18
HETATM   18  O   UNK N   1      37.629  12.045  13.569  0.00  0.00    -0.388 OA
HETATM   19  H   UNK N   1      38.339  11.574  14.034  0.00  0.00     0.210 HD
ENDBRANCH  14  18
BRANCH  15  20
HETATM   20  O   UNK N   1      38.051  13.405  11.323  0.00  0.00    -0.390 OA
HETATM   21  H   UNK N   1      38.993  13.506  11.529  0.00  0.00     0.210 HD
ENDBRANCH  15  20
BRANCH  16  22
HETATM   22  C   UNK N   1      35.883  15.564  11.826  0.00  0.00     0.215 C 
BRANCH  22  23
HETATM   23  O   UNK N   1      35.955  15.451  10.439  0.00  0.00    -0.294 OA
BRANCH  23  24
HETATM   24  P   UNK N   1      34.324  15.682   9.878  0.00  0.00     0.390 P 
HETATM   25  O   UNK N   1      34.147  14.941   8.523  0.00  0.00    -0.632 OA
BRANCH  24  26
HETATM   26  O   UNK N   1      34.020  17.361   9.567  0.00  0.00    -0.307 OA
HETATM   27  H   UNK N   1      34.531  18.170   9.721  0.00  0.00     0.222 HD
ENDBRANCH  24  26
BRANCH  24  28
HETATM   28  O   UNK N   1      33.165  15.031  10.993  0.00  0.00    -0.307 OA
HETATM   29  H   UNK N   1      32.213  15.193  10.899  0.00  0.00     0.222 HD
ENDBRANCH  24  28
ENDBRANCH  23  24
ENDBRANCH  22  23
ENDBRANCH  16  22
ENDBRANCH  12  13
BRANCH   5  30
HETATM   30  O   UNK N   1      35.478  10.944  19.131  0.00  0.00    -0.235 OA
BRANCH  30  31
HETATM   31  P   UNK N   1      36.541  10.211  20.256  0.00  0.00     0.397 P 
HETATM   32  O   UNK N   1      35.291   9.323  20.480  0.00  0.00    -0.631 OA
BRANCH  31  33
HETATM   33  O   UNK N   1      36.297  10.427  21.959  0.00  0.00    -0.307 OA
HETATM   34  H   UNK N   1      36.958  10.846  22.531  0.00  0.00     0.222 HD
ENDBRANCH  31  33
BRANCH  31  35
HETATM   35  O   UNK N   1      36.133  11.848  20.676  0.00  0.00    -0.307 OA
HETATM   36  H   UNK N   1      36.734  12.381  21.220  0.00  0.00     0.222 HD
ENDBRANCH  31  35
ENDBRANCH  30  31
ENDBRANCH   5  30
TORSDOF 12
ENDMDL
MODEL 2
REMARK VINA RESULT:      -6.2      2.550      4.167
REMARK  12 active torsions:
REMARK  status: ('A' for Active; 'I' for Inactive)
REMARK    1  A    between atoms: C_4  and  C_1 
REMARK    2  A    between atoms: O_26  and  C_1 
REMARK    3  A    between atoms: C_6  and  O_18 
REMARK    4  A    between atoms: C_7  and  O_19 
REMARK    5  A    between atoms: O_28  and  C_9 
REMARK    6  A    between atoms: C_10  and  N_17 
REMARK    7  A    between atoms: P_29  and  O_20 
REMARK    8  A    between atoms: P_29  and  O_21 
REMARK    9  A    between atoms: P_30  and  O_23 
REMARK   10  A    between atoms: P_30  and  O_24 
REMARK   11  A    between atoms: P_29  and  O_26 
REMARK   12  A    between atoms: P_30  and  O_28 
ROOT
HETATM    1  C   UNK N   1      36.955  14.799  15.254  0.00  0.00     0.184 A 
HETATM    2  C   UNK N   1      34.863  12.764  11.917  0.00  0.00     0.188 A 
HETATM    3  C   UNK N   1      35.380  12.974  13.984  0.00  0.00     0.130 A 
HETATM    4  C   UNK N   1      36.018  13.932  13.295  0.00  0.00     0.143 A 
HETATM    5  C   UNK N   1      35.518  12.900  15.357  0.00  0.00     0.185 A 
HETATM    6  N   UNK N   1      36.814  14.852  13.895  0.00  0.00    -0.336 N 
ATOM      7  HN  UNK N   1      37.295  15.564  13.346  1.00  0.00     0.168 HD
HETATM    8  N   UNK N   1      36.305  13.832  15.980  0.00  0.00    -0.331 N 
ATOM      9  HN  UNK N   1      36.408  13.807  16.994  1.00  0.00     0.168 HD
HETATM   10  N   UNK N   1      34.645  12.218  13.148  0.00  0.00    -0.346 N 
ATOM     11  HN  UNK N   1      34.058  11.417  13.382  1.00  0.00     0.167 HD
HETATM   12  N   UNK N   1      35.719  13.817  11.989  0.00  0.00    -0.297 N 
ENDROOT
BRANCH  12  13
HETATM   13  C   UNK N   1      36.238  14.632  10.880  0.00  0.00     0.262 C 
HETATM   14  C   UNK N   1      35.776  16.113  10.974  0.00  0.00     0.198 C 
HETATM   15  C   UNK N   1      35.259  16.343   9.574  0.00  0.00     0.182 C 
HETATM   16  C   UNK N   1      34.687  14.969   9.315  0.00  0.00     0.180 C 
HETATM   17  O   UNK N   1      35.740  14.109   9.658  0.00  0.00    -0.353 OA
BRANCH  14  18
HETATM   18  O   UNK N   1      34.714  16.249  11.880  0.00  0.00    -0.388 OA
HETATM   19  H   UNK N   1      34.419  16.516  12.765  0.00  0.00     0.210 HD
ENDBRANCH  14  18
BRANCH  15  20
HETATM   20  O   UNK N   1      34.308  17.364   9.500  0.00  0.00    -0.390 OA
HETATM   21  H   UNK N   1      34.007  18.244   9.223  0.00  0.00     0.210 HD
ENDBRANCH  15  20
BRANCH  16  22
HETATM   22  C   UNK N   1      34.196  14.709   7.901  0.00  0.00     0.215 C 
BRANCH  22  23
HETATM   23  O   UNK N   1      33.231  15.635   7.507  0.00  0.00    -0.294 OA
BRANCH  23  24
HETATM   24  P   UNK N   1      33.909  16.438   6.120  0.00  0.00     0.390 P 
HETATM   25  O   UNK N   1      35.254  15.752   5.749  0.00  0.00    -0.632 OA
BRANCH  24  26
HETATM   26  O   UNK N   1      34.284  18.089   6.495  0.00  0.00    -0.307 OA
HETATM   27  H   UNK N   1      34.901  18.507   7.115  0.00  0.00     0.222 HD
ENDBRANCH  24  26
BRANCH  24  28
HETATM   28  O   UNK N   1      32.861  16.330   4.742  0.00  0.00    -0.307 OA
HETATM   29  H   UNK N   1      32.113  15.713   4.711  0.00  0.00     0.222 HD
ENDBRANCH  24  28
ENDBRANCH  23  24
ENDBRANCH  22  23
ENDBRANCH  16  22
ENDBRANCH  12  13
BRANCH   5  30
HETATM   30  O   UNK N   1      34.885  11.940  16.054  0.00  0.00    -0.235 OA
BRANCH  30  31
HETATM   31  P   UNK N   1      35.742  10.866  17.076  0.00  0.00     0.397 P 
HETATM   32  O   UNK N   1      34.590   9.926  16.638  0.00  0.00    -0.631 OA
BRANCH  31  33
HETATM   33  O   UNK N   1      35.089  10.418  18.620  0.00  0.00    -0.307 OA
HETATM   34  H   UNK N   1      34.193  10.663  18.897  0.00  0.00     0.222 HD
ENDBRANCH  31  33
BRANCH  31  35
HETATM   35  O   UNK N   1      35.055  12.214  17.933  0.00  0.00    -0.307 OA
HETATM   36  H   UNK N   1      35.465  12.537  18.750  0.00  0.00     0.222 HD
ENDBRANCH  31  35
ENDBRANCH  30  31
ENDBRANCH   5  30
TORSDOF 12
ENDMDL
MODEL 3
REMARK VINA RESULT:      -6.2      4.582      6.756
REMARK  12 active torsions:
REMARK  status: ('A' for Active; 'I' for Inactive)
REMARK    1  A    between atoms: C_4  and  C_1 
REMARK    2  A    between atoms: O_26  and  C_1 
REMARK    3  A    between atoms: C_6  and  O_18 
REMARK    4  A    between atoms: C_7  and  O_19 
REMARK    5  A    between atoms: O_28  and  C_9 
REMARK    6  A    between atoms: C_10  and  N_17 
REMARK    7  A    between atoms: P_29  and  O_20 
REMARK    8  A    between atoms: P_29  and  O_21 
REMARK    9  A    between atoms: P_30  and  O_23 
REMARK   10  A    between atoms: P_30  and  O_24 
REMARK   11  A    between atoms: P_29  and  O_26 
REMARK   12  A    between atoms: P_30  and  O_28 
ROOT
HETATM    1  C   UNK N   1      38.025  14.041  10.145  0.00  0.00     0.184 A 
HETATM    2  C   UNK N   1      33.640  14.514  10.600  0.00  0.00     0.188 A 
HETATM    3  C   UNK N   1      35.548  13.797  11.255  0.00  0.00     0.130 A 
HETATM    4  C   UNK N   1      35.719  14.426  10.083  0.00  0.00     0.143 A 
HETATM    5  C   UNK N   1      36.636  13.258  11.918  0.00  0.00     0.185 A 
HETATM    6  N   UNK N   1      36.936  14.559   9.500  0.00  0.00    -0.336 N 
ATOM      7  HN  UNK N   1      37.038  15.033   8.603  1.00  0.00     0.168 HD
HETATM    8  N   UNK N   1      37.874  13.400  11.351  0.00  0.00    -0.331 N 
ATOM      9  HN  UNK N   1      38.693  13.026  11.829  1.00  0.00     0.168 HD
HETATM   10  N   UNK N   1      34.252  13.830  11.611  0.00  0.00    -0.346 N 
ATOM     11  HN  UNK N   1      33.821  13.434  12.447  1.00  0.00     0.167 HD
HETATM   12  N   UNK N   1      34.532  14.878   9.642  0.00  0.00    -0.297 N 
ENDROOT
BRANCH  12  13
HETATM   13  C   UNK N   1      34.259  15.580   8.379  0.00  0.00     0.262 C 
HETATM   14  C   UNK N   1      34.641  17.085   8.449  0.00  0.00     0.198 C 
HETATM   15  C   UNK N   1      33.384  17.726   7.913  0.00  0.00     0.182 C 
HETATM   16  C   UNK N   1      32.374  16.764   8.490  0.00  0.00     0.180 C 
HETATM   17  O   UNK N   1      32.868  15.508   8.108  0.00  0.00    -0.353 OA
BRANCH  14  18
HETATM   18  O   UNK N   1      34.829  17.491   9.778  0.00  0.00    -0.388 OA
HETATM   19  H   UNK N   1      34.822  18.215  10.425  0.00  0.00     0.210 HD
ENDBRANCH  14  18
BRANCH  15  20
HETATM   20  O   UNK N   1      33.209  19.043   8.349  0.00  0.00    -0.390 OA
HETATM   21  H   UNK N   1      33.332  19.764   8.985  0.00  0.00     0.210 HD
ENDBRANCH  15  20
BRANCH  16  22
HETATM   22  C   UNK N   1      30.937  16.956   8.036  0.00  0.00     0.215 C 
BRANCH  22  23
HETATM   23  O   UNK N   1      30.316  18.009   8.707  0.00  0.00    -0.294 OA
BRANCH  23  24
HETATM   24  P   UNK N   1      28.673  18.008   8.135  0.00  0.00     0.390 P 
HETATM   25  O   UNK N   1      28.404  19.337   7.374  0.00  0.00    -0.632 OA
BRANCH  24  26
HETATM   26  O   UNK N   1      27.564  17.969   9.468  0.00  0.00    -0.307 OA
HETATM   27  H   UNK N   1      27.134  17.249   9.954  0.00  0.00     0.222 HD
ENDBRANCH  24  26
BRANCH  24  28
HETATM   28  O   UNK N   1      28.378  16.700   7.035  0.00  0.00    -0.307 OA
HETATM   29  H   UNK N   1      27.860  16.816   6.223  0.00  0.00     0.222 HD
ENDBRANCH  24  28
ENDBRANCH  23  24
ENDBRANCH  22  23
ENDBRANCH  16  22
ENDBRANCH  12  13
BRANCH   5  30
HETATM   30  O   UNK N   1      36.472  12.623  13.092  0.00  0.00    -0.235 OA
BRANCH  30  31
HETATM   31  P   UNK N   1      36.298  13.489  14.559  0.00  0.00     0.397 P 
HETATM   32  O   UNK N   1      36.529  14.679  13.593  0.00  0.00    -0.631 OA
BRANCH  31  33
HETATM   33  O   UNK N   1      37.675  14.239  15.300  0.00  0.00    -0.307 OA
HETATM   34  H   UNK N   1      37.620  15.093  15.756  0.00  0.00     0.222 HD
ENDBRANCH  31  33
BRANCH  31  35
HETATM   35  O   UNK N   1      37.712  12.477  14.532  0.00  0.00    -0.307 OA
HETATM   36  H   UNK N   1      38.503  12.751  14.042  0.00  0.00     0.222 HD
ENDBRANCH  31  35
ENDBRANCH  30  31
ENDBRANCH   5  30
TORSDOF 12
ENDMDL
MODEL 4
REMARK VINA RESULT:      -6.1     15.491     19.161
REMARK  12 active torsions:
REMARK  status: ('A' for Active; 'I' for Inactive)
REMARK    1  A    between atoms: C_4  and  C_1 
REMARK    2  A    between atoms: O_26  and  C_1 
REMARK    3  A    between atoms: C_6  and  O_18 
REMARK    4  A    between atoms: C_7  and  O_19 
REMARK    5  A    between atoms: O_28  and  C_9 
REMARK    6  A    between atoms: C_10  and  N_17 
REMARK    7  A    between atoms: P_29  and  O_20 
REMARK    8  A    between atoms: P_29  and  O_21 
REMARK    9  A    between atoms: P_30  and  O_23 
REMARK   10  A    between atoms: P_30  and  O_24 
REMARK   11  A    between atoms: P_29  and  O_26 
REMARK   12  A    between atoms: P_30  and  O_28 
ROOT
HETATM    1  C   UNK N   1      19.678  15.885   1.139  0.00  0.00     0.184 A 
HETATM    2  C   UNK N   1      21.192  16.169   5.296  0.00  0.00     0.188 A 
HETATM    3  C   UNK N   1      20.423  17.033   3.495  0.00  0.00     0.130 A 
HETATM    4  C   UNK N   1      20.544  15.711   3.304  0.00  0.00     0.143 A 
HETATM    5  C   UNK N   1      19.918  17.836   2.489  0.00  0.00     0.185 A 
HETATM    6  N   UNK N   1      20.188  15.109   2.142  0.00  0.00    -0.336 N 
ATOM      7  HN  UNK N   1      20.300  14.103   2.020  1.00  0.00     0.168 HD
HETATM    8  N   UNK N   1      19.538  17.240   1.316  0.00  0.00    -0.331 N 
ATOM      9  HN  UNK N   1      19.146  17.808   0.565  1.00  0.00     0.168 HD
HETATM   10  N   UNK N   1      20.824  17.358   4.737  0.00  0.00    -0.346 N 
ATOM     11  HN  UNK N   1      20.849  18.284   5.165  1.00  0.00     0.167 HD
HETATM   12  N   UNK N   1      21.036  15.143   4.419  0.00  0.00    -0.297 N 
ENDROOT
BRANCH  12  13
HETATM   13  C   UNK N   1      21.367  13.725   4.625  0.00  0.00     0.262 C 
HETATM   14  C   UNK N   1      20.492  13.073   5.732  0.00  0.00     0.198 C 
HETATM   15  C   UNK N   1      21.549  12.405   6.578  0.00  0.00     0.182 C 
HETATM   16  C   UNK N   1      22.643  13.435   6.429  0.00  0.00     0.180 C 
HETATM   17  O   UNK N   1      22.720  13.628   5.042  0.00  0.00    -0.353 OA
BRANCH  14  18
HETATM   18  O   UNK N   1      19.845  14.052   6.499  0.00  0.00    -0.388 OA
HETATM   19  H   UNK N   1      19.811  14.557   7.328  0.00  0.00     0.210 HD
ENDBRANCH  14  18
BRANCH  15  20
HETATM   20  O   UNK N   1      21.149  12.207   7.903  0.00  0.00    -0.390 OA
HETATM   21  H   UNK N   1      20.570  12.373   8.663  0.00  0.00     0.210 HD
ENDBRANCH  15  20
BRANCH  16  22
HETATM   22  C   UNK N   1      23.995  13.058   7.012  0.00  0.00     0.215 C 
BRANCH  22  23
HETATM   23  O   UNK N   1      24.379  13.923   8.035  0.00  0.00    -0.294 OA
BRANCH  23  24
HETATM   24  P   UNK N   1      24.164  13.016   9.505  0.00  0.00     0.390 P 
HETATM   25  O   UNK N   1      24.038  11.508   9.151  0.00  0.00    -0.632 OA
BRANCH  24  26
HETATM   26  O   UNK N   1      22.682  13.466  10.285  0.00  0.00    -0.307 OA
HETATM   27  H   UNK N   1      22.039  12.979  10.824  0.00  0.00     0.222 HD
ENDBRANCH  24  26
BRANCH  24  28
HETATM   28  O   UNK N   1      25.517  13.199  10.574  0.00  0.00    -0.307 OA
HETATM   29  H   UNK N   1      25.790  12.495  11.183  0.00  0.00     0.222 HD
ENDBRANCH  24  28
ENDBRANCH  23  24
ENDBRANCH  22  23
ENDBRANCH  16  22
ENDBRANCH  12  13
BRANCH   5  30
HETATM   30  O   UNK N   1      19.797  19.163   2.671  0.00  0.00    -0.235 OA
BRANCH  30  31
HETATM   31  P   UNK N   1      21.160  20.199   2.617  0.00  0.00     0.397 P 
HETATM   32  O   UNK N   1      20.359  20.899   3.744  0.00  0.00    -0.631 OA
BRANCH  31  33
HETATM   33  O   UNK N   1      21.017  21.798   1.961  0.00  0.00    -0.307 OA
HETATM   34  H   UNK N   1      21.715  22.464   2.056  0.00  0.00     0.222 HD
ENDBRANCH  31  33
BRANCH  31  35
HETATM   35  O   UNK N   1      20.212  20.247   1.159  0.00  0.00    -0.307 OA
HETATM   36  H   UNK N   1      20.510  19.779   0.364  0.00  0.00     0.222 HD
ENDBRANCH  31  35
ENDBRANCH  30  31
ENDBRANCH   5  30
TORSDOF 12
ENDMDL
MODEL 5
REMARK VINA RESULT:      -6.0      4.579      8.574
REMARK  12 active torsions:
REMARK  status: ('A' for Active; 'I' for Inactive)
REMARK    1  A    between atoms: C_4  and  C_1 
REMARK    2  A    between atoms: O_26  and  C_1 
REMARK    3  A    between atoms: C_6  and  O_18 
REMARK    4  A    between atoms: C_7  and  O_19 
REMARK    5  A    between atoms: O_28  and  C_9 
REMARK    6  A    between atoms: C_10  and  N_17 
REMARK    7  A    between atoms: P_29  and  O_20 
REMARK    8  A    between atoms: P_29  and  O_21 
REMARK    9  A    between atoms: P_30  and  O_23 
REMARK   10  A    between atoms: P_30  and  O_24 
REMARK   11  A    between atoms: P_29  and  O_26 
REMARK   12  A    between atoms: P_30  and  O_28 
ROOT
HETATM    1  C   UNK N   1      35.684  16.480  11.214  0.00  0.00     0.184 A 
HETATM    2  C   UNK N   1      36.362  13.702   7.827  0.00  0.00     0.188 A 
HETATM    3  C   UNK N   1      35.304  15.294   8.791  0.00  0.00     0.130 A 
HETATM    4  C   UNK N   1      36.268  14.871   9.622  0.00  0.00     0.143 A 
HETATM    5  C   UNK N   1      34.484  16.345   9.158  0.00  0.00     0.185 A 
HETATM    6  N   UNK N   1      36.480  15.434  10.837  0.00  0.00    -0.336 N 
ATOM      7  HN  UNK N   1      37.213  15.086  11.454  1.00  0.00     0.168 HD
HETATM    8  N   UNK N   1      34.696  16.935  10.375  0.00  0.00    -0.331 N 
ATOM      9  HN  UNK N   1      34.115  17.723  10.661  1.00  0.00     0.168 HD
HETATM   10  N   UNK N   1      35.332  14.579   7.652  0.00  0.00    -0.346 N 
ATOM     11  HN  UNK N   1      34.721  14.672   6.839  1.00  0.00     0.167 HD
HETATM   12  N   UNK N   1      36.942  13.861   9.045  0.00  0.00    -0.297 N 
ENDROOT
BRANCH  12  13
HETATM   13  C   UNK N   1      38.044  13.078   9.625  0.00  0.00     0.262 C 
HETATM   14  C   UNK N   1      37.964  11.575   9.237  0.00  0.00     0.198 C 
HETATM   15  C   UNK N   1      38.123  10.920  10.588  0.00  0.00     0.182 C 
HETATM   16  C   UNK N   1      37.382  11.938  11.422  0.00  0.00     0.180 C 
HETATM   17  O   UNK N   1      37.963  13.156  11.040  0.00  0.00    -0.353 OA
BRANCH  14  18
HETATM   18  O   UNK N   1      36.699  11.258   8.722  0.00  0.00    -0.388 OA
HETATM   19  H   UNK N   1      36.180  10.790   8.049  0.00  0.00     0.210 HD
ENDBRANCH  14  18
BRANCH  15  20
HETATM   20  O   UNK N   1      37.565   9.640  10.648  0.00  0.00    -0.390 OA
HETATM   21  H   UNK N   1      36.874   9.012  10.909  0.00  0.00     0.210 HD
ENDBRANCH  15  20
BRANCH  16  22
HETATM   22  C   UNK N   1      37.448  11.739  12.927  0.00  0.00     0.215 C 
BRANCH  22  23
HETATM   23  O   UNK N   1      36.182  11.569  13.485  0.00  0.00    -0.294 OA
BRANCH  23  24
HETATM   24  P   UNK N   1      35.552  13.178  13.685  0.00  0.00     0.390 P 
HETATM   25  O   UNK N   1      34.767  13.249  15.026  0.00  0.00    -0.632 OA
BRANCH  24  26
HETATM   26  O   UNK N   1      34.416  13.548  12.428  0.00  0.00    -0.307 OA
HETATM   27  H   UNK N   1      34.507  13.714  11.477  0.00  0.00     0.222 HD
ENDBRANCH  24  26
BRANCH  24  28
HETATM   28  O   UNK N   1      36.821  14.359  13.751  0.00  0.00    -0.307 OA
HETATM   29  H   UNK N   1      37.748  14.128  13.584  0.00  0.00     0.222 HD
ENDBRANCH  24  28
ENDBRANCH  23  24
ENDBRANCH  22  23
ENDBRANCH  16  22
ENDBRANCH  12  13
BRANCH   5  30
HETATM   30  O   UNK N   1      33.513  16.772   8.332  0.00  0.00    -0.235 OA
BRANCH  30  31
HETATM   31  P   UNK N   1      31.945  16.086   8.366  0.00  0.00     0.397 P 
HETATM   32  O   UNK N   1      32.152  16.159   6.831  0.00  0.00    -0.631 OA
BRANCH  31  33
HETATM   33  O   UNK N   1      30.566  17.030   7.902  0.00  0.00    -0.307 OA
HETATM   34  H   UNK N   1      30.008  17.488   8.548  0.00  0.00     0.222 HD
ENDBRANCH  31  33
BRANCH  31  35
HETATM   35  O   UNK N   1      31.991  17.702   9.004  0.00  0.00    -0.307 OA
HETATM   36  H   UNK N   1      32.646  17.948   9.675  0.00  0.00     0.222 HD
ENDBRANCH  31  35
ENDBRANCH  30  31
ENDBRANCH   5  30
TORSDOF 12
ENDMDL
MODEL 6
REMARK VINA RESULT:      -6.0      4.916      7.342
REMARK  12 active torsions:
REMARK  status: ('A' for Active; 'I' for Inactive)
REMARK    1  A    between atoms: C_4  and  C_1 
REMARK    2  A    between atoms: O_26  and  C_1 
REMARK    3  A    between atoms: C_6  and  O_18 
REMARK    4  A    between atoms: C_7  and  O_19 
REMARK    5  A    between atoms: O_28  and  C_9 
REMARK    6  A    between atoms: C_10  and  N_17 
REMARK    7  A    between atoms: P_29  and  O_20 
REMARK    8  A    between atoms: P_29  and  O_21 
REMARK    9  A    between atoms: P_30  and  O_23 
REMARK   10  A    between atoms: P_30  and  O_24 
REMARK   11  A    between atoms: P_29  and  O_26 
REMARK   12  A    between atoms: P_30  and  O_28 
ROOT
HETATM    1  C   UNK N   1      37.396  13.922  10.051  0.00  0.00     0.184 A 
HETATM    2  C   UNK N   1      33.119  14.971   9.544  0.00  0.00     0.188 A 
HETATM    3  C   UNK N   1      34.820  14.478  10.745  0.00  0.00     0.130 A 
HETATM    4  C   UNK N   1      35.196  14.448   9.458  0.00  0.00     0.143 A 
HETATM    5  C   UNK N   1      35.743  14.222  11.743  0.00  0.00     0.185 A 
HETATM    6  N   UNK N   1      36.467  14.169   9.078  0.00  0.00    -0.336 N 
ATOM      7  HN  UNK N   1      36.725  14.143   8.091  1.00  0.00     0.168 HD
HETATM    8  N   UNK N   1      37.035  13.956  11.376  0.00  0.00    -0.331 N 
ATOM      9  HN  UNK N   1      37.737  13.781  12.094  1.00  0.00     0.168 HD
HETATM   10  N   UNK N   1      33.518  14.801  10.837  0.00  0.00    -0.346 N 
ATOM     11  HN  UNK N   1      32.955  14.898  11.683  1.00  0.00     0.167 HD
HETATM   12  N   UNK N   1      34.141  14.744   8.679  0.00  0.00    -0.297 N 
ENDROOT
BRANCH  12  13
HETATM   13  C   UNK N   1      34.100  14.777   7.209  0.00  0.00     0.262 C 
HETATM   14  C   UNK N   1      34.702  16.090   6.634  0.00  0.00     0.198 C 
HETATM   15  C   UNK N   1      33.616  16.508   5.672  0.00  0.00     0.182 C 
HETATM   16  C   UNK N   1      32.419  16.037   6.464  0.00  0.00     0.180 C 
HETATM   17  O   UNK N   1      32.746  14.712   6.789  0.00  0.00    -0.353 OA
BRANCH  14  18
HETATM   18  O   UNK N   1      34.825  17.064   7.635  0.00  0.00    -0.388 OA
HETATM   19  H   UNK N   1      34.445  17.839   8.077  0.00  0.00     0.210 HD
ENDBRANCH  14  18
BRANCH  15  20
HETATM   20  O   UNK N   1      33.607  17.882   5.417  0.00  0.00    -0.390 OA
HETATM   21  H   UNK N   1      33.589  18.811   5.695  0.00  0.00     0.210 HD
ENDBRANCH  15  20
BRANCH  16  22
HETATM   22  C   UNK N   1      31.078  16.119   5.753  0.00  0.00     0.215 C 
BRANCH  22  23
HETATM   23  O   UNK N   1      30.869  17.373   5.182  0.00  0.00    -0.294 OA
BRANCH  23  24
HETATM   24  P   UNK N   1      29.150  17.632   5.270  0.00  0.00     0.390 P 
HETATM   25  O   UNK N   1      28.784  18.101   6.707  0.00  0.00    -0.632 OA
BRANCH  24  26
HETATM   26  O   UNK N   1      28.296  16.147   5.002  0.00  0.00    -0.307 OA
HETATM   27  H   UNK N   1      27.865  15.512   5.594  0.00  0.00     0.222 HD
ENDBRANCH  24  26
BRANCH  24  28
HETATM   28  O   UNK N   1      28.631  18.863   4.163  0.00  0.00    -0.307 OA
HETATM   29  H   UNK N   1      27.698  18.978   3.922  0.00  0.00     0.222 HD
ENDBRANCH  24  28
ENDBRANCH  23  24
ENDBRANCH  22  23
ENDBRANCH  16  22
ENDBRANCH  12  13
BRANCH   5  30
HETATM   30  O   UNK N   1      35.373  14.247  13.035  0.00  0.00    -0.235 OA
BRANCH  30  31
HETATM   31  P   UNK N   1      36.230  13.363  14.226  0.00  0.00     0.397 P 
HETATM   32  O   UNK N   1      34.835  13.404  14.901  0.00  0.00    -0.631 OA
BRANCH  31  33
HETATM   33  O   UNK N   1      36.631  14.101  15.744  0.00  0.00    -0.307 OA
HETATM   34  H   UNK N   1      37.541  14.154  16.073  0.00  0.00     0.222 HD
ENDBRANCH  31  33
BRANCH  31  35
HETATM   35  O   UNK N   1      36.802  14.996  14.050  0.00  0.00    -0.307 OA
HETATM   36  H   UNK N   1      36.511  15.688  14.665  0.00  0.00     0.222 HD
ENDBRANCH  31  35
ENDBRANCH  30  31
ENDBRANCH   5  30
TORSDOF 12
ENDMDL
MODEL 7
REMARK VINA RESULT:      -6.0     12.140     16.341
REMARK  12 active torsions:
REMARK  status: ('A' for Active; 'I' for Inactive)
REMARK    1  A    between atoms: C_4  and  C_1 
REMARK    2  A    between atoms: O_26  and  C_1 
REMARK    3  A    between atoms: C_6  and  O_18 
REMARK    4  A    between atoms: C_7  and  O_19 
REMARK    5  A    between atoms: O_28  and  C_9 
REMARK    6  A    between atoms: C_10  and  N_17 
REMARK    7  A    between atoms: P_29  and  O_20 
REMARK    8  A    between atoms: P_29  and  O_21 
REMARK    9  A    between atoms: P_30  and  O_23 
REMARK   10  A    between atoms: P_30  and  O_24 
REMARK   11  A    between atoms: P_29  and  O_26 
REMARK   12  A    between atoms: P_30  and  O_28 
ROOT
HETATM    1  C   UNK N   1      22.621  17.220   5.708  0.00  0.00     0.184 A 
HETATM    2  C   UNK N   1      26.367  18.573   3.762  0.00  0.00     0.188 A 
HETATM    3  C   UNK N   1      24.258  18.697   4.108  0.00  0.00     0.130 A 
HETATM    4  C   UNK N   1      24.738  17.670   4.824  0.00  0.00     0.143 A 
HETATM    5  C   UNK N   1      22.915  19.020   4.172  0.00  0.00     0.185 A 
HETATM    6  N   UNK N   1      23.950  16.911   5.625  0.00  0.00    -0.336 N 
ATOM      7  HN  UNK N   1      24.338  16.128   6.151  1.00  0.00     0.168 HD
HETATM    8  N   UNK N   1      22.109  18.273   4.990  0.00  0.00    -0.331 N 
ATOM      9  HN  UNK N   1      21.118  18.502   5.067  1.00  0.00     0.168 HD
HETATM   10  N   UNK N   1      25.254  19.288   3.425  0.00  0.00    -0.346 N 
ATOM     11  HN  UNK N   1      25.193  20.090   2.796  1.00  0.00     0.167 HD
HETATM   12  N   UNK N   1      26.062  17.562   4.616  0.00  0.00    -0.297 N 
ENDROOT
BRANCH  12  13
HETATM   13  C   UNK N   1      26.971  16.545   5.167  0.00  0.00     0.262 C 
HETATM   14  C   UNK N   1      27.514  16.941   6.569  0.00  0.00     0.198 C 
HETATM   15  C   UNK N   1      28.994  16.713   6.378  0.00  0.00     0.182 C 
HETATM   16  C   UNK N   1      29.105  17.142   4.934  0.00  0.00     0.180 C 
HETATM   17  O   UNK N   1      28.087  16.414   4.301  0.00  0.00    -0.353 OA
BRANCH  14  18
HETATM   18  O   UNK N   1      27.290  18.301   6.825  0.00  0.00    -0.388 OA
HETATM   19  H   UNK N   1      27.670  19.176   7.005  0.00  0.00     0.210 HD
ENDBRANCH  14  18
BRANCH  15  20
HETATM   20  O   UNK N   1      29.783  17.474   7.246  0.00  0.00    -0.390 OA
HETATM   21  H   UNK N   1      30.626  17.705   7.666  0.00  0.00     0.210 HD
ENDBRANCH  15  20
BRANCH  16  22
HETATM   22  C   UNK N   1      30.452  16.903   4.272  0.00  0.00     0.215 C 
BRANCH  22  23
HETATM   23  O   UNK N   1      31.403  17.839   4.675  0.00  0.00    -0.294 OA
BRANCH  23  24
HETATM   24  P   UNK N   1      32.778  16.903   5.184  0.00  0.00     0.390 P 
HETATM   25  O   UNK N   1      33.898  17.871   5.660  0.00  0.00    -0.632 OA
BRANCH  24  26
HETATM   26  O   UNK N   1      33.433  16.009   3.850  0.00  0.00    -0.307 OA
HETATM   27  H   UNK N   1      33.246  15.132   3.481  0.00  0.00     0.222 HD
ENDBRANCH  24  26
BRANCH  24  28
HETATM   28  O   UNK N   1      32.385  15.855   6.509  0.00  0.00    -0.307 OA
HETATM   29  H   UNK N   1      31.866  16.160   7.270  0.00  0.00     0.222 HD
ENDBRANCH  24  28
ENDBRANCH  23  24
ENDBRANCH  22  23
ENDBRANCH  16  22
ENDBRANCH  12  13
BRANCH   5  30
HETATM   30  O   UNK N   1      22.425  20.046   3.455  0.00  0.00    -0.235 OA
BRANCH  30  31
HETATM   31  P   UNK N   1      20.759  20.156   3.076  0.00  0.00     0.397 P 
HETATM   32  O   UNK N   1      21.134  18.937   2.196  0.00  0.00    -0.631 OA
BRANCH  31  33
HETATM   33  O   UNK N   1      20.252  20.719   1.516  0.00  0.00    -0.307 OA
HETATM   34  H   UNK N   1      20.377  20.198   0.708  0.00  0.00     0.222 HD
ENDBRANCH  31  33
BRANCH  31  35
HETATM   35  O   UNK N   1      21.671  21.531   2.527  0.00  0.00    -0.307 OA
HETATM   36  H   UNK N   1      21.293  22.145   1.878  0.00  0.00     0.222 HD
ENDBRANCH  31  35
ENDBRANCH  30  31
ENDBRANCH   5  30
TORSDOF 12
ENDMDL
MODEL 8
REMARK VINA RESULT:      -6.0      5.324     10.623
REMARK  12 active torsions:
REMARK  status: ('A' for Active; 'I' for Inactive)
REMARK    1  A    between atoms: C_4  and  C_1 
REMARK    2  A    between atoms: O_26  and  C_1 
REMARK    3  A    between atoms: C_6  and  O_18 
REMARK    4  A    between atoms: C_7  and  O_19 
REMARK    5  A    between atoms: O_28  and  C_9 
REMARK    6  A    between atoms: C_10  and  N_17 
REMARK    7  A    between atoms: P_29  and  O_20 
REMARK    8  A    between atoms: P_29  and  O_21 
REMARK    9  A    between atoms: P_30  and  O_23 
REMARK   10  A    between atoms: P_30  and  O_24 
REMARK   11  A    between atoms: P_29  and  O_26 
REMARK   12  A    between atoms: P_30  and  O_28 
ROOT
HETATM    1  C   UNK N   1      30.600  17.822   8.417  0.00  0.00     0.184 A 
HETATM    2  C   UNK N   1      33.288  14.312   8.091  0.00  0.00     0.188 A 
HETATM    3  C   UNK N   1      31.756  15.605   7.337  0.00  0.00     0.130 A 
HETATM    4  C   UNK N   1      32.103  16.037   8.558  0.00  0.00     0.143 A 
HETATM    5  C   UNK N   1      30.798  16.284   6.607  0.00  0.00     0.185 A 
HETATM    6  N   UNK N   1      31.543  17.133   9.128  0.00  0.00    -0.336 N 
ATOM      7  HN  UNK N   1      31.817  17.434  10.063  1.00  0.00     0.168 HD
HETATM    8  N   UNK N   1      30.236  17.402   7.161  0.00  0.00    -0.331 N 
ATOM      9  HN  UNK N   1      29.539  17.929   6.635  1.00  0.00     0.168 HD
HETATM   10  N   UNK N   1      32.480  14.519   7.010  0.00  0.00    -0.346 N 
ATOM     11  HN  UNK N   1      32.436  13.973   6.149  1.00  0.00     0.167 HD
HETATM   12  N   UNK N   1      33.058  15.235   9.061  0.00  0.00    -0.297 N 
ENDROOT
BRANCH  12  13
HETATM   13  C   UNK N   1      33.686  15.320  10.388  0.00  0.00     0.262 C 
HETATM   14  C   UNK N   1      34.851  16.350  10.421  0.00  0.00     0.198 C 
HETATM   15  C   UNK N   1      35.941  15.529  11.067  0.00  0.00     0.182 C 
HETATM   16  C   UNK N   1      35.604  14.187  10.462  0.00  0.00     0.180 C 
HETATM   17  O   UNK N   1      34.231  14.052  10.717  0.00  0.00    -0.353 OA
BRANCH  14  18
HETATM   18  O   UNK N   1      35.248  16.696   9.122  0.00  0.00    -0.388 OA
HETATM   19  H   UNK N   1      35.004  16.799   8.189  0.00  0.00     0.210 HD
ENDBRANCH  14  18
BRANCH  15  20
HETATM   20  O   UNK N   1      37.227  15.975  10.747  0.00  0.00    -0.390 OA
HETATM   21  H   UNK N   1      37.867  16.419  10.170  0.00  0.00     0.210 HD
ENDBRANCH  15  20
BRANCH  16  22
HETATM   22  C   UNK N   1      36.388  13.001  10.997  0.00  0.00     0.215 C 
BRANCH  22  23
HETATM   23  O   UNK N   1      37.226  13.364  12.050  0.00  0.00    -0.294 OA
BRANCH  23  24
HETATM   24  P   UNK N   1      36.482  12.702  13.476  0.00  0.00     0.390 P 
HETATM   25  O   UNK N   1      36.457  11.151  13.357  0.00  0.00    -0.632 OA
BRANCH  24  26
HETATM   26  O   UNK N   1      34.830  13.215  13.594  0.00  0.00    -0.307 OA
HETATM   27  H   UNK N   1      34.035  13.027  13.071  0.00  0.00     0.222 HD
ENDBRANCH  24  26
BRANCH  24  28
HETATM   28  O   UNK N   1      37.370  13.108  14.909  0.00  0.00    -0.307 OA
HETATM   29  H   UNK N   1      37.175  12.701  15.768  0.00  0.00     0.222 HD
ENDBRANCH  24  28
ENDBRANCH  23  24
ENDBRANCH  22  23
ENDBRANCH  16  22
ENDBRANCH  12  13
BRANCH   5  30
HETATM   30  O   UNK N   1      30.443  15.854   5.383  0.00  0.00    -0.235 OA
BRANCH  30  31
HETATM   31  P   UNK N   1      31.362  16.255   3.995  0.00  0.00     0.397 P 
HETATM   32  O   UNK N   1      31.017  17.684   4.487  0.00  0.00    -0.631 OA
BRANCH  31  33
HETATM   33  O   UNK N   1      30.582  16.900   2.586  0.00  0.00    -0.307 OA
HETATM   34  H   UNK N   1      29.961  16.381   2.052  0.00  0.00     0.222 HD
ENDBRANCH  31  33
BRANCH  31  35
HETATM   35  O   UNK N   1      29.878  15.434   3.612  0.00  0.00    -0.307 OA
HETATM   36  H   UNK N   1      29.025  15.809   3.881  0.00  0.00     0.222 HD
ENDBRANCH  31  35
ENDBRANCH  30  31
ENDBRANCH   5  30
TORSDOF 12
ENDMDL
MODEL 9
REMARK VINA RESULT:      -6.0     14.895     17.055
REMARK  12 active torsions:
REMARK  status: ('A' for Active; 'I' for Inactive)
REMARK    1  A    between atoms: C_4  and  C_1 
REMARK    2  A    between atoms: O_26  and  C_1 
REMARK    3  A    between atoms: C_6  and  O_18 
REMARK    4  A    between atoms: C_7  and  O_19 
REMARK    5  A    between atoms: O_28  and  C_9 
REMARK    6  A    between atoms: C_10  and  N_17 
REMARK    7  A    between atoms: P_29  and  O_20 
REMARK    8  A    between atoms: P_29  and  O_21 
REMARK    9  A    between atoms: P_30  and  O_23 
REMARK   10  A    between atoms: P_30  and  O_24 
REMARK   11  A    between atoms: P_29  and  O_26 
REMARK   12  A    between atoms: P_30  and  O_28 
ROOT
HETATM    1  C   UNK N   1      21.291  11.687   6.804  0.00  0.00     0.184 A 
HETATM    2  C   UNK N   1      21.788  16.040   6.129  0.00  0.00     0.188 A 
HETATM    3  C   UNK N   1      22.187  14.229   7.199  0.00  0.00     0.130 A 
HETATM    4  C   UNK N   1      21.319  13.950   6.216  0.00  0.00     0.143 A 
HETATM    5  C   UNK N   1      22.639  13.223   8.032  0.00  0.00     0.185 A 
HETATM    6  N   UNK N   1      20.849  12.697   5.996  0.00  0.00    -0.336 N 
ATOM      7  HN  UNK N   1      20.181  12.513   5.247  1.00  0.00     0.168 HD
HETATM    8  N   UNK N   1      22.187  11.949   7.812  0.00  0.00    -0.331 N 
ATOM      9  HN  UNK N   1      22.519  11.187   8.403  1.00  0.00     0.168 HD
HETATM   10  N   UNK N   1      22.503  15.537   7.176  0.00  0.00    -0.346 N 
ATOM     11  HN  UNK N   1      23.134  16.039   7.801  1.00  0.00     0.167 HD
HETATM   12  N   UNK N   1      21.042  15.074   5.533  0.00  0.00    -0.297 N 
ENDROOT
BRANCH  12  13
HETATM   13  C   UNK N   1      20.105  15.226   4.409  0.00  0.00     0.262 C 
HETATM   14  C   UNK N   1      20.625  14.542   3.114  0.00  0.00     0.198 C 
HETATM   15  C   UNK N   1      20.441  15.653   2.108  0.00  0.00     0.182 C 
HETATM   16  C   UNK N   1      20.764  16.825   3.003  0.00  0.00     0.180 C 
HETATM   17  O   UNK N   1      19.952  16.608   4.126  0.00  0.00    -0.353 OA
BRANCH  14  18
HETATM   18  O   UNK N   1      21.992  14.244   3.220  0.00  0.00    -0.388 OA
HETATM   19  H   UNK N   1      22.681  13.565   3.285  0.00  0.00     0.210 HD
ENDBRANCH  14  18
BRANCH  15  20
HETATM   20  O   UNK N   1      21.295  15.544   1.006  0.00  0.00    -0.390 OA
HETATM   21  H   UNK N   1      21.664  15.070   0.246  0.00  0.00     0.210 HD
ENDBRANCH  15  20
BRANCH  16  22
HETATM   22  C   UNK N   1      20.527  18.203   2.406  0.00  0.00     0.215 C 
BRANCH  22  23
HETATM   23  O   UNK N   1      21.676  18.991   2.446  0.00  0.00    -0.294 OA
BRANCH  23  24
HETATM   24  P   UNK N   1      21.102  20.631   2.531  0.00  0.00     0.390 P 
HETATM   25  O   UNK N   1      20.118  20.758   3.728  0.00  0.00    -0.632 OA
BRANCH  24  26
HETATM   26  O   UNK N   1      20.200  21.034   1.106  0.00  0.00    -0.307 OA
HETATM   27  H   UNK N   1      19.575  20.541   0.552  0.00  0.00     0.222 HD
ENDBRANCH  24  26
BRANCH  24  28
HETATM   28  O   UNK N   1      22.399  21.752   2.790  0.00  0.00    -0.307 OA
HETATM   29  H   UNK N   1      22.247  22.643   3.141  0.00  0.00     0.222 HD
ENDBRANCH  24  28
ENDBRANCH  23  24
ENDBRANCH  22  23
ENDBRANCH  16  22
ENDBRANCH  12  13
BRANCH   5  30
HETATM   30  O   UNK N   1      23.507  13.496   9.023  0.00  0.00    -0.235 OA
BRANCH  30  31
HETATM   31  P   UNK N   1      24.251  12.247   9.928  0.00  0.00     0.397 P 
HETATM   32  O   UNK N   1      23.040  12.538  10.852  0.00  0.00    -0.631 OA
BRANCH  31  33
HETATM   33  O   UNK N   1      25.065  12.611  11.416  0.00  0.00    -0.307 OA
HETATM   34  H   UNK N   1      25.368  13.504  11.638  0.00  0.00     0.222 HD
ENDBRANCH  31  33
BRANCH  31  35
HETATM   35  O   UNK N   1      25.224  13.685   9.829  0.00  0.00    -0.307 OA
HETATM   36  H   UNK N   1      24.910  14.458   9.335  0.00  0.00     0.222 HD
ENDBRANCH  31  35
ENDBRANCH  30  31
ENDBRANCH   5  30
TORSDOF 12
ENDMDL
