MODEL 1
REMARK VINA RESULT:      -4.4      0.000      0.000
REMARK  4 active torsions:
REMARK  status: ('A' for Active; 'I' for Inactive)
REMARK    1  A    between atoms: C_2  and  N_4 
REMARK    2  A    between atoms: N_4  and  O_5 
REMARK       I    between atoms: N_4  and  C_6 
REMARK    3  A    between atoms: C_6  and  C_8 
REMARK    4  A    between atoms: C_8  and  O_9 
ROOT
HETATM    1  N   UNK N   1      32.892  16.879   7.956  0.00  0.00    -0.215 N 
HETATM    2  C   UNK N   1      34.002  17.615   7.617  0.00  0.00     0.341 C 
HETATM    3  O   UNK N   1      34.288  17.794   6.441  0.00  0.00    -0.259 OA
ENDROOT
BRANCH   1   4
HETATM    4  C   UNK N   1      32.008  16.282   6.955  0.00  0.00     0.110 C 
HETATM    5  C   UNK N   1      30.854  17.109   6.420  0.00  0.00     0.034 C 
HETATM    6  C   UNK N   1      32.203  14.864   6.431  0.00  0.00     0.034 C 
ENDBRANCH   1   4
BRANCH   1   7
HETATM    7  O   UNK N   1      32.592  16.692   9.252  0.00  0.00    -0.284 OA
HETATM    8  H   UNK N   1      32.868  17.346   9.913  0.00  0.00     0.245 HD
ENDBRANCH   1   7
BRANCH   2   9
HETATM    9  C   UNK N   1      34.899  18.221   8.634  0.00  0.00     0.239 C 
HETATM   10  O   UNK N   1      35.378  19.333   8.477  0.00  0.00    -0.642 OA
BRANCH   9  11
HETATM   11  O   UNK N   1      35.191  17.529   9.752  0.00  0.00    -0.769 OA
HETATM   12  H   UNK N   1      34.790  16.696   9.906  0.00  0.00     0.168 HD
ENDBRANCH   9  11
ENDBRANCH   2   9
TORSDOF 4
ENDMDL
MODEL 2
REMARK VINA RESULT:      -4.4     12.228     13.745
REMARK  4 active torsions:
REMARK  status: ('A' for Active; 'I' for Inactive)
REMARK    1  A    between atoms: C_2  and  N_4 
REMARK    2  A    between atoms: N_4  and  O_5 
REMARK       I    between atoms: N_4  and  C_6 
REMARK    3  A    between atoms: C_6  and  C_8 
REMARK    4  A    between atoms: C_8  and  O_9 
ROOT
HETATM    1  N   UNK N   1      21.425  19.220   2.774  0.00  0.00    -0.215 N 
HETATM    2  C   UNK N   1      21.596  20.480   2.255  0.00  0.00     0.341 C 
HETATM    3  O   UNK N   1      22.308  21.292   2.830  0.00  0.00    -0.259 OA
ENDROOT
BRANCH   1   4
HETATM    4  C   UNK N   1      22.069  18.784   4.013  0.00  0.00     0.110 C 
HETATM    5  C   UNK N   1      23.558  18.492   3.993  0.00  0.00     0.034 C 
HETATM    6  C   UNK N   1      21.302  18.615   5.319  0.00  0.00     0.034 C 
ENDBRANCH   1   4
BRANCH   1   7
HETATM    7  O   UNK N   1      20.640  18.340   2.130  0.00  0.00    -0.284 OA
HETATM    8  H   UNK N   1      20.843  17.392   2.164  0.00  0.00     0.245 HD
ENDBRANCH   1   7
BRANCH   2   9
HETATM    9  C   UNK N   1      20.943  20.922   0.997  0.00  0.00     0.239 C 
HETATM   10  O   UNK N   1      20.861  20.182   0.029  0.00  0.00    -0.642 OA
BRANCH   9  11
HETATM   11  O   UNK N   1      20.428  22.165   0.922  0.00  0.00    -0.769 OA
HETATM   12  H   UNK N   1      19.506  22.297   1.019  0.00  0.00     0.168 HD
ENDBRANCH   9  11
ENDBRANCH   2   9
TORSDOF 4
ENDMDL
MODEL 3
REMARK VINA RESULT:      -4.3      7.660      8.837
REMARK  4 active torsions:
REMARK  status: ('A' for Active; 'I' for Inactive)
REMARK    1  A    between atoms: C_2  and  N_4 
REMARK    2  A    between atoms: N_4  and  O_5 
REMARK       I    between atoms: N_4  and  C_6 
REMARK    3  A    between atoms: C_6  and  C_8 
REMARK    4  A    between atoms: C_8  and  O_9 
ROOT
HETATM    1  N   UNK N   1      36.355  13.411  15.156  0.00  0.00    -0.215 N 
HETATM    2  C   UNK N   1      35.670  13.527  13.971  0.00  0.00     0.341 C 
HETATM    3  O   UNK N   1      34.549  13.050  13.858  0.00  0.00    -0.259 OA
ENDROOT
BRANCH   1   4
HETATM    4  C   UNK N   1      35.799  12.728  16.324  0.00  0.00     0.110 C 
HETATM    5  C   UNK N   1      36.037  11.237  16.474  0.00  0.00     0.034 C 
HETATM    6  C   UNK N   1      34.992  13.457  17.392  0.00  0.00     0.034 C 
ENDBRANCH   1   4
BRANCH   1   7
HETATM    7  O   UNK N   1      37.586  13.941  15.264  0.00  0.00    -0.284 OA
HETATM    8  H   UNK N   1      37.693  14.873  15.511  0.00  0.00     0.245 HD
ENDBRANCH   1   7
BRANCH   2   9
HETATM    9  C   UNK N   1      36.235  14.220  12.786  0.00  0.00     0.239 C 
HETATM   10  O   UNK N   1      35.746  15.255  12.361  0.00  0.00    -0.642 OA
BRANCH   9  11
HETATM   11  O   UNK N   1      37.311  13.697  12.167  0.00  0.00    -0.769 OA
HETATM   12  H   UNK N   1      38.168  13.838  12.517  0.00  0.00     0.168 HD
ENDBRANCH   9  11
ENDBRANCH   2   9
TORSDOF 4
ENDMDL
MODEL 4
REMARK VINA RESULT:      -4.3      3.978      5.107
REMARK  4 active torsions:
REMARK  status: ('A' for Active; 'I' for Inactive)
REMARK    1  A    between atoms: C_2  and  N_4 
REMARK    2  A    between atoms: N_4  and  O_5 
REMARK       I    between atoms: N_4  and  C_6 
REMARK    3  A    between atoms: C_6  and  C_8 
REMARK    4  A    between atoms: C_8  and  O_9 
ROOT
HETATM    1  N   UNK N   1      34.882  15.025  11.365  0.00  0.00    -0.215 N 
HETATM    2  C   UNK N   1      35.530  16.003  10.649  0.00  0.00     0.341 C 
HETATM    3  O   UNK N   1      36.750  16.083  10.679  0.00  0.00    -0.259 OA
ENDROOT
BRANCH   1   4
HETATM    4  C   UNK N   1      35.596  14.046  12.184  0.00  0.00     0.110 C 
HETATM    5  C   UNK N   1      35.794  12.646  11.633  0.00  0.00     0.034 C 
HETATM    6  C   UNK N   1      36.145  14.378  13.566  0.00  0.00     0.034 C 
ENDBRANCH   1   4
BRANCH   1   7
HETATM    7  O   UNK N   1      33.541  14.952  11.321  0.00  0.00    -0.284 OA
HETATM    8  H   UNK N   1      33.099  14.637  10.517  0.00  0.00     0.245 HD
ENDBRANCH   1   7
BRANCH   2   9
HETATM    9  C   UNK N   1      34.805  16.997   9.818  0.00  0.00     0.239 C 
HETATM   10  O   UNK N   1      35.307  18.072   9.529  0.00  0.00    -0.642 OA
BRANCH   9  11
HETATM   11  O   UNK N   1      33.567  16.707   9.372  0.00  0.00    -0.769 OA
HETATM   12  H   UNK N   1      33.441  16.008   8.761  0.00  0.00     0.168 HD
ENDBRANCH   9  11
ENDBRANCH   2   9
TORSDOF 4
ENDMDL
MODEL 5
REMARK VINA RESULT:      -4.2      2.093      2.925
REMARK  4 active torsions:
REMARK  status: ('A' for Active; 'I' for Inactive)
REMARK    1  A    between atoms: C_2  and  N_4 
REMARK    2  A    between atoms: N_4  and  O_5 
REMARK       I    between atoms: N_4  and  C_6 
REMARK    3  A    between atoms: C_6  and  C_8 
REMARK    4  A    between atoms: C_8  and  O_9 
ROOT
HETATM    1  N   UNK N   1      33.954  16.393   9.054  0.00  0.00    -0.215 N 
HETATM    2  C   UNK N   1      34.990  16.873   9.818  0.00  0.00     0.341 C 
HETATM    3  O   UNK N   1      35.381  18.023   9.675  0.00  0.00    -0.259 OA
ENDROOT
BRANCH   1   4
HETATM    4  C   UNK N   1      33.274  17.209   8.048  0.00  0.00     0.110 C 
HETATM    5  C   UNK N   1      31.971  17.889   8.426  0.00  0.00     0.034 C 
HETATM    6  C   UNK N   1      33.823  17.401   6.640  0.00  0.00     0.034 C 
ENDBRANCH   1   4
BRANCH   1   7
HETATM    7  O   UNK N   1      33.537  15.127   9.224  0.00  0.00    -0.284 OA
HETATM    8  H   UNK N   1      33.580  14.499   8.486  0.00  0.00     0.245 HD
ENDBRANCH   1   7
BRANCH   2   9
HETATM    9  C   UNK N   1      35.680  16.044  10.839  0.00  0.00     0.239 C 
HETATM   10  O   UNK N   1      35.054  15.362  11.634  0.00  0.00    -0.642 OA
BRANCH   9  11
HETATM   11  O   UNK N   1      37.026  16.044  10.888  0.00  0.00    -0.769 OA
HETATM   12  H   UNK N   1      37.466  16.256  11.688  0.00  0.00     0.168 HD
ENDBRANCH   9  11
ENDBRANCH   2   9
TORSDOF 4
ENDMDL
MODEL 6
REMARK VINA RESULT:      -4.2     12.224     13.710
REMARK  4 active torsions:
REMARK  status: ('A' for Active; 'I' for Inactive)
REMARK    1  A    between atoms: C_2  and  N_4 
REMARK    2  A    between atoms: N_4  and  O_5 
REMARK       I    between atoms: N_4  and  C_6 
REMARK    3  A    between atoms: C_6  and  C_8 
REMARK    4  A    between atoms: C_8  and  O_9 
ROOT
HETATM    1  N   UNK N   1      20.463  17.536   7.459  0.00  0.00    -0.215 N 
HETATM    2  C   UNK N   1      19.625  17.273   8.515  0.00  0.00     0.341 C 
HETATM    3  O   UNK N   1      19.204  16.140   8.701  0.00  0.00    -0.259 OA
ENDROOT
BRANCH   1   4
HETATM    4  C   UNK N   1      20.892  16.502   6.518  0.00  0.00     0.110 C 
HETATM    5  C   UNK N   1      22.172  15.740   6.810  0.00  0.00     0.034 C 
HETATM    6  C   UNK N   1      20.104  16.162   5.258  0.00  0.00     0.034 C 
ENDBRANCH   1   4
BRANCH   1   7
HETATM    7  O   UNK N   1      20.916  18.787   7.269  0.00  0.00    -0.284 OA
HETATM    8  H   UNK N   1      20.315  19.541   7.370  0.00  0.00     0.245 HD
ENDBRANCH   1   7
BRANCH   2   9
HETATM    9  C   UNK N   1      19.190  18.324   9.470  0.00  0.00     0.239 C 
HETATM   10  O   UNK N   1      19.965  19.176   9.875  0.00  0.00    -0.642 OA
BRANCH   9  11
HETATM   11  O   UNK N   1      17.913  18.337   9.899  0.00  0.00    -0.769 OA
HETATM   12  H   UNK N   1      17.241  18.707   9.360  0.00  0.00     0.168 HD
ENDBRANCH   9  11
ENDBRANCH   2   9
TORSDOF 4
ENDMDL
MODEL 7
REMARK VINA RESULT:      -4.2     12.091     13.600
REMARK  4 active torsions:
REMARK  status: ('A' for Active; 'I' for Inactive)
REMARK    1  A    between atoms: C_2  and  N_4 
REMARK    2  A    between atoms: N_4  and  O_5 
REMARK       I    between atoms: N_4  and  C_6 
REMARK    3  A    between atoms: C_6  and  C_8 
REMARK    4  A    between atoms: C_8  and  O_9 
ROOT
HETATM    1  N   UNK N   1      21.954  19.429   3.140  0.00  0.00    -0.215 N 
HETATM    2  C   UNK N   1      20.993  19.560   2.167  0.00  0.00     0.341 C 
HETATM    3  O   UNK N   1      20.121  18.712   2.044  0.00  0.00    -0.259 OA
ENDROOT
BRANCH   1   4
HETATM    4  C   UNK N   1      21.990  18.296   4.064  0.00  0.00     0.110 C 
HETATM    5  C   UNK N   1      21.341  18.451   5.427  0.00  0.00     0.034 C 
HETATM    6  C   UNK N   1      22.653  16.971   3.710  0.00  0.00     0.034 C 
ENDBRANCH   1   4
BRANCH   1   7
HETATM    7  O   UNK N   1      22.906  20.371   3.261  0.00  0.00    -0.284 OA
HETATM    8  H   UNK N   1      23.825  20.163   3.032  0.00  0.00     0.245 HD
ENDBRANCH   1   7
BRANCH   2   9
HETATM    9  C   UNK N   1      20.957  20.710   1.229  0.00  0.00     0.239 C 
HETATM   10  O   UNK N   1      21.048  20.551   0.022  0.00  0.00    -0.642 OA
BRANCH   9  11
HETATM   11  O   UNK N   1      20.823  21.958   1.720  0.00  0.00    -0.769 OA
HETATM   12  H   UNK N   1      21.522  22.348   2.207  0.00  0.00     0.168 HD
ENDBRANCH   9  11
ENDBRANCH   2   9
TORSDOF 4
ENDMDL
MODEL 8
REMARK VINA RESULT:      -4.1     10.613     11.701
REMARK  4 active torsions:
REMARK  status: ('A' for Active; 'I' for Inactive)
REMARK    1  A    between atoms: C_2  and  N_4 
REMARK    2  A    between atoms: N_4  and  O_5 
REMARK       I    between atoms: N_4  and  C_6 
REMARK    3  A    between atoms: C_6  and  C_8 
REMARK    4  A    between atoms: C_8  and  O_9 
ROOT
HETATM    1  N   UNK N   1      42.489  22.229   2.716  0.00  0.00    -0.215 N 
HETATM    2  C   UNK N   1      43.367  21.515   3.495  0.00  0.00     0.341 C 
HETATM    3  O   UNK N   1      43.393  20.293   3.434  0.00  0.00    -0.259 OA
ENDROOT
BRANCH   1   4
HETATM    4  C   UNK N   1      41.556  21.586   1.790  0.00  0.00     0.110 C 
HETATM    5  C   UNK N   1      40.173  21.218   2.293  0.00  0.00     0.034 C 
HETATM    6  C   UNK N   1      41.922  21.275   0.344  0.00  0.00     0.034 C 
ENDBRANCH   1   4
BRANCH   1   7
HETATM    7  O   UNK N   1      42.473  23.570   2.796  0.00  0.00    -0.284 OA
HETATM    8  H   UNK N   1      42.070  24.006   3.563  0.00  0.00     0.245 HD
ENDBRANCH   1   7
BRANCH   2   9
HETATM    9  C   UNK N   1      44.313  22.167   4.435  0.00  0.00     0.239 C 
HETATM   10  O   UNK N   1      43.918  22.759   5.427  0.00  0.00    -0.642 OA
BRANCH   9  11
HETATM   11  O   UNK N   1      45.636  22.105   4.188  0.00  0.00    -0.769 OA
HETATM   12  H   UNK N   1      46.220  22.708   4.605  0.00  0.00     0.168 HD
ENDBRANCH   9  11
ENDBRANCH   2   9
TORSDOF 4
ENDMDL
MODEL 9
REMARK VINA RESULT:      -4.1      2.236      3.429
REMARK  4 active torsions:
REMARK  status: ('A' for Active; 'I' for Inactive)
REMARK    1  A    between atoms: C_2  and  N_4 
REMARK    2  A    between atoms: N_4  and  O_5 
REMARK       I    between atoms: N_4  and  C_6 
REMARK    3  A    between atoms: C_6  and  C_8 
REMARK    4  A    between atoms: C_8  and  O_9 
ROOT
HETATM    1  N   UNK N   1      34.611  17.219   9.217  0.00  0.00    -0.215 N 
HETATM    2  C   UNK N   1      34.683  16.027   9.897  0.00  0.00     0.341 C 
HETATM    3  O   UNK N   1      33.915  15.115   9.626  0.00  0.00    -0.259 OA
ENDROOT
BRANCH   1   4
HETATM    4  C   UNK N   1      33.636  17.461   8.155  0.00  0.00     0.110 C 
HETATM    5  C   UNK N   1      34.065  17.252   6.714  0.00  0.00     0.034 C 
HETATM    6  C   UNK N   1      32.209  17.915   8.439  0.00  0.00     0.034 C 
ENDBRANCH   1   4
BRANCH   1   7
HETATM    7  O   UNK N   1      35.463  18.211   9.528  0.00  0.00    -0.284 OA
HETATM    8  H   UNK N   1      36.365  18.205   9.171  0.00  0.00     0.245 HD
ENDBRANCH   1   7
BRANCH   2   9
HETATM    9  C   UNK N   1      35.673  15.782  10.976  0.00  0.00     0.239 C 
HETATM   10  O   UNK N   1      35.352  15.249  12.026  0.00  0.00    -0.642 OA
BRANCH   9  11
HETATM   11  O   UNK N   1      36.955  16.155  10.792  0.00  0.00    -0.769 OA
HETATM   12  H   UNK N   1      37.150  16.966  10.366  0.00  0.00     0.168 HD
ENDBRANCH   9  11
ENDBRANCH   2   9
TORSDOF 4
ENDMDL
