MODEL 1
REMARK VINA RESULT:      -7.2      0.000      0.000
REMARK  12 active torsions:
REMARK  status: ('A' for Active; 'I' for Inactive)
REMARK    1  A    between atoms: C_29  and  C_6 
REMARK    2  A    between atoms: C_29  and  C_7 
REMARK    3  A    between atoms: C_16  and  C_9 
REMARK    4  A    between atoms: C_17  and  C_9 
REMARK    5  A    between atoms: C_12  and  C_11 
REMARK    6  A    between atoms: C_29  and  C_16 
REMARK    7  A    between atoms: O_33  and  C_17 
REMARK    8  A    between atoms: C_25  and  C_21 
REMARK    9  A    between atoms: O_33  and  C_21 
REMARK   10  A    between atoms: C_24  and  O_30 
REMARK   11  A    between atoms: C_27  and  O_31 
REMARK   12  A    between atoms: O_32  and  C_29 
ROOT
HETATM    1  C   UNK N   1      33.368  10.841  14.720  0.00  0.00     0.016 C 
HETATM    2  C   UNK N   1      35.208  12.258  16.554  0.00  0.00     0.005 C 
HETATM    3  C   UNK N   1      35.660  11.248  17.602  0.00  0.00     0.034 C 
HETATM    4  C   UNK N   1      35.473   8.822  18.097  0.00  0.00     0.004 C 
HETATM    5  C   UNK N   1      35.616   8.451  13.709  0.00  0.00     0.009 C 
HETATM    6  C   UNK N   1      36.131   8.488  15.130  0.00  0.00     0.010 C 
HETATM    7  C   UNK N   1      35.610  11.820  15.152  0.00  0.00     0.010 C 
HETATM    8  C   UNK N   1      35.458   9.802  17.192  0.00  0.00    -0.075 C 
HETATM    9  C   UNK N   1      35.339   9.925  13.394  0.00  0.00     0.023 C 
HETATM   10  C   UNK N   1      35.117   9.403  15.772  0.00  0.00     0.023 C 
HETATM   11  C   UNK N   1      34.872  10.532  14.759  0.00  0.00    -0.031 C 
ENDROOT
BRANCH   4  12
HETATM   12  C   UNK N   1      35.605   9.007  19.559  0.00  0.00     0.008 C 
HETATM   13  C   UNK N   1      34.495   9.092  20.323  0.00  0.00    -0.048 C 
HETATM   14  C   UNK N   1      33.140   8.985  19.647  0.00  0.00     0.071 C 
HETATM   15  C   UNK N   1      34.534   9.369  21.791  0.00  0.00    -0.033 C 
HETATM   16  C   UNK N   1      32.019   8.637  20.587  0.00  0.00     0.125 C 
HETATM   17  C   UNK N   1      31.996   9.680  21.687  0.00  0.00     0.068 C 
HETATM   18  C   UNK N   1      33.255   9.627  22.566  0.00  0.00     0.153 C 
HETATM   19  C   UNK N   1      35.700   9.375  22.456  0.00  0.00     0.022 C 
BRANCH  16  20
HETATM   20  O   UNK N   1      30.819   8.677  19.878  0.00  0.00    -0.395 OA
HETATM   21  H   UNK N   1      30.748   8.499  18.927  0.00  0.00     0.210 HD
ENDBRANCH  16  20
BRANCH  18  22
HETATM   22  O   UNK N   1      33.347  10.847  23.238  0.00  0.00    -0.391 OA
HETATM   23  H   UNK N   1      32.765  11.565  23.532  0.00  0.00     0.210 HD
ENDBRANCH  18  22
ENDBRANCH   4  12
BRANCH   9  24
HETATM   24  C   UNK N   1      36.615  10.589  12.748  0.00  0.00     0.122 C 
HETATM   25  C   UNK N   1      37.592   9.571  12.169  0.00  0.00     0.040 C 
BRANCH  24  26
HETATM   26  O   UNK N   1      36.413  11.618  11.783  0.00  0.00    -0.386 OA
BRANCH  26  27
HETATM   27  C   UNK N   1      37.267  12.725  11.937  0.00  0.00     0.168 C 
BRANCH  27  28
HETATM   28  C   UNK N   1      36.456  13.956  12.315  0.00  0.00     0.029 C 
BRANCH  28  29
HETATM   29  C   UNK N   1      34.986  13.758  11.979  0.00  0.00     0.040 C 
BRANCH  29  30
HETATM   30  C   UNK N   1      34.470  14.719  10.899  0.00  0.00     0.057 C 
BRANCH  30  31
HETATM   31  C   UNK N   1      35.265  16.034  10.862  0.00  0.00     0.033 C 
HETATM   32  C   UNK N   1      34.876  16.958   9.718  0.00  0.00     0.008 C 
ENDBRANCH  30  31
BRANCH  30  33
HETATM   33  C   UNK N   1      34.590  14.031   9.540  0.00  0.00     0.033 C 
HETATM   34  C   UNK N   1      33.250  13.586   8.966  0.00  0.00     0.008 C 
ENDBRANCH  30  33
BRANCH  30  35
HETATM   35  O   UNK N   1      33.117  14.995  11.115  0.00  0.00    -0.390 OA
HETATM   36  H   UNK N   1      32.304  15.506  10.980  0.00  0.00     0.210 HD
ENDBRANCH  30  35
ENDBRANCH  29  30
ENDBRANCH  28  29
ENDBRANCH  27  28
ENDBRANCH  26  27
ENDBRANCH  24  26
ENDBRANCH   9  24
TORSDOF 12
ENDMDL
MODEL 2
REMARK VINA RESULT:      -7.1     10.775     16.466
REMARK  12 active torsions:
REMARK  status: ('A' for Active; 'I' for Inactive)
REMARK    1  A    between atoms: C_29  and  C_6 
REMARK    2  A    between atoms: C_29  and  C_7 
REMARK    3  A    between atoms: C_16  and  C_9 
REMARK    4  A    between atoms: C_17  and  C_9 
REMARK    5  A    between atoms: C_12  and  C_11 
REMARK    6  A    between atoms: C_29  and  C_16 
REMARK    7  A    between atoms: O_33  and  C_17 
REMARK    8  A    between atoms: C_25  and  C_21 
REMARK    9  A    between atoms: O_33  and  C_21 
REMARK   10  A    between atoms: C_24  and  O_30 
REMARK   11  A    between atoms: C_27  and  O_31 
REMARK   12  A    between atoms: O_32  and  C_29 
ROOT
HETATM    1  C   UNK N   1      28.987  18.847   4.503  0.00  0.00     0.016 C 
HETATM    2  C   UNK N   1      27.035  20.940   5.251  0.00  0.00     0.005 C 
HETATM    3  C   UNK N   1      25.647  20.383   4.957  0.00  0.00     0.034 C 
HETATM    4  C   UNK N   1      24.571  18.260   4.249  0.00  0.00     0.004 C 
HETATM    5  C   UNK N   1      27.792  16.442   6.641  0.00  0.00     0.009 C 
HETATM    6  C   UNK N   1      26.421  16.996   6.328  0.00  0.00     0.010 C 
HETATM    7  C   UNK N   1      27.769  20.088   6.277  0.00  0.00     0.010 C 
HETATM    8  C   UNK N   1      25.604  18.872   4.831  0.00  0.00    -0.075 C 
HETATM    9  C   UNK N   1      28.666  17.696   6.751  0.00  0.00     0.023 C 
HETATM   10  C   UNK N   1      26.762  17.992   5.247  0.00  0.00     0.023 C 
HETATM   11  C   UNK N   1      28.051  18.689   5.710  0.00  0.00    -0.031 C 
ENDROOT
BRANCH   4  12
HETATM   12  C   UNK N   1      23.421  18.939   3.611  0.00  0.00     0.008 C 
HETATM   13  C   UNK N   1      22.182  18.418   3.744  0.00  0.00    -0.048 C 
HETATM   14  C   UNK N   1      22.015  17.147   4.558  0.00  0.00     0.071 C 
HETATM   15  C   UNK N   1      20.980  18.984   3.060  0.00  0.00    -0.033 C 
HETATM   16  C   UNK N   1      20.605  16.907   5.023  0.00  0.00     0.125 C 
HETATM   17  C   UNK N   1      19.709  16.890   3.799  0.00  0.00     0.068 C 
HETATM   18  C   UNK N   1      19.649  18.258   3.104  0.00  0.00     0.153 C 
HETATM   19  C   UNK N   1      21.052  20.157   2.410  0.00  0.00     0.022 C 
BRANCH  16  20
HETATM   20  O   UNK N   1      20.554  15.666   5.658  0.00  0.00    -0.395 OA
HETATM   21  H   UNK N   1      21.329  15.102   5.802  0.00  0.00     0.210 HD
ENDBRANCH  16  20
BRANCH  18  22
HETATM   22  O   UNK N   1      19.183  18.046   1.805  0.00  0.00    -0.391 OA
HETATM   23  H   UNK N   1      18.810  18.558   1.070  0.00  0.00     0.210 HD
ENDBRANCH  18  22
ENDBRANCH   4  12
BRANCH   9  24
HETATM   24  C   UNK N   1      28.703  18.200   8.244  0.00  0.00     0.122 C 
HETATM   25  C   UNK N   1      28.010  17.250   9.215  0.00  0.00     0.040 C 
BRANCH  24  26
HETATM   26  O   UNK N   1      29.967  18.562   8.794  0.00  0.00    -0.386 OA
BRANCH  26  27
HETATM   27  C   UNK N   1      30.891  17.503   8.852  0.00  0.00     0.168 C 
BRANCH  27  28
HETATM   28  C   UNK N   1      32.190  17.912   8.172  0.00  0.00     0.029 C 
BRANCH  28  29
HETATM   29  C   UNK N   1      32.970  16.688   7.716  0.00  0.00     0.040 C 
BRANCH  29  30
HETATM   30  C   UNK N   1      33.484  16.793   6.274  0.00  0.00     0.057 C 
BRANCH  30  31
HETATM   31  C   UNK N   1      34.343  15.583   5.874  0.00  0.00     0.033 C 
HETATM   32  C   UNK N   1      35.238  15.066   6.990  0.00  0.00     0.008 C 
ENDBRANCH  30  31
BRANCH  30  33
HETATM   33  C   UNK N   1      32.281  16.876   5.335  0.00  0.00     0.033 C 
HETATM   34  C   UNK N   1      32.557  17.675   4.067  0.00  0.00     0.008 C 
ENDBRANCH  30  33
BRANCH  30  35
HETATM   35  O   UNK N   1      34.224  17.967   6.117  0.00  0.00    -0.390 OA
HETATM   36  H   UNK N   1      34.344  18.929   6.158  0.00  0.00     0.210 HD
ENDBRANCH  30  35
ENDBRANCH  29  30
ENDBRANCH  28  29
ENDBRANCH  27  28
ENDBRANCH  26  27
ENDBRANCH  24  26
ENDBRANCH   9  24
TORSDOF 12
ENDMDL
MODEL 3
REMARK VINA RESULT:      -7.1      3.124      5.790
REMARK  12 active torsions:
REMARK  status: ('A' for Active; 'I' for Inactive)
REMARK    1  A    between atoms: C_29  and  C_6 
REMARK    2  A    between atoms: C_29  and  C_7 
REMARK    3  A    between atoms: C_16  and  C_9 
REMARK    4  A    between atoms: C_17  and  C_9 
REMARK    5  A    between atoms: C_12  and  C_11 
REMARK    6  A    between atoms: C_29  and  C_16 
REMARK    7  A    between atoms: O_33  and  C_17 
REMARK    8  A    between atoms: C_25  and  C_21 
REMARK    9  A    between atoms: O_33  and  C_21 
REMARK   10  A    between atoms: C_24  and  O_30 
REMARK   11  A    between atoms: C_27  and  O_31 
REMARK   12  A    between atoms: O_32  and  C_29 
ROOT
HETATM    1  C   UNK N   1      37.034  12.247  10.021  0.00  0.00     0.016 C 
HETATM    2  C   UNK N   1      34.576  11.009  11.106  0.00  0.00     0.005 C 
HETATM    3  C   UNK N   1      34.600  11.218  12.616  0.00  0.00     0.034 C 
HETATM    4  C   UNK N   1      35.932  12.406  14.342  0.00  0.00     0.004 C 
HETATM    5  C   UNK N   1      36.388  15.420  11.161  0.00  0.00     0.009 C 
HETATM    6  C   UNK N   1      35.799  14.747  12.380  0.00  0.00     0.010 C 
HETATM    7  C   UNK N   1      34.575  12.337  10.362  0.00  0.00     0.010 C 
HETATM    8  C   UNK N   1      35.535  12.322  13.071  0.00  0.00    -0.075 C 
HETATM    9  C   UNK N   1      35.915  14.535  10.003  0.00  0.00     0.023 C 
HETATM   10  C   UNK N   1      36.155  13.307  12.104  0.00  0.00     0.023 C 
HETATM   11  C   UNK N   1      35.891  13.090  10.606  0.00  0.00    -0.031 C 
ENDROOT
BRANCH   4  12
HETATM   12  C   UNK N   1      35.594  11.442  15.411  0.00  0.00     0.008 C 
HETATM   13  C   UNK N   1      35.433  11.881  16.678  0.00  0.00    -0.048 C 
HETATM   14  C   UNK N   1      35.600  13.364  16.957  0.00  0.00     0.071 C 
HETATM   15  C   UNK N   1      35.181  10.967  17.834  0.00  0.00    -0.033 C 
HETATM   16  C   UNK N   1      34.973  13.812  18.249  0.00  0.00     0.125 C 
HETATM   17  C   UNK N   1      35.568  12.978  19.367  0.00  0.00     0.068 C 
HETATM   18  C   UNK N   1      35.183  11.495  19.256  0.00  0.00     0.153 C 
HETATM   19  C   UNK N   1      34.928   9.664  17.632  0.00  0.00     0.022 C 
BRANCH  16  20
HETATM   20  O   UNK N   1      35.285  15.156  18.449  0.00  0.00    -0.395 OA
HETATM   21  H   UNK N   1      35.233  15.831  17.755  0.00  0.00     0.210 HD
ENDBRANCH  16  20
BRANCH  18  22
HETATM   22  O   UNK N   1      36.091  10.769  20.029  0.00  0.00    -0.391 OA
HETATM   23  H   UNK N   1      36.415   9.859  20.112  0.00  0.00     0.210 HD
ENDBRANCH  18  22
ENDBRANCH   4  12
BRANCH   9  24
HETATM   24  C   UNK N   1      34.542  15.067   9.440  0.00  0.00     0.122 C 
HETATM   25  C   UNK N   1      34.430  16.588   9.474  0.00  0.00     0.040 C 
BRANCH  24  26
HETATM   26  O   UNK N   1      34.131  14.614   8.152  0.00  0.00    -0.386 OA
BRANCH  26  27
HETATM   27  C   UNK N   1      35.189  14.428   7.244  0.00  0.00     0.168 C 
BRANCH  27  28
HETATM   28  C   UNK N   1      35.125  15.485   6.151  0.00  0.00     0.029 C 
BRANCH  28  29
HETATM   29  C   UNK N   1      33.703  15.639   5.632  0.00  0.00     0.040 C 
BRANCH  29  30
HETATM   30  C   UNK N   1      33.209  17.092   5.622  0.00  0.00     0.057 C 
BRANCH  30  31
HETATM   31  C   UNK N   1      32.831  17.569   4.211  0.00  0.00     0.033 C 
HETATM   32  C   UNK N   1      32.763  16.452   3.180  0.00  0.00     0.008 C 
ENDBRANCH  30  31
BRANCH  30  33
HETATM   33  C   UNK N   1      31.978  17.190   6.522  0.00  0.00     0.033 C 
HETATM   34  C   UNK N   1      31.211  15.878   6.644  0.00  0.00     0.008 C 
ENDBRANCH  30  33
BRANCH  30  35
HETATM   35  O   UNK N   1      34.190  17.932   6.155  0.00  0.00    -0.390 OA
HETATM   36  H   UNK N   1      34.523  18.788   6.466  0.00  0.00     0.210 HD
ENDBRANCH  30  35
ENDBRANCH  29  30
ENDBRANCH  28  29
ENDBRANCH  27  28
ENDBRANCH  26  27
ENDBRANCH  24  26
ENDBRANCH   9  24
TORSDOF 12
ENDMDL
MODEL 4
REMARK VINA RESULT:      -6.9      2.666      4.730
REMARK  12 active torsions:
REMARK  status: ('A' for Active; 'I' for Inactive)
REMARK    1  A    between atoms: C_29  and  C_6 
REMARK    2  A    between atoms: C_29  and  C_7 
REMARK    3  A    between atoms: C_16  and  C_9 
REMARK    4  A    between atoms: C_17  and  C_9 
REMARK    5  A    between atoms: C_12  and  C_11 
REMARK    6  A    between atoms: C_29  and  C_16 
REMARK    7  A    between atoms: O_33  and  C_17 
REMARK    8  A    between atoms: C_25  and  C_21 
REMARK    9  A    between atoms: O_33  and  C_21 
REMARK   10  A    between atoms: C_24  and  O_30 
REMARK   11  A    between atoms: C_27  and  O_31 
REMARK   12  A    between atoms: O_32  and  C_29 
ROOT
HETATM    1  C   UNK N   1      36.375  10.138  10.622  0.00  0.00     0.016 C 
HETATM    2  C   UNK N   1      33.822  10.109  12.116  0.00  0.00     0.005 C 
HETATM    3  C   UNK N   1      34.157  10.369  13.580  0.00  0.00     0.034 C 
HETATM    4  C   UNK N   1      36.104  10.974  14.996  0.00  0.00     0.004 C 
HETATM    5  C   UNK N   1      37.266  13.343  11.469  0.00  0.00     0.009 C 
HETATM    6  C   UNK N   1      36.646  13.046  12.815  0.00  0.00     0.010 C 
HETATM    7  C   UNK N   1      34.252  11.273  11.233  0.00  0.00     0.010 C 
HETATM    8  C   UNK N   1      35.520  10.998  13.797  0.00  0.00    -0.075 C 
HETATM    9  C   UNK N   1      36.302  12.680  10.479  0.00  0.00     0.023 C 
HETATM   10  C   UNK N   1      36.334  11.578  12.662  0.00  0.00     0.023 C 
HETATM   11  C   UNK N   1      35.781  11.414  11.237  0.00  0.00    -0.031 C 
ENDROOT
BRANCH   4  12
HETATM   12  C   UNK N   1      35.567  10.300  16.199  0.00  0.00     0.008 C 
HETATM   13  C   UNK N   1      35.367  11.012  17.329  0.00  0.00    -0.048 C 
HETATM   14  C   UNK N   1      35.697  12.493  17.319  0.00  0.00     0.071 C 
HETATM   15  C   UNK N   1      34.915  10.395  18.613  0.00  0.00    -0.033 C 
HETATM   16  C   UNK N   1      35.035  13.269  18.425  0.00  0.00     0.125 C 
HETATM   17  C   UNK N   1      35.434  12.632  19.741  0.00  0.00     0.068 C 
HETATM   18  C   UNK N   1      34.876  11.210  19.893  0.00  0.00     0.153 C 
HETATM   19  C   UNK N   1      34.517   9.114  18.654  0.00  0.00     0.022 C 
BRANCH  16  20
HETATM   20  O   UNK N   1      35.498  14.584  18.380  0.00  0.00    -0.395 OA
HETATM   21  H   UNK N   1      36.412  14.842  18.575  0.00  0.00     0.210 HD
ENDBRANCH  16  20
BRANCH  18  22
HETATM   22  O   UNK N   1      35.624  10.571  20.883  0.00  0.00    -0.391 OA
HETATM   23  H   UNK N   1      35.476  10.056  21.693  0.00  0.00     0.210 HD
ENDBRANCH  18  22
ENDBRANCH   4  12
BRANCH   9  24
HETATM   24  C   UNK N   1      35.200  13.710  10.023  0.00  0.00     0.122 C 
HETATM   25  C   UNK N   1      35.605  15.163  10.256  0.00  0.00     0.040 C 
BRANCH  24  26
HETATM   26  O   UNK N   1      34.687  13.593   8.698  0.00  0.00    -0.386 OA
BRANCH  26  27
HETATM   27  C   UNK N   1      35.324  14.427   7.761  0.00  0.00     0.168 C 
BRANCH  27  28
HETATM   28  C   UNK N   1      34.306  14.944   6.753  0.00  0.00     0.029 C 
BRANCH  28  29
HETATM   29  C   UNK N   1      33.116  15.571   7.462  0.00  0.00     0.040 C 
BRANCH  29  30
HETATM   30  C   UNK N   1      32.787  16.988   6.971  0.00  0.00     0.057 C 
BRANCH  30  31
HETATM   31  C   UNK N   1      33.064  18.054   8.042  0.00  0.00     0.033 C 
HETATM   32  C   UNK N   1      34.535  18.413   8.189  0.00  0.00     0.008 C 
ENDBRANCH  30  31
BRANCH  30  33
HETATM   33  C   UNK N   1      33.648  17.286   5.744  0.00  0.00     0.033 C 
HETATM   34  C   UNK N   1      32.833  17.612   4.497  0.00  0.00     0.008 C 
ENDBRANCH  30  33
BRANCH  30  35
HETATM   35  O   UNK N   1      31.449  17.055   6.575  0.00  0.00    -0.390 OA
HETATM   36  H   UNK N   1      30.743  17.133   5.915  0.00  0.00     0.210 HD
ENDBRANCH  30  35
ENDBRANCH  29  30
ENDBRANCH  28  29
ENDBRANCH  27  28
ENDBRANCH  26  27
ENDBRANCH  24  26
ENDBRANCH   9  24
TORSDOF 12
ENDMDL
MODEL 5
REMARK VINA RESULT:      -6.6      1.802      9.943
REMARK  12 active torsions:
REMARK  status: ('A' for Active; 'I' for Inactive)
REMARK    1  A    between atoms: C_29  and  C_6 
REMARK    2  A    between atoms: C_29  and  C_7 
REMARK    3  A    between atoms: C_16  and  C_9 
REMARK    4  A    between atoms: C_17  and  C_9 
REMARK    5  A    between atoms: C_12  and  C_11 
REMARK    6  A    between atoms: C_29  and  C_16 
REMARK    7  A    between atoms: O_33  and  C_17 
REMARK    8  A    between atoms: C_25  and  C_21 
REMARK    9  A    between atoms: O_33  and  C_21 
REMARK   10  A    between atoms: C_24  and  O_30 
REMARK   11  A    between atoms: C_27  and  O_31 
REMARK   12  A    between atoms: O_32  and  C_29 
ROOT
HETATM    1  C   UNK N   1      33.800  10.373  15.525  0.00  0.00     0.016 C 
HETATM    2  C   UNK N   1      36.367   9.747  14.193  0.00  0.00     0.005 C 
HETATM    3  C   UNK N   1      36.898  11.052  13.612  0.00  0.00     0.034 C 
HETATM    4  C   UNK N   1      36.372  13.478  13.615  0.00  0.00     0.004 C 
HETATM    5  C   UNK N   1      35.079  12.657  17.745  0.00  0.00     0.009 C 
HETATM    6  C   UNK N   1      36.002  13.072  16.622  0.00  0.00     0.010 C 
HETATM    7  C   UNK N   1      36.218   9.833  15.706  0.00  0.00     0.010 C 
HETATM    8  C   UNK N   1      36.284  12.295  14.225  0.00  0.00    -0.075 C 
HETATM    9  C   UNK N   1      35.032  11.130  17.620  0.00  0.00     0.023 C 
HETATM   10  C   UNK N   1      35.448  12.248  15.486  0.00  0.00     0.023 C 
HETATM   11  C   UNK N   1      35.144  10.865  16.082  0.00  0.00    -0.031 C 
ENDROOT
BRANCH   4  12
HETATM   12  C   UNK N   1      36.983  13.715  12.288  0.00  0.00     0.008 C 
HETATM   13  C   UNK N   1      36.202  14.089  11.252  0.00  0.00    -0.048 C 
HETATM   14  C   UNK N   1      34.713  14.259  11.492  0.00  0.00     0.071 C 
HETATM   15  C   UNK N   1      36.719  14.260   9.860  0.00  0.00    -0.033 C 
HETATM   16  C   UNK N   1      34.022  15.090  10.446  0.00  0.00     0.125 C 
HETATM   17  C   UNK N   1      34.284  14.451   9.097  0.00  0.00     0.068 C 
HETATM   18  C   UNK N   1      35.768  14.509   8.704  0.00  0.00     0.153 C 
HETATM   19  C   UNK N   1      38.037  14.218   9.610  0.00  0.00     0.022 C 
BRANCH  16  20
HETATM   20  O   UNK N   1      32.652  15.083  10.710  0.00  0.00    -0.395 OA
HETATM   21  H   UNK N   1      32.126  14.275  10.813  0.00  0.00     0.210 HD
ENDBRANCH  16  20
BRANCH  18  22
HETATM   22  O   UNK N   1      35.974  13.552   7.708  0.00  0.00    -0.391 OA
HETATM   23  H   UNK N   1      35.821  12.606   7.561  0.00  0.00     0.210 HD
ENDBRANCH  18  22
ENDBRANCH   4  12
BRANCH   9  24
HETATM   24  C   UNK N   1      36.156  10.479  18.514  0.00  0.00     0.122 C 
HETATM   25  C   UNK N   1      36.252  11.101  19.904  0.00  0.00     0.040 C 
BRANCH  24  26
HETATM   26  O   UNK N   1      36.157   9.061  18.654  0.00  0.00    -0.386 OA
BRANCH  26  27
HETATM   27  C   UNK N   1      35.431   8.594  19.765  0.00  0.00     0.168 C 
BRANCH  27  28
HETATM   28  C   UNK N   1      34.156   7.905  19.297  0.00  0.00     0.029 C 
BRANCH  28  29
HETATM   29  C   UNK N   1      32.956   8.826  19.455  0.00  0.00     0.040 C 
BRANCH  29  30
HETATM   30  C   UNK N   1      31.815   8.210  20.276  0.00  0.00     0.057 C 
BRANCH  30  31
HETATM   31  C   UNK N   1      31.774   6.679  20.156  0.00  0.00     0.033 C 
HETATM   32  C   UNK N   1      31.605   5.961  21.487  0.00  0.00     0.008 C 
ENDBRANCH  30  31
BRANCH  30  33
HETATM   33  C   UNK N   1      32.017   8.586  21.743  0.00  0.00     0.033 C 
HETATM   34  C   UNK N   1      32.443  10.036  21.944  0.00  0.00     0.008 C 
ENDBRANCH  30  33
BRANCH  30  35
HETATM   35  O   UNK N   1      30.592   8.746  19.866  0.00  0.00    -0.390 OA
HETATM   36  H   UNK N   1      29.666   8.679  19.583  0.00  0.00     0.210 HD
ENDBRANCH  30  35
ENDBRANCH  29  30
ENDBRANCH  28  29
ENDBRANCH  27  28
ENDBRANCH  26  27
ENDBRANCH  24  26
ENDBRANCH   9  24
TORSDOF 12
ENDMDL
MODEL 6
REMARK VINA RESULT:      -6.6      8.478     14.017
REMARK  12 active torsions:
REMARK  status: ('A' for Active; 'I' for Inactive)
REMARK    1  A    between atoms: C_29  and  C_6 
REMARK    2  A    between atoms: C_29  and  C_7 
REMARK    3  A    between atoms: C_16  and  C_9 
REMARK    4  A    between atoms: C_17  and  C_9 
REMARK    5  A    between atoms: C_12  and  C_11 
REMARK    6  A    between atoms: C_29  and  C_16 
REMARK    7  A    between atoms: O_33  and  C_17 
REMARK    8  A    between atoms: C_25  and  C_21 
REMARK    9  A    between atoms: O_33  and  C_21 
REMARK   10  A    between atoms: C_24  and  O_30 
REMARK   11  A    between atoms: C_27  and  O_31 
REMARK   12  A    between atoms: O_32  and  C_29 
ROOT
HETATM    1  C   UNK N   1      27.194  16.370   7.281  0.00  0.00     0.016 C 
HETATM    2  C   UNK N   1      28.574  18.304   9.043  0.00  0.00     0.005 C 
HETATM    3  C   UNK N   1      30.070  18.147   8.796  0.00  0.00     0.034 C 
HETATM    4  C   UNK N   1      31.620  16.938   7.279  0.00  0.00     0.004 C 
HETATM    5  C   UNK N   1      28.421  17.616   4.327  0.00  0.00     0.009 C 
HETATM    6  C   UNK N   1      29.701  17.871   5.090  0.00  0.00     0.010 C 
HETATM    7  C   UNK N   1      27.842  18.717   7.774  0.00  0.00     0.010 C 
HETATM    8  C   UNK N   1      30.409  17.456   7.489  0.00  0.00    -0.075 C 
HETATM    9  C   UNK N   1      27.328  18.001   5.329  0.00  0.00     0.023 C 
HETATM   10  C   UNK N   1      29.376  17.215   6.409  0.00  0.00     0.023 C 
HETATM   11  C   UNK N   1      27.922  17.602   6.721  0.00  0.00    -0.031 C 
ENDROOT
BRANCH   4  12
HETATM   12  C   UNK N   1      32.719  16.899   8.268  0.00  0.00     0.008 C 
HETATM   13  C   UNK N   1      33.198  15.708   8.686  0.00  0.00    -0.048 C 
HETATM   14  C   UNK N   1      32.589  14.441   8.113  0.00  0.00     0.071 C 
HETATM   15  C   UNK N   1      34.242  15.574   9.748  0.00  0.00    -0.033 C 
HETATM   16  C   UNK N   1      33.458  13.224   8.274  0.00  0.00     0.125 C 
HETATM   17  C   UNK N   1      33.759  13.061   9.751  0.00  0.00     0.068 C 
HETATM   18  C   UNK N   1      34.616  14.211  10.301  0.00  0.00     0.153 C 
HETATM   19  C   UNK N   1      34.882  16.657  10.217  0.00  0.00     0.022 C 
BRANCH  16  20
HETATM   20  O   UNK N   1      32.752  12.113   7.814  0.00  0.00    -0.395 OA
HETATM   21  H   UNK N   1      33.149  11.399   7.291  0.00  0.00     0.210 HD
ENDBRANCH  16  20
BRANCH  18  22
HETATM   22  O   UNK N   1      34.476  14.210  11.690  0.00  0.00    -0.391 OA
HETATM   23  H   UNK N   1      34.197  13.606  12.395  0.00  0.00     0.210 HD
ENDBRANCH  18  22
ENDBRANCH   4  12
BRANCH   9  24
HETATM   24  C   UNK N   1      26.943  19.520   5.156  0.00  0.00     0.122 C 
HETATM   25  C   UNK N   1      27.718  20.210   4.038  0.00  0.00     0.040 C 
BRANCH  24  26
HETATM   26  O   UNK N   1      25.563  19.845   5.014  0.00  0.00    -0.386 OA
BRANCH  26  27
HETATM   27  C   UNK N   1      25.202  20.259   3.719  0.00  0.00     0.168 C 
BRANCH  27  28
HETATM   28  C   UNK N   1      23.748  19.895   3.447  0.00  0.00     0.029 C 
BRANCH  28  29
HETATM   29  C   UNK N   1      23.432  18.504   3.974  0.00  0.00     0.040 C 
BRANCH  29  30
HETATM   30  C   UNK N   1      21.994  18.358   4.491  0.00  0.00     0.057 C 
BRANCH  30  31
HETATM   31  C   UNK N   1      21.212  17.272   3.735  0.00  0.00     0.033 C 
HETATM   32  C   UNK N   1      20.235  17.821   2.706  0.00  0.00     0.008 C 
ENDBRANCH  30  31
BRANCH  30  33
HETATM   33  C   UNK N   1      22.048  17.986   5.973  0.00  0.00     0.033 C 
HETATM   34  C   UNK N   1      20.811  17.236   6.454  0.00  0.00     0.008 C 
ENDBRANCH  30  33
BRANCH  30  35
HETATM   35  O   UNK N   1      21.325  19.579   4.386  0.00  0.00    -0.390 OA
HETATM   36  H   UNK N   1      21.206  20.522   4.578  0.00  0.00     0.210 HD
ENDBRANCH  30  35
ENDBRANCH  29  30
ENDBRANCH  28  29
ENDBRANCH  27  28
ENDBRANCH  26  27
ENDBRANCH  24  26
ENDBRANCH   9  24
TORSDOF 12
ENDMDL
MODEL 7
REMARK VINA RESULT:      -6.6      2.943      5.231
REMARK  12 active torsions:
REMARK  status: ('A' for Active; 'I' for Inactive)
REMARK    1  A    between atoms: C_29  and  C_6 
REMARK    2  A    between atoms: C_29  and  C_7 
REMARK    3  A    between atoms: C_16  and  C_9 
REMARK    4  A    between atoms: C_17  and  C_9 
REMARK    5  A    between atoms: C_12  and  C_11 
REMARK    6  A    between atoms: C_29  and  C_16 
REMARK    7  A    between atoms: O_33  and  C_17 
REMARK    8  A    between atoms: C_25  and  C_21 
REMARK    9  A    between atoms: O_33  and  C_21 
REMARK   10  A    between atoms: C_24  and  O_30 
REMARK   11  A    between atoms: C_27  and  O_31 
REMARK   12  A    between atoms: O_32  and  C_29 
ROOT
HETATM    1  C   UNK N   1      33.904  14.491  10.267  0.00  0.00     0.016 C 
HETATM    2  C   UNK N   1      36.029  15.469  12.078  0.00  0.00     0.005 C 
HETATM    3  C   UNK N   1      36.015  14.571  13.309  0.00  0.00     0.034 C 
HETATM    4  C   UNK N   1      34.918  12.500  14.130  0.00  0.00     0.004 C 
HETATM    5  C   UNK N   1      35.165  11.320   9.892  0.00  0.00     0.009 C 
HETATM    6  C   UNK N   1      35.575  11.427  11.344  0.00  0.00     0.010 C 
HETATM    7  C   UNK N   1      36.320  14.673  10.814  0.00  0.00     0.010 C 
HETATM    8  C   UNK N   1      35.318  13.242  13.095  0.00  0.00    -0.075 C 
HETATM    9  C   UNK N   1      35.471  12.713   9.334  0.00  0.00     0.023 C 
HETATM   10  C   UNK N   1      34.936  12.741  11.719  0.00  0.00     0.023 C 
HETATM   11  C   UNK N   1      35.183  13.681  10.529  0.00  0.00    -0.031 C 
ENDROOT
BRANCH   4  12
HETATM   12  C   UNK N   1      35.026  12.887  15.554  0.00  0.00     0.008 C 
HETATM   13  C   UNK N   1      35.389  11.963  16.469  0.00  0.00    -0.048 C 
HETATM   14  C   UNK N   1      35.683  10.551  15.996  0.00  0.00     0.071 C 
HETATM   15  C   UNK N   1      35.435  12.241  17.937  0.00  0.00    -0.033 C 
HETATM   16  C   UNK N   1      36.495   9.741  16.969  0.00  0.00     0.125 C 
HETATM   17  C   UNK N   1      35.755   9.727  18.292  0.00  0.00     0.068 C 
HETATM   18  C   UNK N   1      35.679  11.121  18.932  0.00  0.00     0.153 C 
HETATM   19  C   UNK N   1      35.281  13.491  18.401  0.00  0.00     0.022 C 
BRANCH  16  20
HETATM   20  O   UNK N   1      36.605   8.440  16.479  0.00  0.00    -0.395 OA
HETATM   21  H   UNK N   1      36.831   7.674  17.028  0.00  0.00     0.210 HD
ENDBRANCH  16  20
BRANCH  18  22
HETATM   22  O   UNK N   1      34.650  11.094  19.874  0.00  0.00    -0.391 OA
HETATM   23  H   UNK N   1      34.274  11.665  20.562  0.00  0.00     0.210 HD
ENDBRANCH  18  22
ENDBRANCH   4  12
BRANCH   9  24
HETATM   24  C   UNK N   1      36.936  12.755   8.753  0.00  0.00     0.122 C 
HETATM   25  C   UNK N   1      37.491  11.371   8.428  0.00  0.00     0.040 C 
BRANCH  24  26
HETATM   26  O   UNK N   1      37.189  13.613   7.644  0.00  0.00    -0.386 OA
BRANCH  26  27
HETATM   27  C   UNK N   1      36.188  13.583   6.656  0.00  0.00     0.168 C 
BRANCH  27  28
HETATM   28  C   UNK N   1      35.768  15.003   6.302  0.00  0.00     0.029 C 
BRANCH  28  29
HETATM   29  C   UNK N   1      34.460  15.365   6.989  0.00  0.00     0.040 C 
BRANCH  29  30
HETATM   30  C   UNK N   1      33.768  16.592   6.380  0.00  0.00     0.057 C 
BRANCH  30  31
HETATM   31  C   UNK N   1      33.449  16.400   4.889  0.00  0.00     0.033 C 
HETATM   32  C   UNK N   1      32.809  17.615   4.234  0.00  0.00     0.008 C 
ENDBRANCH  30  31
BRANCH  30  33
HETATM   33  C   UNK N   1      32.463  16.838   7.137  0.00  0.00     0.033 C 
HETATM   34  C   UNK N   1      32.547  17.993   8.129  0.00  0.00     0.008 C 
ENDBRANCH  30  33
BRANCH  30  35
HETATM   35  O   UNK N   1      34.572  17.723   6.546  0.00  0.00    -0.390 OA
HETATM   36  H   UNK N   1      35.066  18.491   6.220  0.00  0.00     0.210 HD
ENDBRANCH  30  35
ENDBRANCH  29  30
ENDBRANCH  28  29
ENDBRANCH  27  28
ENDBRANCH  26  27
ENDBRANCH  24  26
ENDBRANCH   9  24
TORSDOF 12
ENDMDL
MODEL 8
REMARK VINA RESULT:      -6.5     21.921     26.480
REMARK  12 active torsions:
REMARK  status: ('A' for Active; 'I' for Inactive)
REMARK    1  A    between atoms: C_29  and  C_6 
REMARK    2  A    between atoms: C_29  and  C_7 
REMARK    3  A    between atoms: C_16  and  C_9 
REMARK    4  A    between atoms: C_17  and  C_9 
REMARK    5  A    between atoms: C_12  and  C_11 
REMARK    6  A    between atoms: C_29  and  C_16 
REMARK    7  A    between atoms: O_33  and  C_17 
REMARK    8  A    between atoms: C_25  and  C_21 
REMARK    9  A    between atoms: O_33  and  C_21 
REMARK   10  A    between atoms: C_24  and  O_30 
REMARK   11  A    between atoms: C_27  and  O_31 
REMARK   12  A    between atoms: O_32  and  C_29 
ROOT
HETATM    1  C   UNK N   1      29.986  27.208  -3.564  0.00  0.00     0.016 C 
HETATM    2  C   UNK N   1      30.048  26.369  -6.400  0.00  0.00     0.005 C 
HETATM    3  C   UNK N   1      29.688  24.888  -6.435  0.00  0.00     0.034 C 
HETATM    4  C   UNK N   1      28.909  23.092  -4.908  0.00  0.00     0.004 C 
HETATM    5  C   UNK N   1      26.698  26.394  -3.005  0.00  0.00     0.009 C 
HETATM    6  C   UNK N   1      26.945  25.218  -3.922  0.00  0.00     0.010 C 
HETATM    7  C   UNK N   1      28.919  27.200  -5.807  0.00  0.00     0.010 C 
HETATM    8  C   UNK N   1      28.983  24.395  -5.187  0.00  0.00    -0.075 C 
HETATM    9  C   UNK N   1      27.463  27.537  -3.680  0.00  0.00     0.023 C 
HETATM   10  C   UNK N   1      28.433  25.340  -4.141  0.00  0.00     0.023 C 
HETATM   11  C   UNK N   1      28.706  26.841  -4.329  0.00  0.00    -0.031 C 
ENDROOT
BRANCH   4  12
HETATM   12  C   UNK N   1      29.536  22.010  -5.697  0.00  0.00     0.008 C 
HETATM   13  C   UNK N   1      30.634  21.385  -5.218  0.00  0.00    -0.048 C 
HETATM   14  C   UNK N   1      31.182  21.818  -3.869  0.00  0.00     0.071 C 
HETATM   15  C   UNK N   1      31.384  20.346  -5.987  0.00  0.00    -0.033 C 
HETATM   16  C   UNK N   1      32.085  20.801  -3.228  0.00  0.00     0.125 C 
HETATM   17  C   UNK N   1      33.209  20.500  -4.200  0.00  0.00     0.068 C 
HETATM   18  C   UNK N   1      32.706  19.806  -5.475  0.00  0.00     0.153 C 
HETATM   19  C   UNK N   1      30.891  19.858  -7.136  0.00  0.00     0.022 C 
BRANCH  16  20
HETATM   20  O   UNK N   1      32.610  21.351  -2.059  0.00  0.00    -0.395 OA
HETATM   21  H   UNK N   1      33.416  21.030  -1.626  0.00  0.00     0.210 HD
ENDBRANCH  16  20
BRANCH  18  22
HETATM   22  O   UNK N   1      33.691  19.962  -6.452  0.00  0.00    -0.391 OA
HETATM   23  H   UNK N   1      34.506  20.469  -6.593  0.00  0.00     0.210 HD
ENDBRANCH  18  22
ENDBRANCH   4  12
BRANCH   9  24
HETATM   24  C   UNK N   1      26.514  28.313  -4.672  0.00  0.00     0.122 C 
HETATM   25  C   UNK N   1      26.728  29.823  -4.647  0.00  0.00     0.040 C 
BRANCH  24  26
HETATM   26  O   UNK N   1      26.479  27.885  -6.031  0.00  0.00    -0.386 OA
BRANCH  26  27
HETATM   27  C   UNK N   1      25.346  27.122  -6.363  0.00  0.00     0.168 C 
BRANCH  27  28
HETATM   28  C   UNK N   1      25.710  26.086  -7.417  0.00  0.00     0.029 C 
BRANCH  28  29
HETATM   29  C   UNK N   1      25.812  24.700  -6.799  0.00  0.00     0.040 C 
BRANCH  29  30
HETATM   30  C   UNK N   1      25.771  23.565  -7.831  0.00  0.00     0.057 C 
BRANCH  30  31
HETATM   31  C   UNK N   1      27.078  23.461  -8.633  0.00  0.00     0.033 C 
HETATM   32  C   UNK N   1      26.940  23.869 -10.092  0.00  0.00     0.008 C 
ENDBRANCH  30  31
BRANCH  30  33
HETATM   33  C   UNK N   1      25.539  22.247  -7.093  0.00  0.00     0.033 C 
HETATM   34  C   UNK N   1      25.369  21.053  -8.025  0.00  0.00     0.008 C 
ENDBRANCH  30  33
BRANCH  30  35
HETATM   35  O   UNK N   1      24.698  23.755  -8.705  0.00  0.00    -0.390 OA
HETATM   36  H   UNK N   1      24.299  24.059  -9.535  0.00  0.00     0.210 HD
ENDBRANCH  30  35
ENDBRANCH  29  30
ENDBRANCH  28  29
ENDBRANCH  27  28
ENDBRANCH  26  27
ENDBRANCH  24  26
ENDBRANCH   9  24
TORSDOF 12
ENDMDL
MODEL 9
REMARK VINA RESULT:      -6.5      2.301     10.663
REMARK  12 active torsions:
REMARK  status: ('A' for Active; 'I' for Inactive)
REMARK    1  A    between atoms: C_29  and  C_6 
REMARK    2  A    between atoms: C_29  and  C_7 
REMARK    3  A    between atoms: C_16  and  C_9 
REMARK    4  A    between atoms: C_17  and  C_9 
REMARK    5  A    between atoms: C_12  and  C_11 
REMARK    6  A    between atoms: C_29  and  C_16 
REMARK    7  A    between atoms: O_33  and  C_17 
REMARK    8  A    between atoms: C_25  and  C_21 
REMARK    9  A    between atoms: O_33  and  C_21 
REMARK   10  A    between atoms: C_24  and  O_30 
REMARK   11  A    between atoms: C_27  and  O_31 
REMARK   12  A    between atoms: O_32  and  C_29 
ROOT
HETATM    1  C   UNK N   1      36.807  10.488  20.381  0.00  0.00     0.016 C 
HETATM    2  C   UNK N   1      35.259  12.889  19.613  0.00  0.00     0.005 C 
HETATM    3  C   UNK N   1      35.186  12.906  18.090  0.00  0.00     0.034 C 
HETATM    4  C   UNK N   1      35.786  11.476  16.151  0.00  0.00     0.004 C 
HETATM    5  C   UNK N   1      34.712   8.206  18.901  0.00  0.00     0.009 C 
HETATM    6  C   UNK N   1      34.528   9.240  17.814  0.00  0.00     0.010 C 
HETATM    7  C   UNK N   1      34.613  11.636  20.186  0.00  0.00     0.010 C 
HETATM    8  C   UNK N   1      35.473  11.564  17.445  0.00  0.00    -0.075 C 
HETATM    9  C   UNK N   1      34.721   9.040  20.186  0.00  0.00     0.023 C 
HETATM   10  C   UNK N   1      35.535  10.279  18.242  0.00  0.00     0.023 C 
HETATM   11  C   UNK N   1      35.401  10.386  19.769  0.00  0.00    -0.031 C 
ENDROOT
BRANCH   4  12
HETATM   12  C   UNK N   1      35.961  12.622  15.232  0.00  0.00     0.008 C 
HETATM   13  C   UNK N   1      36.144  12.396  13.913  0.00  0.00    -0.048 C 
HETATM   14  C   UNK N   1      36.156  10.961  13.419  0.00  0.00     0.071 C 
HETATM   15  C   UNK N   1      36.420  13.486  12.928  0.00  0.00    -0.033 C 
HETATM   16  C   UNK N   1      35.909  10.827  11.941  0.00  0.00     0.125 C 
HETATM   17  C   UNK N   1      36.952  11.658  11.219  0.00  0.00     0.068 C 
HETATM   18  C   UNK N   1      36.791  13.161  11.493  0.00  0.00     0.153 C 
HETATM   19  C   UNK N   1      36.325  14.775  13.291  0.00  0.00     0.022 C 
BRANCH  16  20
HETATM   20  O   UNK N   1      36.053   9.485  11.589  0.00  0.00    -0.395 OA
HETATM   21  H   UNK N   1      36.832   9.126  11.138  0.00  0.00     0.210 HD
ENDBRANCH  16  20
BRANCH  18  22
HETATM   22  O   UNK N   1      37.999  13.777  11.166  0.00  0.00    -0.391 OA
HETATM   23  H   UNK N   1      38.900  13.851  11.517  0.00  0.00     0.210 HD
ENDBRANCH  18  22
ENDBRANCH   4  12
BRANCH   9  24
HETATM   24  C   UNK N   1      33.259   9.158  20.765  0.00  0.00     0.122 C 
HETATM   25  C   UNK N   1      32.278   8.187  20.117  0.00  0.00     0.040 C 
BRANCH  24  26
HETATM   26  O   UNK N   1      33.096   9.087  22.179  0.00  0.00    -0.386 OA
BRANCH  26  27
HETATM   27  C   UNK N   1      32.514   7.888  22.629  0.00  0.00     0.168 C 
BRANCH  27  28
HETATM   28  C   UNK N   1      31.761   8.135  23.930  0.00  0.00     0.029 C 
BRANCH  28  29
HETATM   29  C   UNK N   1      32.715   8.578  25.029  0.00  0.00     0.040 C 
BRANCH  29  30
HETATM   30  C   UNK N   1      32.453  10.006  25.528  0.00  0.00     0.057 C 
BRANCH  30  31
HETATM   31  C   UNK N   1      31.360  10.053  26.608  0.00  0.00     0.033 C 
HETATM   32  C   UNK N   1      30.131  10.854  26.205  0.00  0.00     0.008 C 
ENDBRANCH  30  31
BRANCH  30  33
HETATM   33  C   UNK N   1      33.751  10.559  26.115  0.00  0.00     0.033 C 
HETATM   34  C   UNK N   1      33.543  11.790  26.990  0.00  0.00     0.008 C 
ENDBRANCH  30  33
BRANCH  30  35
HETATM   35  O   UNK N   1      32.090  10.825  24.456  0.00  0.00    -0.390 OA
HETATM   36  H   UNK N   1      31.448  11.226  23.850  0.00  0.00     0.210 HD
ENDBRANCH  30  35
ENDBRANCH  29  30
ENDBRANCH  28  29
ENDBRANCH  27  28
ENDBRANCH  26  27
ENDBRANCH  24  26
ENDBRANCH   9  24
TORSDOF 12
ENDMDL
