MODEL 1
REMARK VINA RESULT:      -8.9      0.000      0.000
REMARK  7 active torsions:
REMARK  status: ('A' for Active; 'I' for Inactive)
REMARK    1  A    between atoms: C_19  and  C_16 
REMARK    2  A    between atoms: N_35  and  C_16 
REMARK    3  A    between atoms: N_34  and  C_17 
REMARK    4  A    between atoms: C_27  and  C_21 
REMARK    5  A    between atoms: O_36  and  C_23 
REMARK    6  A    between atoms: O_36  and  C_24 
REMARK    7  A    between atoms: N_31  and  C_27 
ROOT
HETATM    1  C   UNK N   1      19.938  18.540   2.648  0.00  0.00     0.089 C 
HETATM    2  C   UNK N   1      25.518  20.007   3.976  0.00  0.00     0.039 A 
HETATM    3  C   UNK N   1      24.338  20.474   3.377  0.00  0.00     0.035 A 
HETATM    4  C   UNK N   1      24.401  17.929   4.653  0.00  0.00     0.068 A 
HETATM    5  C   UNK N   1      21.311  18.753   3.182  0.00  0.00     0.080 A 
HETATM    6  C   UNK N   1      25.561  18.739   4.603  0.00  0.00     0.071 A 
HETATM    7  C   UNK N   1      23.222  19.653   3.444  0.00  0.00     0.060 A 
HETATM    8  C   UNK N   1      23.239  18.436   4.059  0.00  0.00     0.065 A 
HETATM    9  N   UNK N   1      22.019  19.871   2.891  0.00  0.00    -0.344 N 
ATOM     10  HN  UNK N   1      21.708  20.693   2.372  1.00  0.00     0.167 HD
HETATM   11  N   UNK N   1      22.032  17.854   3.916  0.00  0.00    -0.331 N 
ENDROOT
BRANCH  11  12
HETATM   12  C   UNK N   1      21.705  16.479   4.329  0.00  0.00     0.169 C 
BRANCH  12  13
HETATM   13  C   UNK N   1      21.376  16.187   5.777  0.00  0.00    -0.039 A 
HETATM   14  C   UNK N   1      20.109  16.455   6.313  0.00  0.00     0.010 A 
HETATM   15  C   UNK N   1      19.722  15.932   7.551  0.00  0.00     0.013 A 
HETATM   16  C   UNK N   1      20.586  15.093   8.253  0.00  0.00    -0.026 A 
HETATM   17  C   UNK N   1      20.178  14.507   9.453  0.00  0.00     0.013 A 
HETATM   18  C   UNK N   1      21.867  14.814   7.731  0.00  0.00    -0.025 A 
HETATM   19  C   UNK N   1      21.037  13.642  10.137  0.00  0.00     0.016 A 
HETATM   20  C   UNK N   1      22.316  13.363   9.632  0.00  0.00     0.008 A 
HETATM   21  C   UNK N   1      22.726  13.956   8.424  0.00  0.00     0.027 A 
HETATM   22  C   UNK N   1      22.251  15.356   6.496  0.00  0.00     0.021 A 
BRANCH  20  23
HETATM   23  C   UNK N   1      23.218  12.445  10.363  0.00  0.00     0.102 C 
HETATM   24  N   UNK N   1      24.435  12.776  10.591  0.00  0.00    -0.385 N 
HETATM   25  H   UNK N   1      25.058  12.136  11.007  0.00  0.00     0.157 HD
HETATM   26  H   UNK N   1      24.751  13.677  10.349  0.00  0.00     0.157 HD
BRANCH  23  27
HETATM   27  N   UNK N   1      22.745  11.191  10.813  0.00  0.00    -0.385 N 
HETATM   28  H   UNK N   1      22.609  10.454  10.175  0.00  0.00     0.157 HD
HETATM   29  H   UNK N   1      22.550  11.055  11.769  0.00  0.00     0.157 HD
ENDBRANCH  23  27
ENDBRANCH  20  23
ENDBRANCH  12  13
ENDBRANCH  11  12
BRANCH   6  30
HETATM   30  O   UNK N   1      26.727  18.315   5.135  0.00  0.00    -0.346 OA
BRANCH  30  31
HETATM   31  C   UNK N   1      27.866  19.104   5.150  0.00  0.00     0.132 C 
HETATM   32  C   UNK N   1      29.108  18.210   5.050  0.00  0.00     0.052 C 
HETATM   33  C   UNK N   1      29.190  17.268   6.258  0.00  0.00     0.126 C 
HETATM   34  N   UNK N   1      29.082  18.019   7.497  0.00  0.00    -0.371 N 
HETATM   35  C   UNK N   1      27.981  18.946   7.646  0.00  0.00     0.126 C 
HETATM   36  C   UNK N   1      27.960  19.906   6.458  0.00  0.00     0.052 C 
BRANCH  34  37
HETATM   37  C   UNK N   1      30.002  17.827   8.578  0.00  0.00     0.068 C 
HETATM   38  C   UNK N   1      31.468  17.695   8.302  0.00  0.00     0.088 C 
HETATM   39  N   UNK N   1      29.604  17.786   9.801  0.00  0.00    -0.389 N 
HETATM   40  H   UNK N   1      28.612  17.872  10.063  0.00  0.00     0.157 HD
ATOM     41  HN  UNK N   1      30.297  17.663  10.540  1.00  0.00     0.157 HD
ENDBRANCH  34  37
ENDBRANCH  30  31
ENDBRANCH   6  30
TORSDOF 7
ENDMDL
MODEL 2
REMARK VINA RESULT:      -8.9      2.468      7.793
REMARK  7 active torsions:
REMARK  status: ('A' for Active; 'I' for Inactive)
REMARK    1  A    between atoms: C_19  and  C_16 
REMARK    2  A    between atoms: N_35  and  C_16 
REMARK    3  A    between atoms: N_34  and  C_17 
REMARK    4  A    between atoms: C_27  and  C_21 
REMARK    5  A    between atoms: O_36  and  C_23 
REMARK    6  A    between atoms: O_36  and  C_24 
REMARK    7  A    between atoms: N_31  and  C_27 
ROOT
HETATM    1  C   UNK N   1      19.965  17.666   0.783  0.00  0.00     0.089 C 
HETATM    2  C   UNK N   1      19.557  13.474   4.944  0.00  0.00     0.039 A 
HETATM    3  C   UNK N   1      19.355  13.737   3.580  0.00  0.00     0.035 A 
HETATM    4  C   UNK N   1      20.503  15.714   5.278  0.00  0.00     0.068 A 
HETATM    5  C   UNK N   1      20.059  16.733   1.938  0.00  0.00     0.080 A 
HETATM    6  C   UNK N   1      20.117  14.455   5.797  0.00  0.00     0.071 A 
HETATM    7  C   UNK N   1      19.743  14.983   3.107  0.00  0.00     0.060 A 
HETATM    8  C   UNK N   1      20.301  15.934   3.910  0.00  0.00     0.065 A 
HETATM    9  N   UNK N   1      19.587  15.465   1.865  0.00  0.00    -0.344 N 
ATOM     10  HN  UNK N   1      19.203  14.985   1.050  1.00  0.00     0.167 HD
HETATM   11  N   UNK N   1      20.521  17.047   3.185  0.00  0.00    -0.331 N 
ENDROOT
BRANCH  11  12
HETATM   12  C   UNK N   1      20.988  18.332   3.732  0.00  0.00     0.169 C 
BRANCH  12  13
HETATM   13  C   UNK N   1      22.374  18.836   3.391  0.00  0.00    -0.039 A 
HETATM   14  C   UNK N   1      22.590  20.142   2.928  0.00  0.00     0.010 A 
HETATM   15  C   UNK N   1      23.874  20.691   2.884  0.00  0.00     0.013 A 
HETATM   16  C   UNK N   1      24.963  19.952   3.347  0.00  0.00    -0.026 A 
HETATM   17  C   UNK N   1      26.238  20.522   3.376  0.00  0.00     0.013 A 
HETATM   18  C   UNK N   1      24.766  18.636   3.814  0.00  0.00    -0.025 A 
HETATM   19  C   UNK N   1      27.321  19.788   3.871  0.00  0.00     0.016 A 
HETATM   20  C   UNK N   1      27.139  18.475   4.330  0.00  0.00     0.008 A 
HETATM   21  C   UNK N   1      25.854  17.903   4.298  0.00  0.00     0.027 A 
HETATM   22  C   UNK N   1      23.476  18.089   3.839  0.00  0.00     0.021 A 
BRANCH  20  23
HETATM   23  C   UNK N   1      28.291  17.706   4.852  0.00  0.00     0.102 C 
HETATM   24  N   UNK N   1      28.104  16.700   5.625  0.00  0.00    -0.385 N 
HETATM   25  H   UNK N   1      28.869  16.236   6.036  0.00  0.00     0.157 HD
HETATM   26  H   UNK N   1      27.188  16.389   5.809  0.00  0.00     0.157 HD
BRANCH  23  27
HETATM   27  N   UNK N   1      29.610  18.078   4.506  0.00  0.00    -0.385 N 
HETATM   28  H   UNK N   1      30.375  17.547   4.826  0.00  0.00     0.157 HD
HETATM   29  H   UNK N   1      29.765  18.870   3.942  0.00  0.00     0.157 HD
ENDBRANCH  23  27
ENDBRANCH  20  23
ENDBRANCH  12  13
ENDBRANCH  11  12
BRANCH   6  30
HETATM   30  O   UNK N   1      20.261  14.171   7.109  0.00  0.00    -0.346 OA
BRANCH  30  31
HETATM   31  C   UNK N   1      21.264  14.732   7.884  0.00  0.00     0.132 C 
HETATM   32  C   UNK N   1      22.414  13.729   8.034  0.00  0.00     0.052 C 
HETATM   33  C   UNK N   1      21.933  12.465   8.757  0.00  0.00     0.126 C 
HETATM   34  N   UNK N   1      21.265  12.812  10.000  0.00  0.00    -0.371 N 
HETATM   35  C   UNK N   1      20.217  13.809   9.962  0.00  0.00     0.126 C 
HETATM   36  C   UNK N   1      20.743  15.075   9.289  0.00  0.00     0.052 C 
BRANCH  34  37
HETATM   37  C   UNK N   1      21.585  12.161  11.235  0.00  0.00     0.068 C 
HETATM   38  C   UNK N   1      23.015  11.990  11.646  0.00  0.00     0.088 C 
HETATM   39  N   UNK N   1      20.667  11.732  12.027  0.00  0.00    -0.389 N 
HETATM   40  H   UNK N   1      19.664  11.818  11.809  0.00  0.00     0.157 HD
ATOM     41  HN  UNK N   1      20.940  11.288  12.903  1.00  0.00     0.157 HD
ENDBRANCH  34  37
ENDBRANCH  30  31
ENDBRANCH   6  30
TORSDOF 7
ENDMDL
MODEL 3
REMARK VINA RESULT:      -8.8      7.968     13.347
REMARK  7 active torsions:
REMARK  status: ('A' for Active; 'I' for Inactive)
REMARK    1  A    between atoms: C_19  and  C_16 
REMARK    2  A    between atoms: N_35  and  C_16 
REMARK    3  A    between atoms: N_34  and  C_17 
REMARK    4  A    between atoms: C_27  and  C_21 
REMARK    5  A    between atoms: O_36  and  C_23 
REMARK    6  A    between atoms: O_36  and  C_24 
REMARK    7  A    between atoms: N_31  and  C_27 
ROOT
HETATM    1  C   UNK N   1      37.859  12.257  11.519  0.00  0.00     0.089 C 
HETATM    2  C   UNK N   1      33.989  14.427   7.599  0.00  0.00     0.039 A 
HETATM    3  C   UNK N   1      35.131  13.622   7.734  0.00  0.00     0.035 A 
HETATM    4  C   UNK N   1      33.838  14.693  10.034  0.00  0.00     0.068 A 
HETATM    5  C   UNK N   1      36.719  12.793  10.727  0.00  0.00     0.080 A 
HETATM    6  C   UNK N   1      33.347  14.972   8.736  0.00  0.00     0.071 A 
HETATM    7  C   UNK N   1      35.586  13.373   9.021  0.00  0.00     0.060 A 
HETATM    8  C   UNK N   1      34.969  13.874  10.130  0.00  0.00     0.065 A 
HETATM    9  N   UNK N   1      36.684  12.688   9.376  0.00  0.00    -0.344 N 
ATOM     10  HN  UNK N   1      37.340  12.198   8.768  1.00  0.00     0.167 HD
HETATM   11  N   UNK N   1      35.665  13.507  11.223  0.00  0.00    -0.331 N 
ENDROOT
BRANCH  11  12
HETATM   12  C   UNK N   1      35.387  13.968  12.593  0.00  0.00     0.169 C 
BRANCH  12  13
HETATM   13  C   UNK N   1      34.948  12.974  13.648  0.00  0.00    -0.039 A 
HETATM   14  C   UNK N   1      34.642  11.645  13.324  0.00  0.00     0.010 A 
HETATM   15  C   UNK N   1      34.515  10.670  14.318  0.00  0.00     0.013 A 
HETATM   16  C   UNK N   1      34.735  11.005  15.654  0.00  0.00    -0.026 A 
HETATM   17  C   UNK N   1      34.682  10.021  16.644  0.00  0.00     0.013 A 
HETATM   18  C   UNK N   1      35.041  12.339  15.999  0.00  0.00    -0.025 A 
HETATM   19  C   UNK N   1      34.935  10.356  17.977  0.00  0.00     0.016 A 
HETATM   20  C   UNK N   1      35.232  11.681  18.333  0.00  0.00     0.008 A 
HETATM   21  C   UNK N   1      35.282  12.671  17.335  0.00  0.00     0.027 A 
HETATM   22  C   UNK N   1      35.151  13.312  14.996  0.00  0.00     0.021 A 
BRANCH  20  23
HETATM   23  C   UNK N   1      35.499  12.026  19.748  0.00  0.00     0.102 C 
HETATM   24  N   UNK N   1      34.996  13.087  20.263  0.00  0.00    -0.385 N 
HETATM   25  H   UNK N   1      35.236  13.360  21.179  0.00  0.00     0.157 HD
HETATM   26  H   UNK N   1      34.366  13.633  19.740  0.00  0.00     0.157 HD
BRANCH  23  27
HETATM   27  N   UNK N   1      36.315  11.189  20.543  0.00  0.00    -0.385 N 
HETATM   28  H   UNK N   1      36.619  10.319  20.196  0.00  0.00     0.157 HD
HETATM   29  H   UNK N   1      36.580  11.476  21.447  0.00  0.00     0.157 HD
ENDBRANCH  23  27
ENDBRANCH  20  23
ENDBRANCH  12  13
ENDBRANCH  11  12
BRANCH   6  30
HETATM   30  O   UNK N   1      32.271  15.769   8.557  0.00  0.00    -0.346 OA
BRANCH  30  31
HETATM   31  C   UNK N   1      32.314  16.905   7.765  0.00  0.00     0.132 C 
HETATM   32  C   UNK N   1      31.819  18.110   8.574  0.00  0.00     0.052 C 
HETATM   33  C   UNK N   1      30.359  17.906   8.999  0.00  0.00     0.126 C 
HETATM   34  N   UNK N   1      29.536  17.566   7.851  0.00  0.00    -0.371 N 
HETATM   35  C   UNK N   1      29.972  16.490   6.988  0.00  0.00     0.126 C 
HETATM   36  C   UNK N   1      31.407  16.750   6.534  0.00  0.00     0.052 C 
BRANCH  34  37
HETATM   37  C   UNK N   1      28.296  18.234   7.588  0.00  0.00     0.068 C 
HETATM   38  C   UNK N   1      27.634  18.091   6.253  0.00  0.00     0.088 C 
HETATM   39  N   UNK N   1      27.713  18.946   8.487  0.00  0.00    -0.389 N 
HETATM   40  H   UNK N   1      28.111  19.085   9.426  0.00  0.00     0.157 HD
ATOM     41  HN  UNK N   1      26.823  19.391   8.261  1.00  0.00     0.157 HD
ENDBRANCH  34  37
ENDBRANCH  30  31
ENDBRANCH   6  30
TORSDOF 7
ENDMDL
MODEL 4
REMARK VINA RESULT:      -8.7      1.251      1.693
REMARK  7 active torsions:
REMARK  status: ('A' for Active; 'I' for Inactive)
REMARK    1  A    between atoms: C_19  and  C_16 
REMARK    2  A    between atoms: N_35  and  C_16 
REMARK    3  A    between atoms: N_34  and  C_17 
REMARK    4  A    between atoms: C_27  and  C_21 
REMARK    5  A    between atoms: O_36  and  C_23 
REMARK    6  A    between atoms: O_36  and  C_24 
REMARK    7  A    between atoms: N_31  and  C_27 
ROOT
HETATM    1  C   UNK N   1      21.110  19.411   2.988  0.00  0.00     0.089 C 
HETATM    2  C   UNK N   1      26.934  19.824   3.965  0.00  0.00     0.039 A 
HETATM    3  C   UNK N   1      25.811  20.531   3.509  0.00  0.00     0.035 A 
HETATM    4  C   UNK N   1      25.533  17.897   4.555  0.00  0.00     0.068 A 
HETATM    5  C   UNK N   1      22.531  19.347   3.421  0.00  0.00     0.080 A 
HETATM    6  C   UNK N   1      26.805  18.510   4.477  0.00  0.00     0.071 A 
HETATM    7  C   UNK N   1      24.580  19.898   3.598  0.00  0.00     0.060 A 
HETATM    8  C   UNK N   1      24.434  18.640   4.105  0.00  0.00     0.065 A 
HETATM    9  N   UNK N   1      23.396  20.360   3.168  0.00  0.00    -0.344 N 
ATOM     10  HN  UNK N   1      23.192  21.267   2.748  1.00  0.00     0.167 HD
HETATM   11  N   UNK N   1      23.140  18.277   4.014  0.00  0.00    -0.331 N 
ENDROOT
BRANCH  11  12
HETATM   12  C   UNK N   1      22.615  16.939   4.335  0.00  0.00     0.169 C 
BRANCH  12  13
HETATM   13  C   UNK N   1      22.195  16.615   5.753  0.00  0.00    -0.039 A 
HETATM   14  C   UNK N   1      21.106  17.252   6.362  0.00  0.00     0.010 A 
HETATM   15  C   UNK N   1      20.550  16.761   7.547  0.00  0.00     0.013 A 
HETATM   16  C   UNK N   1      21.053  15.593   8.119  0.00  0.00    -0.026 A 
HETATM   17  C   UNK N   1      20.455  15.055   9.261  0.00  0.00     0.013 A 
HETATM   18  C   UNK N   1      22.152  14.939   7.522  0.00  0.00    -0.025 A 
HETATM   19  C   UNK N   1      20.943  13.867   9.812  0.00  0.00     0.016 A 
HETATM   20  C   UNK N   1      22.040  13.212   9.232  0.00  0.00     0.008 A 
HETATM   21  C   UNK N   1      22.643  13.757   8.084  0.00  0.00     0.027 A 
HETATM   22  C   UNK N   1      22.711  15.450   6.342  0.00  0.00     0.021 A 
BRANCH  20  23
HETATM   23  C   UNK N   1      22.550  11.954   9.823  0.00  0.00     0.102 C 
HETATM   24  N   UNK N   1      23.326  11.188   9.148  0.00  0.00    -0.385 N 
HETATM   25  H   UNK N   1      23.602  10.314   9.509  0.00  0.00     0.157 HD
HETATM   26  H   UNK N   1      23.648  11.475   8.264  0.00  0.00     0.157 HD
BRANCH  23  27
HETATM   27  N   UNK N   1      22.182  11.584  11.137  0.00  0.00    -0.385 N 
HETATM   28  H   UNK N   1      22.576  10.786  11.556  0.00  0.00     0.157 HD
HETATM   29  H   UNK N   1      21.529  12.127  11.635  0.00  0.00     0.157 HD
ENDBRANCH  23  27
ENDBRANCH  20  23
ENDBRANCH  12  13
ENDBRANCH  11  12
BRANCH   6  30
HETATM   30  O   UNK N   1      27.918  17.854   4.872  0.00  0.00    -0.346 OA
BRANCH  30  31
HETATM   31  C   UNK N   1      27.869  16.739   5.694  0.00  0.00     0.132 C 
HETATM   32  C   UNK N   1      27.879  17.186   7.161  0.00  0.00     0.052 C 
HETATM   33  C   UNK N   1      29.179  17.934   7.484  0.00  0.00     0.126 C 
HETATM   34  N   UNK N   1      30.333  17.148   7.081  0.00  0.00    -0.371 N 
HETATM   35  C   UNK N   1      30.368  16.620   5.734  0.00  0.00     0.126 C 
HETATM   36  C   UNK N   1      29.088  15.833   5.462  0.00  0.00     0.052 C 
BRANCH  34  37
HETATM   37  C   UNK N   1      31.441  16.929   7.962  0.00  0.00     0.068 C 
HETATM   38  C   UNK N   1      32.504  15.939   7.601  0.00  0.00     0.088 C 
HETATM   39  N   UNK N   1      31.564  17.585   9.062  0.00  0.00    -0.389 N 
HETATM   40  H   UNK N   1      30.872  18.282   9.371  0.00  0.00     0.157 HD
ATOM     41  HN  UNK N   1      32.378  17.409   9.651  1.00  0.00     0.157 HD
ENDBRANCH  34  37
ENDBRANCH  30  31
ENDBRANCH   6  30
TORSDOF 7
ENDMDL
MODEL 5
REMARK VINA RESULT:      -8.4      1.903      7.647
REMARK  7 active torsions:
REMARK  status: ('A' for Active; 'I' for Inactive)
REMARK    1  A    between atoms: C_19  and  C_16 
REMARK    2  A    between atoms: N_35  and  C_16 
REMARK    3  A    between atoms: N_34  and  C_17 
REMARK    4  A    between atoms: C_27  and  C_21 
REMARK    5  A    between atoms: O_36  and  C_23 
REMARK    6  A    between atoms: O_36  and  C_24 
REMARK    7  A    between atoms: N_31  and  C_27 
ROOT
HETATM    1  C   UNK N   1      25.217  20.423   2.746  0.00  0.00     0.089 C 
HETATM    2  C   UNK N   1      21.734  17.001   6.095  0.00  0.00     0.039 A 
HETATM    3  C   UNK N   1      21.754  18.152   5.293  0.00  0.00     0.035 A 
HETATM    4  C   UNK N   1      24.075  16.520   5.534  0.00  0.00     0.068 A 
HETATM    5  C   UNK N   1      24.496  19.373   3.515  0.00  0.00     0.080 A 
HETATM    6  C   UNK N   1      22.887  16.190   6.229  0.00  0.00     0.071 A 
HETATM    7  C   UNK N   1      22.936  18.446   4.629  0.00  0.00     0.060 A 
HETATM    8  C   UNK N   1      24.051  17.666   4.730  0.00  0.00     0.065 A 
HETATM    9  N   UNK N   1      23.195  19.519   3.866  0.00  0.00    -0.344 N 
ATOM     10  HN  UNK N   1      22.557  20.273   3.608  1.00  0.00     0.167 HD
HETATM   11  N   UNK N   1      25.048  18.230   4.021  0.00  0.00    -0.331 N 
ENDROOT
BRANCH  11  12
HETATM   12  C   UNK N   1      26.441  17.753   3.998  0.00  0.00     0.169 C 
BRANCH  12  13
HETATM   13  C   UNK N   1      27.400  18.179   5.089  0.00  0.00    -0.039 A 
HETATM   14  C   UNK N   1      27.127  19.270   5.926  0.00  0.00     0.010 A 
HETATM   15  C   UNK N   1      27.861  19.486   7.096  0.00  0.00     0.013 A 
HETATM   16  C   UNK N   1      28.856  18.583   7.469  0.00  0.00    -0.026 A 
HETATM   17  C   UNK N   1      29.542  18.752   8.674  0.00  0.00     0.013 A 
HETATM   18  C   UNK N   1      29.147  17.480   6.639  0.00  0.00    -0.025 A 
HETATM   19  C   UNK N   1      30.517  17.826   9.060  0.00  0.00     0.016 A 
HETATM   20  C   UNK N   1      30.821  16.730   8.238  0.00  0.00     0.008 A 
HETATM   21  C   UNK N   1      30.130  16.564   7.024  0.00  0.00     0.027 A 
HETATM   22  C   UNK N   1      28.416  17.282   5.460  0.00  0.00     0.021 A 
BRANCH  20  23
HETATM   23  C   UNK N   1      31.854  15.755   8.654  0.00  0.00     0.102 C 
HETATM   24  N   UNK N   1      32.691  15.292   7.801  0.00  0.00    -0.385 N 
HETATM   25  H   UNK N   1      33.328  14.586   8.058  0.00  0.00     0.157 HD
HETATM   26  H   UNK N   1      32.698  15.645   6.882  0.00  0.00     0.157 HD
BRANCH  23  27
HETATM   27  N   UNK N   1      31.924  15.324   9.999  0.00  0.00    -0.385 N 
HETATM   28  H   UNK N   1      32.726  15.511  10.538  0.00  0.00     0.157 HD
HETATM   29  H   UNK N   1      31.168  14.834  10.397  0.00  0.00     0.157 HD
ENDBRANCH  23  27
ENDBRANCH  20  23
ENDBRANCH  12  13
ENDBRANCH  11  12
BRANCH   6  30
HETATM   30  O   UNK N   1      22.833  15.111   7.039  0.00  0.00    -0.346 OA
BRANCH  30  31
HETATM   31  C   UNK N   1      21.839  14.152   6.931  0.00  0.00     0.132 C 
HETATM   32  C   UNK N   1      20.756  14.418   7.983  0.00  0.00     0.052 C 
HETATM   33  C   UNK N   1      21.343  14.310   9.397  0.00  0.00     0.126 C 
HETATM   34  N   UNK N   1      22.050  13.051   9.559  0.00  0.00    -0.371 N 
HETATM   35  C   UNK N   1      23.036  12.683   8.567  0.00  0.00     0.126 C 
HETATM   36  C   UNK N   1      22.407  12.744   7.176  0.00  0.00     0.052 C 
BRANCH  34  37
HETATM   37  C   UNK N   1      21.827  12.203  10.692  0.00  0.00     0.068 C 
HETATM   38  C   UNK N   1      20.505  12.218  11.395  0.00  0.00     0.088 C 
HETATM   39  N   UNK N   1      22.736  11.398  11.118  0.00  0.00    -0.389 N 
HETATM   40  H   UNK N   1      23.667  11.334  10.682  0.00  0.00     0.157 HD
ATOM     41  HN  UNK N   1      22.529  10.801  11.918  1.00  0.00     0.157 HD
ENDBRANCH  34  37
ENDBRANCH  30  31
ENDBRANCH   6  30
TORSDOF 7
ENDMDL
MODEL 6
REMARK VINA RESULT:      -8.1      4.147      9.360
REMARK  7 active torsions:
REMARK  status: ('A' for Active; 'I' for Inactive)
REMARK    1  A    between atoms: C_19  and  C_16 
REMARK    2  A    between atoms: N_35  and  C_16 
REMARK    3  A    between atoms: N_34  and  C_17 
REMARK    4  A    between atoms: C_27  and  C_21 
REMARK    5  A    between atoms: O_36  and  C_23 
REMARK    6  A    between atoms: O_36  and  C_24 
REMARK    7  A    between atoms: N_31  and  C_27 
ROOT
HETATM    1  C   UNK N   1      27.462  20.263   5.436  0.00  0.00     0.089 C 
HETATM    2  C   UNK N   1      22.205  18.477   3.381  0.00  0.00     0.039 A 
HETATM    3  C   UNK N   1      23.065  19.581   3.479  0.00  0.00     0.035 A 
HETATM    4  C   UNK N   1      23.890  17.022   4.416  0.00  0.00     0.068 A 
HETATM    5  C   UNK N   1      26.254  19.586   4.893  0.00  0.00     0.080 A 
HETATM    6  C   UNK N   1      22.604  17.203   3.854  0.00  0.00     0.071 A 
HETATM    7  C   UNK N   1      24.317  19.367   4.038  0.00  0.00     0.060 A 
HETATM    8  C   UNK N   1      24.725  18.144   4.482  0.00  0.00     0.065 A 
HETATM    9  N   UNK N   1      25.265  20.284   4.283  0.00  0.00    -0.344 N 
ATOM     10  HN  UNK N   1      25.246  21.280   4.060  1.00  0.00     0.167 HD
HETATM   11  N   UNK N   1      25.956  18.259   5.016  0.00  0.00    -0.331 N 
ENDROOT
BRANCH  11  12
HETATM   12  C   UNK N   1      26.674  17.182   5.719  0.00  0.00     0.169 C 
BRANCH  12  13
HETATM   13  C   UNK N   1      28.148  16.961   5.454  0.00  0.00    -0.039 A 
HETATM   14  C   UNK N   1      28.670  16.960   4.153  0.00  0.00     0.010 A 
HETATM   15  C   UNK N   1      30.047  17.039   3.926  0.00  0.00     0.013 A 
HETATM   16  C   UNK N   1      30.923  17.165   5.003  0.00  0.00    -0.026 A 
HETATM   17  C   UNK N   1      32.293  17.320   4.781  0.00  0.00     0.013 A 
HETATM   18  C   UNK N   1      30.417  17.166   6.320  0.00  0.00    -0.025 A 
HETATM   19  C   UNK N   1      33.164  17.478   5.863  0.00  0.00     0.016 A 
HETATM   20  C   UNK N   1      32.673  17.472   7.177  0.00  0.00     0.008 A 
HETATM   21  C   UNK N   1      31.293  17.313   7.399  0.00  0.00     0.027 A 
HETATM   22  C   UNK N   1      29.035  17.070   6.537  0.00  0.00     0.021 A 
BRANCH  20  23
HETATM   23  C   UNK N   1      33.603  17.640   8.317  0.00  0.00     0.102 C 
HETATM   24  N   UNK N   1      34.455  18.598   8.324  0.00  0.00    -0.385 N 
HETATM   25  H   UNK N   1      35.126  18.665   9.042  0.00  0.00     0.157 HD
HETATM   26  H   UNK N   1      34.439  19.272   7.606  0.00  0.00     0.157 HD
BRANCH  23  27
HETATM   27  N   UNK N   1      33.561  16.742   9.408  0.00  0.00    -0.385 N 
HETATM   28  H   UNK N   1      33.376  15.787   9.257  0.00  0.00     0.157 HD
HETATM   29  H   UNK N   1      33.717  17.073  10.322  0.00  0.00     0.157 HD
ENDBRANCH  23  27
ENDBRANCH  20  23
ENDBRANCH  12  13
ENDBRANCH  11  12
BRANCH   6  30
HETATM   30  O   UNK N   1      21.731  16.176   3.771  0.00  0.00    -0.346 OA
BRANCH  30  31
HETATM   31  C   UNK N   1      22.041  14.989   3.126  0.00  0.00     0.132 C 
HETATM   32  C   UNK N   1      22.108  15.233   1.614  0.00  0.00     0.052 C 
HETATM   33  C   UNK N   1      20.745  15.696   1.084  0.00  0.00     0.126 C 
HETATM   34  N   UNK N   1      19.698  14.782   1.505  0.00  0.00    -0.371 N 
HETATM   35  C   UNK N   1      19.610  14.436   2.907  0.00  0.00     0.126 C 
HETATM   36  C   UNK N   1      20.965  13.924   3.391  0.00  0.00     0.052 C 
BRANCH  34  37
HETATM   37  C   UNK N   1      18.734  14.263   0.581  0.00  0.00     0.068 C 
HETATM   38  C   UNK N   1      18.482  12.789   0.506  0.00  0.00     0.088 C 
HETATM   39  N   UNK N   1      18.050  15.039  -0.184  0.00  0.00    -0.389 N 
HETATM   40  H   UNK N   1      18.171  16.062  -0.184  0.00  0.00     0.157 HD
ATOM     41  HN  UNK N   1      17.364  14.627  -0.816  1.00  0.00     0.157 HD
ENDBRANCH  34  37
ENDBRANCH  30  31
ENDBRANCH   6  30
TORSDOF 7
ENDMDL
MODEL 7
REMARK VINA RESULT:      -8.0      9.247     14.595
REMARK  7 active torsions:
REMARK  status: ('A' for Active; 'I' for Inactive)
REMARK    1  A    between atoms: C_19  and  C_16 
REMARK    2  A    between atoms: N_35  and  C_16 
REMARK    3  A    between atoms: N_34  and  C_17 
REMARK    4  A    between atoms: C_27  and  C_21 
REMARK    5  A    between atoms: O_36  and  C_23 
REMARK    6  A    between atoms: O_36  and  C_24 
REMARK    7  A    between atoms: N_31  and  C_27 
ROOT
HETATM    1  C   UNK N   1      37.579   9.421  12.974  0.00  0.00     0.089 C 
HETATM    2  C   UNK N   1      36.999  13.757   8.985  0.00  0.00     0.039 A 
HETATM    3  C   UNK N   1      37.791  12.660   9.355  0.00  0.00     0.035 A 
HETATM    4  C   UNK N   1      35.394  13.253  10.772  0.00  0.00     0.068 A 
HETATM    5  C   UNK N   1      37.183  10.488  12.016  0.00  0.00     0.080 A 
HETATM    6  C   UNK N   1      35.811  14.065   9.690  0.00  0.00     0.071 A 
HETATM    7  C   UNK N   1      37.353  11.888  10.421  0.00  0.00     0.060 A 
HETATM    8  C   UNK N   1      36.202  12.158  11.102  0.00  0.00     0.065 A 
HETATM    9  N   UNK N   1      37.980  10.840  10.978  0.00  0.00    -0.344 N 
ATOM     10  HN  UNK N   1      38.856  10.407  10.685  1.00  0.00     0.167 HD
HETATM   11  N   UNK N   1      36.069  11.274  12.109  0.00  0.00    -0.331 N 
ENDROOT
BRANCH  11  12
HETATM   12  C   UNK N   1      35.023  11.327  13.144  0.00  0.00     0.169 C 
BRANCH  12  13
HETATM   13  C   UNK N   1      35.348  11.881  14.515  0.00  0.00    -0.039 A 
HETATM   14  C   UNK N   1      35.353  13.259  14.771  0.00  0.00     0.010 A 
HETATM   15  C   UNK N   1      35.372  13.752  16.079  0.00  0.00     0.013 A 
HETATM   16  C   UNK N   1      35.343  12.867  17.156  0.00  0.00    -0.026 A 
HETATM   17  C   UNK N   1      35.287  13.353  18.464  0.00  0.00     0.013 A 
HETATM   18  C   UNK N   1      35.341  11.476  16.919  0.00  0.00    -0.025 A 
HETATM   19  C   UNK N   1      35.225  12.462  19.540  0.00  0.00     0.016 A 
HETATM   20  C   UNK N   1      35.231  11.077  19.316  0.00  0.00     0.008 A 
HETATM   21  C   UNK N   1      35.290  10.589  17.999  0.00  0.00     0.027 A 
HETATM   22  C   UNK N   1      35.337  10.993  15.603  0.00  0.00     0.021 A 
BRANCH  20  23
HETATM   23  C   UNK N   1      35.165  10.141  20.461  0.00  0.00     0.102 C 
HETATM   24  N   UNK N   1      35.983  10.257  21.442  0.00  0.00    -0.385 N 
HETATM   25  H   UNK N   1      35.992   9.589  22.166  0.00  0.00     0.157 HD
HETATM   26  H   UNK N   1      36.605  11.019  21.473  0.00  0.00     0.157 HD
BRANCH  23  27
HETATM   27  N   UNK N   1      34.201   9.107  20.481  0.00  0.00    -0.385 N 
HETATM   28  H   UNK N   1      33.314   9.249  20.078  0.00  0.00     0.157 HD
HETATM   29  H   UNK N   1      34.416   8.242  20.900  0.00  0.00     0.157 HD
ENDBRANCH  23  27
ENDBRANCH  20  23
ENDBRANCH  12  13
ENDBRANCH  11  12
BRANCH   6  30
HETATM   30  O   UNK N   1      35.097  15.151   9.321  0.00  0.00    -0.346 OA
BRANCH  30  31
HETATM   31  C   UNK N   1      34.616  15.319   8.033  0.00  0.00     0.132 C 
HETATM   32  C   UNK N   1      34.472  16.816   7.734  0.00  0.00     0.052 C 
HETATM   33  C   UNK N   1      33.457  17.459   8.688  0.00  0.00     0.126 C 
HETATM   34  N   UNK N   1      32.208  16.715   8.678  0.00  0.00    -0.371 N 
HETATM   35  C   UNK N   1      32.260  15.283   8.876  0.00  0.00     0.126 C 
HETATM   36  C   UNK N   1      33.234  14.666   7.875  0.00  0.00     0.052 C 
BRANCH  34  37
HETATM   37  C   UNK N   1      30.943  17.370   8.528  0.00  0.00     0.068 C 
HETATM   38  C   UNK N   1      30.135  17.168   7.284  0.00  0.00     0.088 C 
HETATM   39  N   UNK N   1      30.460  18.120   9.455  0.00  0.00    -0.389 N 
HETATM   40  H   UNK N   1      30.960  18.301  10.336  0.00  0.00     0.157 HD
ATOM     41  HN  UNK N   1      29.548  18.554   9.312  1.00  0.00     0.157 HD
ENDBRANCH  34  37
ENDBRANCH  30  31
ENDBRANCH   6  30
TORSDOF 7
ENDMDL
MODEL 8
REMARK VINA RESULT:      -8.0      4.406      7.282
REMARK  7 active torsions:
REMARK  status: ('A' for Active; 'I' for Inactive)
REMARK    1  A    between atoms: C_19  and  C_16 
REMARK    2  A    between atoms: N_35  and  C_16 
REMARK    3  A    between atoms: N_34  and  C_17 
REMARK    4  A    between atoms: C_27  and  C_21 
REMARK    5  A    between atoms: O_36  and  C_23 
REMARK    6  A    between atoms: O_36  and  C_24 
REMARK    7  A    between atoms: N_31  and  C_27 
ROOT
HETATM    1  C   UNK N   1      26.440  20.569   5.980  0.00  0.00     0.089 C 
HETATM    2  C   UNK N   1      30.013  17.408   9.486  0.00  0.00     0.039 A 
HETATM    3  C   UNK N   1      28.911  18.277   9.483  0.00  0.00     0.035 A 
HETATM    4  C   UNK N   1      30.048  17.377   7.032  0.00  0.00     0.068 A 
HETATM    5  C   UNK N   1      27.355  19.615   6.662  0.00  0.00     0.080 A 
HETATM    6  C   UNK N   1      30.590  16.964   8.273  0.00  0.00     0.071 A 
HETATM    7  C   UNK N   1      28.408  18.664   8.249  0.00  0.00     0.060 A 
HETATM    8  C   UNK N   1      28.939  18.232   7.070  0.00  0.00     0.065 A 
HETATM    9  N   UNK N   1      27.410  19.529   8.014  0.00  0.00    -0.344 N 
ATOM     10  HN  UNK N   1      26.824  20.011   8.697  1.00  0.00     0.167 HD
HETATM   11  N   UNK N   1      28.278  18.814   6.051  0.00  0.00    -0.331 N 
ENDROOT
BRANCH  11  12
HETATM   12  C   UNK N   1      28.649  18.700   4.630  0.00  0.00     0.169 C 
BRANCH  12  13
HETATM   13  C   UNK N   1      28.005  17.635   3.768  0.00  0.00    -0.039 A 
HETATM   14  C   UNK N   1      28.758  16.607   3.182  0.00  0.00     0.010 A 
HETATM   15  C   UNK N   1      28.139  15.481   2.631  0.00  0.00     0.013 A 
HETATM   16  C   UNK N   1      26.753  15.348   2.696  0.00  0.00    -0.026 A 
HETATM   17  C   UNK N   1      26.134  14.192   2.214  0.00  0.00     0.013 A 
HETATM   18  C   UNK N   1      25.978  16.373   3.279  0.00  0.00    -0.025 A 
HETATM   19  C   UNK N   1      24.747  14.049   2.311  0.00  0.00     0.016 A 
HETATM   20  C   UNK N   1      23.965  15.065   2.881  0.00  0.00     0.008 A 
HETATM   21  C   UNK N   1      24.590  16.229   3.363  0.00  0.00     0.027 A 
HETATM   22  C   UNK N   1      26.608  17.505   3.815  0.00  0.00     0.021 A 
BRANCH  20  23
HETATM   23  C   UNK N   1      22.497  14.905   2.980  0.00  0.00     0.102 C 
HETATM   24  N   UNK N   1      21.981  13.743   3.146  0.00  0.00    -0.385 N 
HETATM   25  H   UNK N   1      21.003  13.624   3.133  0.00  0.00     0.157 HD
HETATM   26  H   UNK N   1      22.565  12.964   3.288  0.00  0.00     0.157 HD
BRANCH  23  27
HETATM   27  N   UNK N   1      21.650  16.033   2.888  0.00  0.00    -0.385 N 
HETATM   28  H   UNK N   1      21.603  16.550   2.051  0.00  0.00     0.157 HD
HETATM   29  H   UNK N   1      21.106  16.303   3.663  0.00  0.00     0.157 HD
ENDBRANCH  23  27
ENDBRANCH  20  23
ENDBRANCH  12  13
ENDBRANCH  11  12
BRANCH   6  30
HETATM   30  O   UNK N   1      31.670  16.155   8.323  0.00  0.00    -0.346 OA
BRANCH  30  31
HETATM   31  C   UNK N   1      32.790  16.364   7.534  0.00  0.00     0.132 C 
HETATM   32  C   UNK N   1      33.531  15.036   7.339  0.00  0.00     0.052 C 
HETATM   33  C   UNK N   1      34.018  14.489   8.687  0.00  0.00     0.126 C 
HETATM   34  N   UNK N   1      34.771  15.504   9.405  0.00  0.00    -0.371 N 
HETATM   35  C   UNK N   1      34.178  16.813   9.568  0.00  0.00     0.126 C 
HETATM   36  C   UNK N   1      33.756  17.355   8.204  0.00  0.00     0.052 C 
BRANCH  34  37
HETATM   37  C   UNK N   1      36.049  15.222   9.988  0.00  0.00     0.068 C 
HETATM   38  C   UNK N   1      36.956  14.211   9.358  0.00  0.00     0.088 C 
HETATM   39  N   UNK N   1      36.458  15.838  11.041  0.00  0.00    -0.389 N 
HETATM   40  H   UNK N   1      35.888  16.546  11.524  0.00  0.00     0.157 HD
ATOM     41  HN  UNK N   1      37.382  15.617  11.412  1.00  0.00     0.157 HD
ENDBRANCH  34  37
ENDBRANCH  30  31
ENDBRANCH   6  30
TORSDOF 7
ENDMDL
MODEL 9
REMARK VINA RESULT:      -8.0      2.759      9.085
REMARK  7 active torsions:
REMARK  status: ('A' for Active; 'I' for Inactive)
REMARK    1  A    between atoms: C_19  and  C_16 
REMARK    2  A    between atoms: N_35  and  C_16 
REMARK    3  A    between atoms: N_34  and  C_17 
REMARK    4  A    between atoms: C_27  and  C_21 
REMARK    5  A    between atoms: O_36  and  C_23 
REMARK    6  A    between atoms: O_36  and  C_24 
REMARK    7  A    between atoms: N_31  and  C_27 
ROOT
HETATM    1  C   UNK N   1      26.826  19.124   3.767  0.00  0.00     0.089 C 
HETATM    2  C   UNK N   1      23.464  14.582   5.532  0.00  0.00     0.039 A 
HETATM    3  C   UNK N   1      23.680  15.488   4.483  0.00  0.00     0.035 A 
HETATM    4  C   UNK N   1      25.412  15.455   6.742  0.00  0.00     0.068 A 
HETATM    5  C   UNK N   1      26.189  17.907   4.338  0.00  0.00     0.080 A 
HETATM    6  C   UNK N   1      24.314  14.567   6.664  0.00  0.00     0.071 A 
HETATM    7  C   UNK N   1      24.764  16.346   4.595  0.00  0.00     0.060 A 
HETATM    8  C   UNK N   1      25.605  16.333   5.669  0.00  0.00     0.065 A 
HETATM    9  N   UNK N   1      25.118  17.324   3.746  0.00  0.00    -0.344 N 
ATOM     10  HN  UNK N   1      24.681  17.571   2.858  1.00  0.00     0.167 HD
HETATM   11  N   UNK N   1      26.523  17.307   5.519  0.00  0.00    -0.331 N 
ENDROOT
BRANCH  11  12
HETATM   12  C   UNK N   1      27.518  17.692   6.535  0.00  0.00     0.169 C 
BRANCH  12  13
HETATM   13  C   UNK N   1      28.848  16.971   6.597  0.00  0.00    -0.039 A 
HETATM   14  C   UNK N   1      29.226  16.038   5.622  0.00  0.00     0.010 A 
HETATM   15  C   UNK N   1      30.547  15.591   5.522  0.00  0.00     0.013 A 
HETATM   16  C   UNK N   1      31.522  16.108   6.374  0.00  0.00    -0.026 A 
HETATM   17  C   UNK N   1      32.857  15.722   6.232  0.00  0.00     0.013 A 
HETATM   18  C   UNK N   1      31.160  17.046   7.364  0.00  0.00    -0.025 A 
HETATM   19  C   UNK N   1      33.836  16.267   7.068  0.00  0.00     0.016 A 
HETATM   20  C   UNK N   1      33.486  17.194   8.062  0.00  0.00     0.008 A 
HETATM   21  C   UNK N   1      32.141  17.579   8.205  0.00  0.00     0.027 A 
HETATM   22  C   UNK N   1      29.829  17.475   7.466  0.00  0.00     0.021 A 
BRANCH  20  23
HETATM   23  C   UNK N   1      34.530  17.766   8.942  0.00  0.00     0.102 C 
HETATM   24  N   UNK N   1      35.084  18.884   8.651  0.00  0.00    -0.385 N 
HETATM   25  H   UNK N   1      35.833  19.227   9.192  0.00  0.00     0.157 HD
HETATM   26  H   UNK N   1      34.760  19.404   7.881  0.00  0.00     0.157 HD
BRANCH  23  27
HETATM   27  N   UNK N   1      34.927  17.080  10.113  0.00  0.00    -0.385 N 
HETATM   28  H   UNK N   1      35.585  16.349  10.060  0.00  0.00     0.157 HD
HETATM   29  H   UNK N   1      34.544  17.333  10.984  0.00  0.00     0.157 HD
ENDBRANCH  23  27
ENDBRANCH  20  23
ENDBRANCH  12  13
ENDBRANCH  11  12
BRANCH   6  30
HETATM   30  O   UNK N   1      24.048  13.701   7.667  0.00  0.00    -0.346 OA
BRANCH  30  31
HETATM   31  C   UNK N   1      23.061  12.733   7.568  0.00  0.00     0.132 C 
HETATM   32  C   UNK N   1      21.743  13.290   8.117  0.00  0.00     0.052 C 
HETATM   33  C   UNK N   1      21.887  13.645   9.603  0.00  0.00     0.126 C 
HETATM   34  N   UNK N   1      22.426  12.518  10.345  0.00  0.00    -0.371 N 
HETATM   35  C   UNK N   1      23.627  11.881   9.852  0.00  0.00     0.126 C 
HETATM   36  C   UNK N   1      23.432  11.488   8.389  0.00  0.00     0.052 C 
BRANCH  34  37
HETATM   37  C   UNK N   1      21.825  12.062  11.564  0.00  0.00     0.068 C 
HETATM   38  C   UNK N   1      20.336  12.053  11.711  0.00  0.00     0.088 C 
HETATM   39  N   UNK N   1      22.539  11.632  12.544  0.00  0.00    -0.389 N 
HETATM   40  H   UNK N   1      23.568  11.608  12.511  0.00  0.00     0.157 HD
ATOM     41  HN  UNK N   1      22.069  11.303  13.388  1.00  0.00     0.157 HD
ENDBRANCH  34  37
ENDBRANCH  30  31
ENDBRANCH   6  30
TORSDOF 7
ENDMDL
