REMARK  6 active torsions:
REMARK  status: ('A' for Active; 'I' for Inactive)
REMARK    1  A    between atoms: C_6  and  C_5 
REMARK    2  A    between atoms: P_28  and  O_23 
REMARK    3  A    between atoms: P_29  and  O_24 
REMARK    4  A    between atoms: P_30  and  O_25 
REMARK    5  A    between atoms: P_31  and  O_26 
REMARK    6  A    between atoms: P_32  and  O_27 
ROOT
HETATM    1  C   UNK N   1       1.429   0.825   0.000  0.00  0.00     0.182 A 
HETATM    2  C   UNK N   1       0.715   1.238   0.000  0.00  0.00     0.197 A 
HETATM    3  C   UNK N   1       1.429  -0.000   0.000  0.00  0.00     0.197 A 
HETATM    4  C   UNK N   1       0.000   0.825   0.000  0.00  0.00     0.198 A 
HETATM    5  C   UNK N   1       0.715  -0.412   0.000  0.00  0.00     0.198 A 
HETATM    6  C   UNK N   1       0.000   0.000   0.000  0.00  0.00     0.198 A 
HETATM    7  O   UNK N   1       2.143   1.238   0.000  0.00  0.00    -0.390 OA
HETATM    8  O   UNK N   1       2.143   2.888   0.000  0.00  0.00    -0.307 OA
HETATM    9  O   UNK N   1       1.016   3.189   0.000  0.00  0.00    -0.307 OA
HETATM   10  O   UNK N   1       1.841   1.760   0.000  0.00  0.00    -0.632 OA
HETATM   11  O   UNK N   1       3.270  -0.715   0.000  0.00  0.00    -0.307 OA
HETATM   12  O   UNK N   1       2.445   0.715   0.000  0.00  0.00    -0.307 OA
HETATM   13  O   UNK N   1       3.572   0.412   0.000  0.00  0.00    -0.632 OA
HETATM   14  O   UNK N   1       0.111   2.062   0.000  0.00  0.00    -0.307 OA
HETATM   15  O   UNK N   1      -1.540   2.062   0.000  0.00  0.00    -0.307 OA
HETATM   16  O   UNK N   1      -0.715   2.888   0.000  0.00  0.00    -0.632 OA
HETATM   17  O   UNK N   1       2.143  -2.062   0.000  0.00  0.00    -0.307 OA
HETATM   18  O   UNK N   1       1.016  -2.365   0.000  0.00  0.00    -0.307 OA
HETATM   19  O   UNK N   1       1.841  -0.935   0.000  0.00  0.00    -0.632 OA
HETATM   20  O   UNK N   1      -2.143   0.412   0.000  0.00  0.00    -0.307 OA
HETATM   21  O   UNK N   1      -1.016   0.715   0.000  0.00  0.00    -0.307 OA
HETATM   22  O   UNK N   1      -1.841  -0.715   0.000  0.00  0.00    -0.632 OA
HETATM   23  O   UNK N   1       0.715   2.062   0.000  0.00  0.00    -0.286 OA
HETATM   24  O   UNK N   1       2.143  -0.412   0.000  0.00  0.00    -0.286 OA
HETATM   25  O   UNK N   1      -0.715   1.238   0.000  0.00  0.00    -0.286 OA
HETATM   26  O   UNK N   1       0.715  -1.238   0.000  0.00  0.00    -0.286 OA
HETATM   27  O   UNK N   1      -0.715  -0.412   0.000  0.00  0.00    -0.286 OA
HETATM   28  P   UNK N   1       1.429   2.475   0.000  0.00  0.00     0.391 P 
HETATM   29  P   UNK N   1       2.858  -0.000   0.000  0.00  0.00     0.391 P 
HETATM   30  P   UNK N   1      -0.715   2.062   0.000  0.00  0.00     0.391 P 
HETATM   31  P   UNK N   1       1.429  -1.650   0.000  0.00  0.00     0.391 P 
HETATM   32  P   UNK N   1      -1.429   0.000   0.000  0.00  0.00     0.391 P 
HETATM   33  H   UNK N   1       2.983   0.752   0.000  0.00  0.00     0.210 HD
HETATM   34  H   UNK N   1       2.983   2.402   0.000  0.00  0.00     0.222 HD
HETATM   35  H   UNK N   1       1.501   4.030   0.000  0.00  0.00     0.222 HD
HETATM   36  H   UNK N   1       2.785  -1.555   0.000  0.00  0.00     0.222 HD
HETATM   37  H   UNK N   1       2.930   1.555   0.000  0.00  0.00     0.222 HD
HETATM   38  H   UNK N   1       0.596   1.222   0.000  0.00  0.00     0.222 HD
HETATM   39  H   UNK N   1      -2.025   2.903   0.000  0.00  0.00     0.222 HD
HETATM   40  H   UNK N   1       2.143  -3.032   0.000  0.00  0.00     0.222 HD
HETATM   41  H   UNK N   1       0.046  -2.365   0.000  0.00  0.00     0.222 HD
HETATM   42  H   UNK N   1      -2.143   1.382   0.000  0.00  0.00     0.222 HD
HETATM   43  H   UNK N   1      -0.046   0.715   0.000  0.00  0.00     0.222 HD
ENDROOT
TORSDOF 6
