REMARK  6 active torsions:
REMARK  status: ('A' for Active; 'I' for Inactive)
REMARK    1  A    between atoms: C_2  and  N_1 
REMARK    2  A    between atoms: C_2  and  C_3 
REMARK    3  A    between atoms: C_2  and  C_7 
REMARK    4  A    between atoms: C_3  and  C_4 
REMARK    5  A    between atoms: C_4  and  C_5 
REMARK    6  A    between atoms: C_7  and  O_8 
ROOT
HETATM    1  C   UNK N   1       4.989   2.110   0.397  0.00  0.00     0.280 C 
ENDROOT
BRANCH   1   2
HETATM    2  N   UNK N   1       5.576   3.410   0.116  0.00  0.00    -0.065 N 
HETATM    3  H   UNK N   1       6.572   3.509  -0.080  0.00  0.00     0.275 HD
HETATM    4  H   UNK N   1       4.981   4.238   0.116  0.00  0.00     0.275 HD
HETATM    5  H   UNK N   1       5.973   4.329  -0.078  0.00  0.00     0.275 HD
ENDBRANCH   1   2
BRANCH   1   6
HETATM    6  C   UNK N   1       3.666   1.991  -0.346  0.00  0.00     0.050 C 
BRANCH   6   7
HETATM    7  C   UNK N   1       2.811   0.899   0.278  0.00  0.00     0.072 C 
BRANCH   7   8
HETATM    8  C   UNK N   1       1.412   0.978  -0.231  0.00  0.00     0.231 C 
HETATM    9  O   UNK N   1       0.725   1.958   0.006  0.00  0.00    -0.307 OA
ENDBRANCH   7   8
ENDBRANCH   6   7
ENDBRANCH   1   6
BRANCH   1  10
HETATM   10  C   UNK N   1       5.948   1.006   0.031  0.00  0.00     0.171 C 
HETATM   11  O   UNK N   1       5.622  -0.160   0.173  0.00  0.00    -0.648 OA
BRANCH  10  12
HETATM   12  O   UNK N   1       7.183   1.298  -0.425  0.00  0.00    -0.775 OA
HETATM   13  H   UNK N   1       7.788   0.656  -0.742  0.00  0.00     0.167 HD
ENDBRANCH  10  12
ENDBRANCH   1  10
TORSDOF 6
