MODEL 1
REMARK VINA RESULT:      -6.7      0.000      0.000
REMARK  9 active torsions:
REMARK  status: ('A' for Active; 'I' for Inactive)
REMARK    1  A    between atoms: C_3  and  C_1 
REMARK    2  A    between atoms: O_25  and  C_1 
REMARK    3  A    between atoms: C_5  and  O_20 
REMARK    4  A    between atoms: C_6  and  O_21 
REMARK    5  A    between atoms: N_12  and  C_7 
REMARK    6  A    between atoms: C_9  and  N_19 
REMARK    7  A    between atoms: P_27  and  O_22 
REMARK    8  A    between atoms: P_27  and  O_23 
REMARK    9  A    between atoms: P_27  and  O_25 
ROOT
HETATM    1  C   UNK N   1      34.090  15.541   8.553  0.00  0.00     0.180 C 
HETATM    2  C   UNK N   1      34.531  16.991   8.867  0.00  0.00     0.182 C 
HETATM    3  C   UNK N   1      33.445  17.820   8.204  0.00  0.00     0.198 C 
HETATM    4  C   UNK N   1      32.311  16.807   8.151  0.00  0.00     0.263 C 
HETATM    5  O   UNK N   1      32.947  15.624   7.726  0.00  0.00    -0.353 OA
ENDROOT
BRANCH   4   6
HETATM    6  N   UNK N   1      31.178  17.142   7.269  0.00  0.00    -0.281 N 
HETATM    7  C   UNK N   1      31.022  16.998   5.939  0.00  0.00     0.143 A 
HETATM    8  C   UNK N   1      29.814  17.480   5.571  0.00  0.00     0.123 A 
HETATM    9  N   UNK N   1      31.899  16.491   5.036  0.00  0.00    -0.336 N 
HETATM   10  C   UNK N   1      29.426  17.460   4.242  0.00  0.00     0.131 A 
HETATM   11  N   UNK N   1      29.157  17.947   6.647  0.00  0.00    -0.330 N 
HETATM   12  N   UNK N   1      30.301  16.944   3.328  0.00  0.00    -0.337 N 
HETATM   13  C   UNK N   1      31.527  16.464   3.718  0.00  0.00     0.183 A 
ATOM     14  HN  UNK N   1      30.039  16.915   2.343  1.00  0.00     0.168 HD
HETATM   15  C   UNK N   1      30.020  17.733   7.675  0.00  0.00     0.160 A 
ATOM     16  HN  UNK N   1      28.226  18.363   6.683  1.00  0.00     0.168 HD
HETATM   17 Br   UNK N   1      29.615  18.221   9.481  0.00  0.00    -0.010 Br
ATOM     18  HN  UNK N   1      32.810  16.141   5.330  1.00  0.00     0.168 HD
BRANCH  10  19
HETATM   19  N   UNK N   1      28.175  17.964   3.836  0.00  0.00    -0.383 N 
HETATM   20  H   UNK N   1      27.518  17.376   3.397  0.00  0.00     0.157 HD
HETATM   21  H   UNK N   1      27.955  18.911   3.991  0.00  0.00     0.157 HD
ENDBRANCH  10  19
ENDBRANCH   4   6
BRANCH   3  22
HETATM   22  O   UNK N   1      33.860  18.106   6.898  0.00  0.00    -0.388 OA
HETATM   23  H   UNK N   1      34.527  18.047   6.197  0.00  0.00     0.210 HD
ENDBRANCH   3  22
BRANCH   2  24
HETATM   24  O   UNK N   1      34.570  17.234  10.245  0.00  0.00    -0.390 OA
HETATM   25  H   UNK N   1      34.171  17.348  11.121  0.00  0.00     0.210 HD
ENDBRANCH   2  24
BRANCH   1  26
HETATM   26  C   UNK N   1      33.712  14.753   9.814  0.00  0.00     0.215 C 
BRANCH  26  27
HETATM   27  O   UNK N   1      34.472  13.584   9.901  0.00  0.00    -0.294 OA
BRANCH  27  28
HETATM   28  P   UNK N   1      35.285  13.692  11.434  0.00  0.00     0.390 P 
HETATM   29  O   UNK N   1      35.051  12.159  11.328  0.00  0.00    -0.632 OA
BRANCH  28  30
HETATM   30  O   UNK N   1      34.453  13.325  12.910  0.00  0.00    -0.307 OA
HETATM   31  H   UNK N   1      34.774  13.479  13.813  0.00  0.00     0.222 HD
ENDBRANCH  28  30
BRANCH  28  32
HETATM   32  O   UNK N   1      33.750  14.500  11.503  0.00  0.00    -0.307 OA
HETATM   33  H   UNK N   1      32.972  14.151  11.041  0.00  0.00     0.222 HD
ENDBRANCH  28  32
ENDBRANCH  27  28
ENDBRANCH  26  27
ENDBRANCH   1  26
TORSDOF 9
ENDMDL
MODEL 2
REMARK VINA RESULT:      -6.2     10.984     13.128
REMARK  9 active torsions:
REMARK  status: ('A' for Active; 'I' for Inactive)
REMARK    1  A    between atoms: C_3  and  C_1 
REMARK    2  A    between atoms: O_25  and  C_1 
REMARK    3  A    between atoms: C_5  and  O_20 
REMARK    4  A    between atoms: C_6  and  O_21 
REMARK    5  A    between atoms: N_12  and  C_7 
REMARK    6  A    between atoms: C_9  and  N_19 
REMARK    7  A    between atoms: P_27  and  O_22 
REMARK    8  A    between atoms: P_27  and  O_23 
REMARK    9  A    between atoms: P_27  and  O_25 
ROOT
HETATM    1  C   UNK N   1      21.543  17.337   4.175  0.00  0.00     0.180 C 
HETATM    2  C   UNK N   1      20.259  16.562   3.790  0.00  0.00     0.182 C 
HETATM    3  C   UNK N   1      20.051  15.650   4.986  0.00  0.00     0.198 C 
HETATM    4  C   UNK N   1      20.818  16.411   6.057  0.00  0.00     0.263 C 
HETATM    5  O   UNK N   1      22.000  16.802   5.400  0.00  0.00    -0.353 OA
ENDROOT
BRANCH   4   6
HETATM    6  N   UNK N   1      21.123  15.668   7.293  0.00  0.00    -0.281 N 
HETATM    7  C   UNK N   1      22.098  14.782   7.573  0.00  0.00     0.143 A 
HETATM    8  C   UNK N   1      21.956  14.338   8.841  0.00  0.00     0.123 A 
HETATM    9  N   UNK N   1      23.085  14.329   6.760  0.00  0.00    -0.336 N 
HETATM   10  C   UNK N   1      22.832  13.400   9.359  0.00  0.00     0.131 A 
HETATM   11  N   UNK N   1      20.889  14.921   9.416  0.00  0.00    -0.330 N 
HETATM   12  N   UNK N   1      23.834  12.945   8.549  0.00  0.00    -0.337 N 
HETATM   13  C   UNK N   1      23.961  13.403   7.260  0.00  0.00     0.183 A 
ATOM     14  HN  UNK N   1      24.495  12.256   8.906  1.00  0.00     0.168 HD
HETATM   15  C   UNK N   1      20.392  15.727   8.442  0.00  0.00     0.160 A 
ATOM     16  HN  UNK N   1      20.535  14.789  10.364  1.00  0.00     0.168 HD
HETATM   17 Br   UNK N   1      18.836  16.814   8.694  0.00  0.00    -0.010 Br
ATOM     18  HN  UNK N   1      23.172  14.668   5.802  1.00  0.00     0.168 HD
BRANCH  10  19
HETATM   19  N   UNK N   1      22.698  12.918  10.676  0.00  0.00    -0.383 N 
HETATM   20  H   UNK N   1      23.439  13.004  11.318  0.00  0.00     0.157 HD
HETATM   21  H   UNK N   1      21.855  12.493  10.957  0.00  0.00     0.157 HD
ENDBRANCH  10  19
ENDBRANCH   4   6
BRANCH   3  22
HETATM   22  O   UNK N   1      20.711  14.444   4.727  0.00  0.00    -0.388 OA
HETATM   23  H   UNK N   1      21.501  13.965   4.431  0.00  0.00     0.210 HD
ENDBRANCH   3  22
BRANCH   2  24
HETATM   24  O   UNK N   1      19.167  17.421   3.623  0.00  0.00    -0.390 OA
HETATM   25  H   UNK N   1      18.697  18.263   3.724  0.00  0.00     0.210 HD
ENDBRANCH   2  24
BRANCH   1  26
HETATM   26  C   UNK N   1      21.289  18.837   4.373  0.00  0.00     0.215 C 
BRANCH  26  27
HETATM   27  O   UNK N   1      21.850  19.566   3.320  0.00  0.00    -0.294 OA
BRANCH  27  28
HETATM   28  P   UNK N   1      20.572  20.607   2.766  0.00  0.00     0.390 P 
HETATM   29  O   UNK N   1      20.634  19.569   1.610  0.00  0.00    -0.632 OA
BRANCH  28  30
HETATM   30  O   UNK N   1      20.781  21.603   1.363  0.00  0.00    -0.307 OA
HETATM   31  H   UNK N   1      21.255  22.448   1.315  0.00  0.00     0.222 HD
ENDBRANCH  28  30
BRANCH  28  32
HETATM   32  O   UNK N   1      22.074  21.474   2.835  0.00  0.00    -0.307 OA
HETATM   33  H   UNK N   1      22.907  21.069   2.546  0.00  0.00     0.222 HD
ENDBRANCH  28  32
ENDBRANCH  27  28
ENDBRANCH  26  27
ENDBRANCH   1  26
TORSDOF 9
ENDMDL
MODEL 3
REMARK VINA RESULT:      -6.2      4.520      7.073
REMARK  9 active torsions:
REMARK  status: ('A' for Active; 'I' for Inactive)
REMARK    1  A    between atoms: C_3  and  C_1 
REMARK    2  A    between atoms: O_25  and  C_1 
REMARK    3  A    between atoms: C_5  and  O_20 
REMARK    4  A    between atoms: C_6  and  O_21 
REMARK    5  A    between atoms: N_12  and  C_7 
REMARK    6  A    between atoms: C_9  and  N_19 
REMARK    7  A    between atoms: P_27  and  O_22 
REMARK    8  A    between atoms: P_27  and  O_23 
REMARK    9  A    between atoms: P_27  and  O_25 
ROOT
HETATM    1  C   UNK N   1      31.557  17.330   7.396  0.00  0.00     0.180 C 
HETATM    2  C   UNK N   1      32.191  17.508   5.995  0.00  0.00     0.182 C 
HETATM    3  C   UNK N   1      33.524  16.794   6.142  0.00  0.00     0.198 C 
HETATM    4  C   UNK N   1      33.217  15.859   7.303  0.00  0.00     0.263 C 
HETATM    5  O   UNK N   1      32.515  16.678   8.207  0.00  0.00    -0.353 OA
ENDROOT
BRANCH   4   6
HETATM    6  N   UNK N   1      34.378  15.229   7.956  0.00  0.00    -0.281 N 
HETATM    7  C   UNK N   1      34.982  15.493   9.131  0.00  0.00     0.143 A 
HETATM    8  C   UNK N   1      36.036  14.664   9.294  0.00  0.00     0.123 A 
HETATM    9  N   UNK N   1      34.667  16.443  10.047  0.00  0.00    -0.336 N 
HETATM   10  C   UNK N   1      36.832  14.754  10.424  0.00  0.00     0.131 A 
HETATM   11  N   UNK N   1      36.145  13.842   8.235  0.00  0.00    -0.330 N 
HETATM   12  N   UNK N   1      36.515  15.703  11.355  0.00  0.00    -0.337 N 
HETATM   13  C   UNK N   1      35.443  16.542  11.170  0.00  0.00     0.183 A 
ATOM     14  HN  UNK N   1      37.083  15.789  12.197  1.00  0.00     0.168 HD
HETATM   15  C   UNK N   1      35.119  14.215   7.426  0.00  0.00     0.160 A 
ATOM     16  HN  UNK N   1      36.836  13.109   8.077  1.00  0.00     0.168 HD
HETATM   17 Br   UNK N   1      34.782  13.383   5.735  0.00  0.00    -0.010 Br
ATOM     18  HN  UNK N   1      33.873  17.067   9.902  1.00  0.00     0.168 HD
BRANCH  10  19
HETATM   19  N   UNK N   1      37.939  13.904  10.611  0.00  0.00    -0.383 N 
HETATM   20  H   UNK N   1      38.641  14.133  11.262  0.00  0.00     0.157 HD
HETATM   21  H   UNK N   1      38.013  13.074  10.085  0.00  0.00     0.157 HD
ENDBRANCH  10  19
ENDBRANCH   4   6
BRANCH   3  22
HETATM   22  O   UNK N   1      34.472  17.736   6.557  0.00  0.00    -0.388 OA
HETATM   23  H   UNK N   1      35.298  18.221   6.402  0.00  0.00     0.210 HD
ENDBRANCH   3  22
BRANCH   2  24
HETATM   24  O   UNK N   1      31.415  16.910   4.996  0.00  0.00    -0.390 OA
HETATM   25  H   UNK N   1      30.616  16.810   4.457  0.00  0.00     0.210 HD
ENDBRANCH   2  24
BRANCH   1  26
HETATM   26  C   UNK N   1      30.289  16.467   7.365  0.00  0.00     0.215 C 
BRANCH  26  27
HETATM   27  O   UNK N   1      29.178  17.251   7.048  0.00  0.00    -0.294 OA
BRANCH  27  28
HETATM   28  P   UNK N   1      29.010  18.350   8.385  0.00  0.00     0.390 P 
HETATM   29  O   UNK N   1      28.193  17.130   8.897  0.00  0.00    -0.632 OA
BRANCH  28  30
HETATM   30  O   UNK N   1      27.472  19.051   8.775  0.00  0.00    -0.307 OA
HETATM   31  H   UNK N   1      26.617  18.595   8.808  0.00  0.00     0.222 HD
ENDBRANCH  28  30
BRANCH  28  32
HETATM   32  O   UNK N   1      28.243  18.997   6.969  0.00  0.00    -0.307 OA
HETATM   33  H   UNK N   1      27.994  18.430   6.223  0.00  0.00     0.222 HD
ENDBRANCH  28  32
ENDBRANCH  27  28
ENDBRANCH  26  27
ENDBRANCH   1  26
TORSDOF 9
ENDMDL
MODEL 4
REMARK VINA RESULT:      -6.2      1.916      2.918
REMARK  9 active torsions:
REMARK  status: ('A' for Active; 'I' for Inactive)
REMARK    1  A    between atoms: C_3  and  C_1 
REMARK    2  A    between atoms: O_25  and  C_1 
REMARK    3  A    between atoms: C_5  and  O_20 
REMARK    4  A    between atoms: C_6  and  O_21 
REMARK    5  A    between atoms: N_12  and  C_7 
REMARK    6  A    between atoms: C_9  and  N_19 
REMARK    7  A    between atoms: P_27  and  O_22 
REMARK    8  A    between atoms: P_27  and  O_23 
REMARK    9  A    between atoms: P_27  and  O_25 
ROOT
HETATM    1  C   UNK N   1      34.651  15.574   8.736  0.00  0.00     0.180 C 
HETATM    2  C   UNK N   1      34.935  17.033   9.170  0.00  0.00     0.182 C 
HETATM    3  C   UNK N   1      33.696  17.769   8.690  0.00  0.00     0.198 C 
HETATM    4  C   UNK N   1      32.698  16.623   8.616  0.00  0.00     0.263 C 
HETATM    5  O   UNK N   1      33.435  15.583   8.016  0.00  0.00    -0.353 OA
ENDROOT
BRANCH   4   6
HETATM    6  N   UNK N   1      31.455  16.887   7.869  0.00  0.00    -0.281 N 
HETATM    7  C   UNK N   1      30.289  17.434   8.260  0.00  0.00     0.143 A 
HETATM    8  C   UNK N   1      29.422  17.442   7.222  0.00  0.00     0.123 A 
HETATM    9  N   UNK N   1      29.943  17.897   9.487  0.00  0.00    -0.336 N 
HETATM   10  C   UNK N   1      28.141  17.942   7.382  0.00  0.00     0.131 A 
HETATM   11  N   UNK N   1      30.001  16.904   6.135  0.00  0.00    -0.330 N 
HETATM   12  N   UNK N   1      27.789  18.418   8.613  0.00  0.00    -0.337 N 
HETATM   13  C   UNK N   1      28.680  18.397   9.659  0.00  0.00     0.183 A 
ATOM     14  HN  UNK N   1      26.852  18.794   8.757  1.00  0.00     0.168 HD
HETATM   15  C   UNK N   1      31.246  16.565   6.561  0.00  0.00     0.160 A 
ATOM     16  HN  UNK N   1      29.600  16.780   5.205  1.00  0.00     0.168 HD
HETATM   17 Br   UNK N   1      32.538  15.731   5.419  0.00  0.00    -0.010 Br
ATOM     18  HN  UNK N   1      30.607  17.874  10.262  1.00  0.00     0.168 HD
BRANCH  10  19
HETATM   19  N   UNK N   1      27.220  17.953   6.316  0.00  0.00    -0.383 N 
HETATM   20  H   UNK N   1      27.211  17.223   5.655  0.00  0.00     0.157 HD
HETATM   21  H   UNK N   1      26.582  18.698   6.229  0.00  0.00     0.157 HD
ENDBRANCH  10  19
ENDBRANCH   4   6
BRANCH   3  22
HETATM   22  O   UNK N   1      33.948  18.234   7.394  0.00  0.00    -0.388 OA
HETATM   23  H   UNK N   1      34.460  18.789   6.786  0.00  0.00     0.210 HD
ENDBRANCH   3  22
BRANCH   2  24
HETATM   24  O   UNK N   1      35.070  17.143  10.558  0.00  0.00    -0.390 OA
HETATM   25  H   UNK N   1      35.543  17.378  11.372  0.00  0.00     0.210 HD
ENDBRANCH   2  24
BRANCH   1  26
HETATM   26  C   UNK N   1      34.493  14.624   9.930  0.00  0.00     0.215 C 
BRANCH  26  27
HETATM   27  O   UNK N   1      35.656  13.868  10.103  0.00  0.00    -0.294 OA
BRANCH  27  28
HETATM   28  P   UNK N   1      35.923  13.846  11.821  0.00  0.00     0.390 P 
HETATM   29  O   UNK N   1      34.525  14.521  11.745  0.00  0.00    -0.632 OA
BRANCH  28  30
HETATM   30  O   UNK N   1      36.158  15.318  12.705  0.00  0.00    -0.307 OA
HETATM   31  H   UNK N   1      35.539  16.063  12.770  0.00  0.00     0.222 HD
ENDBRANCH  28  30
BRANCH  28  32
HETATM   32  O   UNK N   1      37.092  14.863  11.038  0.00  0.00    -0.307 OA
HETATM   33  H   UNK N   1      37.463  14.635  10.172  0.00  0.00     0.222 HD
ENDBRANCH  28  32
ENDBRANCH  27  28
ENDBRANCH  26  27
ENDBRANCH   1  26
TORSDOF 9
ENDMDL
MODEL 5
REMARK VINA RESULT:      -6.0      2.140      2.710
REMARK  9 active torsions:
REMARK  status: ('A' for Active; 'I' for Inactive)
REMARK    1  A    between atoms: C_3  and  C_1 
REMARK    2  A    between atoms: O_25  and  C_1 
REMARK    3  A    between atoms: C_5  and  O_20 
REMARK    4  A    between atoms: C_6  and  O_21 
REMARK    5  A    between atoms: N_12  and  C_7 
REMARK    6  A    between atoms: C_9  and  N_19 
REMARK    7  A    between atoms: P_27  and  O_22 
REMARK    8  A    between atoms: P_27  and  O_23 
REMARK    9  A    between atoms: P_27  and  O_25 
ROOT
HETATM    1  C   UNK N   1      33.292  15.559   7.192  0.00  0.00     0.180 C 
HETATM    2  C   UNK N   1      33.638  16.889   6.479  0.00  0.00     0.182 C 
HETATM    3  C   UNK N   1      32.269  17.494   6.221  0.00  0.00     0.198 C 
HETATM    4  C   UNK N   1      31.443  16.785   7.285  0.00  0.00     0.263 C 
HETATM    5  O   UNK N   1      31.883  15.449   7.206  0.00  0.00    -0.353 OA
ENDROOT
BRANCH   4   6
HETATM    6  N   UNK N   1      29.979  16.867   7.136  0.00  0.00    -0.281 N 
HETATM    7  C   UNK N   1      29.147  16.281   6.254  0.00  0.00     0.143 A 
HETATM    8  C   UNK N   1      27.879  16.684   6.492  0.00  0.00     0.123 A 
HETATM    9  N   UNK N   1      29.453  15.436   5.237  0.00  0.00    -0.336 N 
HETATM   10  C   UNK N   1      26.838  16.230   5.700  0.00  0.00     0.131 A 
HETATM   11  N   UNK N   1      27.854  17.538   7.530  0.00  0.00    -0.330 N 
HETATM   12  N   UNK N   1      27.138  15.372   4.680  0.00  0.00    -0.337 N 
HETATM   13  C   UNK N   1      28.433  14.977   4.448  0.00  0.00     0.183 A 
ATOM     14  HN  UNK N   1      26.389  15.021   4.083  1.00  0.00     0.168 HD
HETATM   15  C   UNK N   1      29.157  17.638   7.902  0.00  0.00     0.160 A 
ATOM     16  HN  UNK N   1      27.045  18.001   7.944  1.00  0.00     0.168 HD
HETATM   17 Br   UNK N   1      29.735  18.748   9.351  0.00  0.00    -0.010 Br
ATOM     18  HN  UNK N   1      30.417  15.150   5.066  1.00  0.00     0.168 HD
BRANCH  10  19
HETATM   19  N   UNK N   1      25.510  16.643   5.926  0.00  0.00    -0.383 N 
HETATM   20  H   UNK N   1      25.283  17.600   5.962  0.00  0.00     0.157 HD
HETATM   21  H   UNK N   1      24.803  15.969   6.051  0.00  0.00     0.157 HD
ENDBRANCH  10  19
ENDBRANCH   4   6
BRANCH   3  22
HETATM   22  O   UNK N   1      31.842  17.069   4.958  0.00  0.00    -0.388 OA
HETATM   23  H   UNK N   1      31.237  16.548   4.407  0.00  0.00     0.210 HD
ENDBRANCH   3  22
BRANCH   2  24
HETATM   24  O   UNK N   1      34.406  17.728   7.293  0.00  0.00    -0.390 OA
HETATM   25  H   UNK N   1      34.566  18.270   8.081  0.00  0.00     0.210 HD
ENDBRANCH   2  24
BRANCH   1  26
HETATM   26  C   UNK N   1      33.789  15.521   8.642  0.00  0.00     0.215 C 
BRANCH  26  27
HETATM   27  O   UNK N   1      35.172  15.321   8.674  0.00  0.00    -0.294 OA
BRANCH  27  28
HETATM   28  P   UNK N   1      35.601  15.434  10.355  0.00  0.00     0.390 P 
HETATM   29  O   UNK N   1      35.544  16.937   9.961  0.00  0.00    -0.632 OA
BRANCH  28  30
HETATM   30  O   UNK N   1      37.160  16.020  10.839  0.00  0.00    -0.307 OA
HETATM   31  H   UNK N   1      37.371  16.510  11.649  0.00  0.00     0.222 HD
ENDBRANCH  28  30
BRANCH  28  32
HETATM   32  O   UNK N   1      36.867  14.656   9.457  0.00  0.00    -0.307 OA
HETATM   33  H   UNK N   1      36.884  14.671   8.488  0.00  0.00     0.222 HD
ENDBRANCH  28  32
ENDBRANCH  27  28
ENDBRANCH  26  27
ENDBRANCH   1  26
TORSDOF 9
ENDMDL
MODEL 6
REMARK VINA RESULT:      -6.0      6.303      9.056
REMARK  9 active torsions:
REMARK  status: ('A' for Active; 'I' for Inactive)
REMARK    1  A    between atoms: C_3  and  C_1 
REMARK    2  A    between atoms: O_25  and  C_1 
REMARK    3  A    between atoms: C_5  and  O_20 
REMARK    4  A    between atoms: C_6  and  O_21 
REMARK    5  A    between atoms: N_12  and  C_7 
REMARK    6  A    between atoms: C_9  and  N_19 
REMARK    7  A    between atoms: P_27  and  O_22 
REMARK    8  A    between atoms: P_27  and  O_23 
REMARK    9  A    between atoms: P_27  and  O_25 
ROOT
HETATM    1  C   UNK N   1      36.594  15.164  10.106  0.00  0.00     0.180 C 
HETATM    2  C   UNK N   1      37.297  13.878   9.605  0.00  0.00     0.182 C 
HETATM    3  C   UNK N   1      37.118  12.925  10.774  0.00  0.00     0.198 C 
HETATM    4  C   UNK N   1      35.907  13.543  11.458  0.00  0.00     0.263 C 
HETATM    5  O   UNK N   1      36.186  14.923  11.438  0.00  0.00    -0.353 OA
ENDROOT
BRANCH   4   6
HETATM    6  N   UNK N   1      35.628  13.082  12.830  0.00  0.00    -0.281 N 
HETATM    7  C   UNK N   1      36.006  13.581  14.023  0.00  0.00     0.143 A 
HETATM    8  C   UNK N   1      35.529  12.794  15.013  0.00  0.00     0.123 A 
HETATM    9  N   UNK N   1      36.768  14.674  14.278  0.00  0.00    -0.336 N 
HETATM   10  C   UNK N   1      35.801  13.091  16.338  0.00  0.00     0.131 A 
HETATM   11  N   UNK N   1      34.833  11.768  14.492  0.00  0.00    -0.330 N 
HETATM   12  N   UNK N   1      36.562  14.195  16.602  0.00  0.00    -0.337 N 
HETATM   13  C   UNK N   1      37.043  14.981  15.584  0.00  0.00     0.183 A 
ATOM     14  HN  UNK N   1      36.775  14.438  17.570  1.00  0.00     0.168 HD
HETATM   15  C   UNK N   1      34.916  11.965  13.151  0.00  0.00     0.160 A 
ATOM     16  HN  UNK N   1      34.354  11.018  14.989  1.00  0.00     0.168 HD
HETATM   17 Br   UNK N   1      34.104  10.784  11.881  0.00  0.00    -0.010 Br
ATOM     18  HN  UNK N   1      37.127  15.251  13.517  1.00  0.00     0.168 HD
BRANCH  10  19
HETATM   19  N   UNK N   1      35.321  12.281  17.385  0.00  0.00    -0.383 N 
HETATM   20  H   UNK N   1      35.689  12.368  18.294  0.00  0.00     0.157 HD
HETATM   21  H   UNK N   1      34.612  11.621  17.207  0.00  0.00     0.157 HD
ENDBRANCH  10  19
ENDBRANCH   4   6
BRANCH   3  22
HETATM   22  O   UNK N   1      38.231  13.061  11.612  0.00  0.00    -0.388 OA
HETATM   23  H   UNK N   1      38.874  13.625  12.069  0.00  0.00     0.210 HD
ENDBRANCH   3  22
BRANCH   2  24
HETATM   24  O   UNK N   1      36.687  13.370   8.453  0.00  0.00    -0.390 OA
HETATM   25  H   UNK N   1      36.689  13.004   7.555  0.00  0.00     0.210 HD
ENDBRANCH   2  24
BRANCH   1  26
HETATM   26  C   UNK N   1      35.350  15.515   9.280  0.00  0.00     0.215 C 
BRANCH  26  27
HETATM   27  O   UNK N   1      34.969  16.839   9.519  0.00  0.00    -0.294 OA
BRANCH  27  28
HETATM   28  P   UNK N   1      34.174  17.346   8.058  0.00  0.00     0.390 P 
HETATM   29  O   UNK N   1      34.819  18.681   8.525  0.00  0.00    -0.632 OA
BRANCH  28  30
HETATM   30  O   UNK N   1      32.822  18.430   8.110  0.00  0.00    -0.307 OA
HETATM   31  H   UNK N   1      32.815  19.364   7.848  0.00  0.00     0.222 HD
ENDBRANCH  28  30
BRANCH  28  32
HETATM   32  O   UNK N   1      33.008  16.832   9.236  0.00  0.00    -0.307 OA
HETATM   33  H   UNK N   1      32.177  16.405   8.975  0.00  0.00     0.222 HD
ENDBRANCH  28  32
ENDBRANCH  27  28
ENDBRANCH  26  27
ENDBRANCH   1  26
TORSDOF 9
ENDMDL
MODEL 7
REMARK VINA RESULT:      -6.0      4.613      7.313
REMARK  9 active torsions:
REMARK  status: ('A' for Active; 'I' for Inactive)
REMARK    1  A    between atoms: C_3  and  C_1 
REMARK    2  A    between atoms: O_25  and  C_1 
REMARK    3  A    between atoms: C_5  and  O_20 
REMARK    4  A    between atoms: C_6  and  O_21 
REMARK    5  A    between atoms: N_12  and  C_7 
REMARK    6  A    between atoms: C_9  and  N_19 
REMARK    7  A    between atoms: P_27  and  O_22 
REMARK    8  A    between atoms: P_27  and  O_23 
REMARK    9  A    between atoms: P_27  and  O_25 
ROOT
HETATM    1  C   UNK N   1      31.705  16.896   6.598  0.00  0.00     0.180 C 
HETATM    2  C   UNK N   1      32.642  17.486   5.516  0.00  0.00     0.182 C 
HETATM    3  C   UNK N   1      34.000  16.938   5.918  0.00  0.00     0.198 C 
HETATM    4  C   UNK N   1      33.583  15.720   6.729  0.00  0.00     0.263 C 
HETATM    5  O   UNK N   1      32.520  16.199   7.519  0.00  0.00    -0.353 OA
ENDROOT
BRANCH   4   6
HETATM    6  N   UNK N   1      34.628  15.107   7.569  0.00  0.00    -0.281 N 
HETATM    7  C   UNK N   1      35.108  15.457   8.778  0.00  0.00     0.143 A 
HETATM    8  C   UNK N   1      36.092  14.603   9.138  0.00  0.00     0.123 A 
HETATM    9  N   UNK N   1      34.741  16.502   9.561  0.00  0.00    -0.336 N 
HETATM   10  C   UNK N   1      36.758  14.768  10.341  0.00  0.00     0.131 A 
HETATM   11  N   UNK N   1      36.276  13.681   8.177  0.00  0.00    -0.330 N 
HETATM   12  N   UNK N   1      36.388  15.814  11.138  0.00  0.00    -0.337 N 
HETATM   13  C   UNK N   1      35.390  16.675  10.754  0.00  0.00     0.183 A 
ATOM     14  HN  UNK N   1      36.861  15.956  12.031  1.00  0.00     0.168 HD
HETATM   15  C   UNK N   1      35.370  14.017   7.223  0.00  0.00     0.160 A 
ATOM     16  HN  UNK N   1      36.942  12.908   8.168  1.00  0.00     0.168 HD
HETATM   17 Br   UNK N   1      35.183  13.041   5.586  0.00  0.00    -0.010 Br
ATOM     18  HN  UNK N   1      34.003  17.142   9.268  1.00  0.00     0.168 HD
BRANCH  10  19
HETATM   19  N   UNK N   1      37.791  13.894  10.732  0.00  0.00    -0.383 N 
HETATM   20  H   UNK N   1      38.638  13.865  10.231  0.00  0.00     0.157 HD
HETATM   21  H   UNK N   1      37.666  13.308  11.513  0.00  0.00     0.157 HD
ENDBRANCH  10  19
ENDBRANCH   4   6
BRANCH   3  22
HETATM   22  O   UNK N   1      34.602  17.867   6.774  0.00  0.00    -0.388 OA
HETATM   23  H   UNK N   1      35.127  18.673   6.904  0.00  0.00     0.210 HD
ENDBRANCH   3  22
BRANCH   2  24
HETATM   24  O   UNK N   1      32.291  17.051   4.234  0.00  0.00    -0.390 OA
HETATM   25  H   UNK N   1      31.872  17.148   3.365  0.00  0.00     0.210 HD
ENDBRANCH   2  24
BRANCH   1  26
HETATM   26  C   UNK N   1      30.684  15.908   6.019  0.00  0.00     0.215 C 
BRANCH  26  27
HETATM   27  O   UNK N   1      29.506  16.577   5.675  0.00  0.00    -0.294 OA
BRANCH  27  28
HETATM   28  P   UNK N   1      28.960  15.799   4.219  0.00  0.00     0.390 P 
HETATM   29  O   UNK N   1      30.220  14.952   4.554  0.00  0.00    -0.632 OA
BRANCH  28  30
HETATM   30  O   UNK N   1      29.888  15.892   2.757  0.00  0.00    -0.307 OA
HETATM   31  H   UNK N   1      29.702  15.437   1.920  0.00  0.00     0.222 HD
ENDBRANCH  28  30
BRANCH  28  32
HETATM   32  O   UNK N   1      29.441  17.433   3.888  0.00  0.00    -0.307 OA
HETATM   33  H   UNK N   1      29.133  18.173   4.434  0.00  0.00     0.222 HD
ENDBRANCH  28  32
ENDBRANCH  27  28
ENDBRANCH  26  27
ENDBRANCH   1  26
TORSDOF 9
ENDMDL
MODEL 8
REMARK VINA RESULT:      -5.9      7.042      9.194
REMARK  9 active torsions:
REMARK  status: ('A' for Active; 'I' for Inactive)
REMARK    1  A    between atoms: C_3  and  C_1 
REMARK    2  A    between atoms: O_25  and  C_1 
REMARK    3  A    between atoms: C_5  and  O_20 
REMARK    4  A    between atoms: C_6  and  O_21 
REMARK    5  A    between atoms: N_12  and  C_7 
REMARK    6  A    between atoms: C_9  and  N_19 
REMARK    7  A    between atoms: P_27  and  O_22 
REMARK    8  A    between atoms: P_27  and  O_23 
REMARK    9  A    between atoms: P_27  and  O_25 
ROOT
HETATM    1  C   UNK N   1      26.838  18.739   4.737  0.00  0.00     0.180 C 
HETATM    2  C   UNK N   1      26.669  20.230   4.357  0.00  0.00     0.182 C 
HETATM    3  C   UNK N   1      25.219  20.298   3.913  0.00  0.00     0.198 C 
HETATM    4  C   UNK N   1      24.647  19.084   4.631  0.00  0.00     0.263 C 
HETATM    5  O   UNK N   1      25.622  18.089   4.422  0.00  0.00    -0.353 OA
ENDROOT
BRANCH   4   6
HETATM    6  N   UNK N   1      23.321  18.624   4.181  0.00  0.00    -0.281 N 
HETATM    7  C   UNK N   1      22.387  19.229   3.423  0.00  0.00     0.143 A 
HETATM    8  C   UNK N   1      21.311  18.421   3.301  0.00  0.00     0.123 A 
HETATM    9  N   UNK N   1      22.427  20.463   2.860  0.00  0.00    -0.336 N 
HETATM   10  C   UNK N   1      20.204  18.831   2.578  0.00  0.00     0.131 A 
HETATM   11  N   UNK N   1      21.516  17.275   3.973  0.00  0.00    -0.330 N 
HETATM   12  N   UNK N   1      20.240  20.070   2.001  0.00  0.00    -0.337 N 
HETATM   13  C   UNK N   1      21.339  20.881   2.140  0.00  0.00     0.183 A 
ATOM     14  HN  UNK N   1      19.438  20.395   1.461  1.00  0.00     0.168 HD
HETATM   15  C   UNK N   1      22.755  17.428   4.510  0.00  0.00     0.160 A 
ATOM     16  HN  UNK N   1      20.888  16.476   4.059  1.00  0.00     0.168 HD
HETATM   17 Br   UNK N   1      23.582  16.089   5.600  0.00  0.00    -0.010 Br
ATOM     18  HN  UNK N   1      23.244  21.063   2.970  1.00  0.00     0.168 HD
BRANCH  10  19
HETATM   19  N   UNK N   1      19.068  18.008   2.444  0.00  0.00    -0.383 N 
HETATM   20  H   UNK N   1      18.400  17.957   3.166  0.00  0.00     0.157 HD
HETATM   21  H   UNK N   1      18.942  17.479   1.623  0.00  0.00     0.157 HD
ENDBRANCH  10  19
ENDBRANCH   4   6
BRANCH   3  22
HETATM   22  O   UNK N   1      25.181  20.067   2.533  0.00  0.00    -0.388 OA
HETATM   23  H   UNK N   1      25.014  20.386   1.633  0.00  0.00     0.210 HD
ENDBRANCH   3  22
BRANCH   2  24
HETATM   24  O   UNK N   1      26.893  21.072   5.453  0.00  0.00    -0.390 OA
HETATM   25  H   UNK N   1      27.328  21.328   6.281  0.00  0.00     0.210 HD
ENDBRANCH   2  24
BRANCH   1  26
HETATM   26  C   UNK N   1      27.114  18.539   6.233  0.00  0.00     0.215 C 
BRANCH  26  27
HETATM   27  O   UNK N   1      28.406  18.967   6.548  0.00  0.00    -0.294 OA
BRANCH  27  28
HETATM   28  P   UNK N   1      28.630  18.525   8.215  0.00  0.00     0.390 P 
HETATM   29  O   UNK N   1      28.212  17.161   7.598  0.00  0.00    -0.632 OA
BRANCH  28  30
HETATM   30  O   UNK N   1      27.283  18.052   9.199  0.00  0.00    -0.307 OA
HETATM   31  H   UNK N   1      27.015  18.443  10.045  0.00  0.00     0.222 HD
ENDBRANCH  28  30
BRANCH  28  32
HETATM   32  O   UNK N   1      27.316  19.649   8.057  0.00  0.00    -0.307 OA
HETATM   33  H   UNK N   1      27.058  20.233   8.787  0.00  0.00     0.222 HD
ENDBRANCH  28  32
ENDBRANCH  27  28
ENDBRANCH  26  27
ENDBRANCH   1  26
TORSDOF 9
ENDMDL
MODEL 9
REMARK VINA RESULT:      -5.8      5.793      8.489
REMARK  9 active torsions:
REMARK  status: ('A' for Active; 'I' for Inactive)
REMARK    1  A    between atoms: C_3  and  C_1 
REMARK    2  A    between atoms: O_25  and  C_1 
REMARK    3  A    between atoms: C_5  and  O_20 
REMARK    4  A    between atoms: C_6  and  O_21 
REMARK    5  A    between atoms: N_12  and  C_7 
REMARK    6  A    between atoms: C_9  and  N_19 
REMARK    7  A    between atoms: P_27  and  O_22 
REMARK    8  A    between atoms: P_27  and  O_23 
REMARK    9  A    between atoms: P_27  and  O_25 
ROOT
HETATM    1  C   UNK N   1      34.016  15.422  10.263  0.00  0.00     0.180 C 
HETATM    2  C   UNK N   1      35.028  16.304  11.033  0.00  0.00     0.182 C 
HETATM    3  C   UNK N   1      35.999  15.282  11.597  0.00  0.00     0.198 C 
HETATM    4  C   UNK N   1      35.778  14.123  10.635  0.00  0.00     0.263 C 
HETATM    5  O   UNK N   1      34.378  14.075  10.495  0.00  0.00    -0.353 OA
ENDROOT
BRANCH   4   6
HETATM    6  N   UNK N   1      36.311  12.815  11.057  0.00  0.00    -0.281 N 
HETATM    7  C   UNK N   1      35.774  11.850  11.827  0.00  0.00     0.143 A 
HETATM    8  C   UNK N   1      36.657  10.835  11.961  0.00  0.00     0.123 A 
HETATM    9  N   UNK N   1      34.563  11.833  12.437  0.00  0.00    -0.336 N 
HETATM   10  C   UNK N   1      36.341   9.727  12.728  0.00  0.00     0.131 A 
HETATM   11  N   UNK N   1      37.785  11.113  11.284  0.00  0.00    -0.330 N 
HETATM   12  N   UNK N   1      35.119   9.699  13.339  0.00  0.00    -0.337 N 
HETATM   13  C   UNK N   1      34.236  10.742  13.197  0.00  0.00     0.183 A 
ATOM     14  HN  UNK N   1      34.860   8.893  13.907  1.00  0.00     0.168 HD
HETATM   15  C   UNK N   1      37.548  12.337  10.743  0.00  0.00     0.160 A 
ATOM     16  HN  UNK N   1      38.622  10.538  11.195  1.00  0.00     0.168 HD
HETATM   17 Br   UNK N   1      38.836  13.256   9.665  0.00  0.00    -0.010 Br
ATOM     18  HN  UNK N   1      33.913  12.612  12.333  1.00  0.00     0.168 HD
BRANCH  10  19
HETATM   19  N   UNK N   1      37.249   8.661  12.886  0.00  0.00    -0.383 N 
HETATM   20  H   UNK N   1      37.393   8.254  13.771  0.00  0.00     0.157 HD
HETATM   21  H   UNK N   1      37.744   8.321  12.106  0.00  0.00     0.157 HD
ENDBRANCH  10  19
ENDBRANCH   4   6
BRANCH   3  22
HETATM   22  O   UNK N   1      35.542  14.910  12.866  0.00  0.00    -0.388 OA
HETATM   23  H   UNK N   1      35.670  14.872  13.827  0.00  0.00     0.210 HD
ENDBRANCH   3  22
BRANCH   2  24
HETATM   24  O   UNK N   1      35.687  17.199  10.183  0.00  0.00    -0.390 OA
HETATM   25  H   UNK N   1      36.305  17.431   9.472  0.00  0.00     0.210 HD
ENDBRANCH   2  24
BRANCH   1  26
HETATM   26  C   UNK N   1      34.048  15.671   8.750  0.00  0.00     0.215 C 
BRANCH  26  27
HETATM   27  O   UNK N   1      32.975  16.484   8.371  0.00  0.00    -0.294 OA
BRANCH  27  28
HETATM   28  P   UNK N   1      33.632  17.562   7.176  0.00  0.00     0.390 P 
HETATM   29  O   UNK N   1      34.827  16.591   7.389  0.00  0.00    -0.632 OA
BRANCH  28  30
HETATM   30  O   UNK N   1      34.937  18.635   7.565  0.00  0.00    -0.307 OA
HETATM   31  H   UNK N   1      35.490  18.613   8.362  0.00  0.00     0.222 HD
ENDBRANCH  28  30
BRANCH  28  32
HETATM   32  O   UNK N   1      33.319  18.415   8.655  0.00  0.00    -0.307 OA
HETATM   33  H   UNK N   1      32.455  18.368   9.094  0.00  0.00     0.222 HD
ENDBRANCH  28  32
ENDBRANCH  27  28
ENDBRANCH  26  27
ENDBRANCH   1  26
TORSDOF 9
ENDMDL
