MODEL 1
REMARK VINA RESULT:      -4.7      0.000      0.000
REMARK  5 active torsions:
REMARK  status: ('A' for Active; 'I' for Inactive)
REMARK    1  A    between atoms: C_2  and  O_1 
REMARK    2  A    between atoms: C_2  and  C_3 
REMARK    3  A    between atoms: C_2  and  C_7 
REMARK    4  A    between atoms: C_3  and  C_4 
REMARK    5  A    between atoms: C_4  and  O_5 
ROOT
HETATM    1  C   UNK N   1      34.114  17.140   9.008  0.00  0.00     0.228 C 
ENDROOT
BRANCH   1   2
HETATM    2  O   UNK N   1      34.659  17.112  10.294  0.00  0.00    -0.384 OA
HETATM    3  H   UNK N   1      35.190  17.858  10.612  0.00  0.00     0.210 HD
ENDBRANCH   1   2
BRANCH   1   4
HETATM    4  C   UNK N   1      33.092  16.060   8.728  0.00  0.00     0.152 C 
BRANCH   4   5
HETATM    5  C   UNK N   1      32.731  15.017   9.494  0.00  0.00     0.142 C 
HETATM    6  O   UNK N   1      32.293  13.894   8.896  0.00  0.00    -0.650 OA
BRANCH   5   7
HETATM    7  O   UNK N   1      32.792  15.058  10.835  0.00  0.00    -0.776 OA
HETATM    8  H   UNK N   1      33.531  15.449  11.258  0.00  0.00     0.167 HD
ENDBRANCH   5   7
ENDBRANCH   4   5
ENDBRANCH   1   4
BRANCH   1   9
HETATM    9  C   UNK N   1      34.627  18.234   8.105  0.00  0.00     0.203 C 
HETATM   10  O   UNK N   1      34.399  18.164   6.781  0.00  0.00    -0.646 OA
HETATM   11  O   UNK N   1      35.245  19.184   8.550  0.00  0.00    -0.646 OA
ENDBRANCH   1   9
TORSDOF 5
ENDMDL
MODEL 2
REMARK VINA RESULT:      -4.5     14.681     15.403
REMARK  5 active torsions:
REMARK  status: ('A' for Active; 'I' for Inactive)
REMARK    1  A    between atoms: C_2  and  O_1 
REMARK    2  A    between atoms: C_2  and  C_3 
REMARK    3  A    between atoms: C_2  and  C_7 
REMARK    4  A    between atoms: C_3  and  C_4 
REMARK    5  A    between atoms: C_4  and  O_5 
ROOT
HETATM    1  C   UNK N   1      20.658  19.575   1.795  0.00  0.00     0.228 C 
ENDROOT
BRANCH   1   2
HETATM    2  O   UNK N   1      20.713  20.029   0.475  0.00  0.00    -0.384 OA
HETATM    3  H   UNK N   1      20.295  19.516  -0.232  0.00  0.00     0.210 HD
ENDBRANCH   1   2
BRANCH   1   4
HETATM    4  C   UNK N   1      20.248  18.127   1.951  0.00  0.00     0.152 C 
BRANCH   4   5
HETATM    5  C   UNK N   1      20.115  17.178   1.009  0.00  0.00     0.142 C 
HETATM    6  O   UNK N   1      19.828  15.921   1.391  0.00  0.00    -0.650 OA
BRANCH   5   7
HETATM    7  O   UNK N   1      20.259  17.444  -0.299  0.00  0.00    -0.776 OA
HETATM    8  H   UNK N   1      21.079  17.757  -0.627  0.00  0.00     0.167 HD
ENDBRANCH   5   7
ENDBRANCH   4   5
ENDBRANCH   1   4
BRANCH   1   9
HETATM    9  C   UNK N   1      21.012  20.592   2.851  0.00  0.00     0.203 C 
HETATM   10  O   UNK N   1      22.152  21.298   2.737  0.00  0.00    -0.646 OA
HETATM   11  O   UNK N   1      20.287  20.789   3.809  0.00  0.00    -0.646 OA
ENDBRANCH   1   9
TORSDOF 5
ENDMDL
MODEL 3
REMARK VINA RESULT:      -4.5     14.782     15.869
REMARK  5 active torsions:
REMARK  status: ('A' for Active; 'I' for Inactive)
REMARK    1  A    between atoms: C_2  and  O_1 
REMARK    2  A    between atoms: C_2  and  C_3 
REMARK    3  A    between atoms: C_2  and  C_7 
REMARK    4  A    between atoms: C_3  and  C_4 
REMARK    5  A    between atoms: C_4  and  O_5 
ROOT
HETATM    1  C   UNK N   1      19.850  18.385   1.974  0.00  0.00     0.228 C 
ENDROOT
BRANCH   1   2
HETATM    2  O   UNK N   1      18.529  18.500   2.415  0.00  0.00    -0.384 OA
HETATM    3  H   UNK N   1      18.185  17.885   3.082  0.00  0.00     0.210 HD
ENDBRANCH   1   2
BRANCH   1   4
HETATM    4  C   UNK N   1      20.795  19.434   2.519  0.00  0.00     0.152 C 
BRANCH   4   5
HETATM    5  C   UNK N   1      21.256  20.548   1.927  0.00  0.00     0.142 C 
HETATM    6  O   UNK N   1      21.279  20.606   0.583  0.00  0.00    -0.650 OA
BRANCH   5   7
HETATM    7  O   UNK N   1      21.693  21.604   2.631  0.00  0.00    -0.776 OA
HETATM    8  H   UNK N   1      21.763  21.549   3.564  0.00  0.00     0.167 HD
ENDBRANCH   5   7
ENDBRANCH   4   5
ENDBRANCH   1   4
BRANCH   1   9
HETATM    9  C   UNK N   1      20.126  17.241   1.029  0.00  0.00     0.203 C 
HETATM   10  O   UNK N   1      20.115  15.979   1.495  0.00  0.00    -0.646 OA
HETATM   11  O   UNK N   1      20.359  17.436  -0.149  0.00  0.00    -0.646 OA
ENDBRANCH   1   9
TORSDOF 5
ENDMDL
MODEL 4
REMARK VINA RESULT:      -4.4     10.888     12.860
REMARK  5 active torsions:
REMARK  status: ('A' for Active; 'I' for Inactive)
REMARK    1  A    between atoms: C_2  and  O_1 
REMARK    2  A    between atoms: C_2  and  C_3 
REMARK    3  A    between atoms: C_2  and  C_7 
REMARK    4  A    between atoms: C_3  and  C_4 
REMARK    5  A    between atoms: C_4  and  O_5 
ROOT
HETATM    1  C   UNK N   1      21.549  12.209  10.891  0.00  0.00     0.228 C 
ENDROOT
BRANCH   1   2
HETATM    2  O   UNK N   1      20.821  11.769  12.000  0.00  0.00    -0.384 OA
HETATM    3  H   UNK N   1      20.681  12.361  12.754  0.00  0.00     0.210 HD
ENDBRANCH   1   2
BRANCH   1   4
HETATM    4  C   UNK N   1      23.018  11.844  10.911  0.00  0.00     0.152 C 
BRANCH   4   5
HETATM    5  C   UNK N   1      23.938  12.090  11.858  0.00  0.00     0.142 C 
HETATM    6  O   UNK N   1      23.579  12.003  13.151  0.00  0.00    -0.650 OA
BRANCH   5   7
HETATM    7  O   UNK N   1      25.205  12.420  11.556  0.00  0.00    -0.776 OA
HETATM    8  H   UNK N   1      25.444  12.595  10.667  0.00  0.00     0.167 HD
ENDBRANCH   5   7
ENDBRANCH   4   5
ENDBRANCH   1   4
BRANCH   1   9
HETATM    9  C   UNK N   1      20.763  12.972   9.855  0.00  0.00     0.203 C 
HETATM   10  O   UNK N   1      21.025  12.780   8.549  0.00  0.00    -0.646 OA
HETATM   11  O   UNK N   1      19.893  13.762  10.175  0.00  0.00    -0.646 OA
ENDBRANCH   1   9
TORSDOF 5
ENDMDL
MODEL 5
REMARK VINA RESULT:      -4.4      1.548      4.273
REMARK  5 active torsions:
REMARK  status: ('A' for Active; 'I' for Inactive)
REMARK    1  A    between atoms: C_2  and  O_1 
REMARK    2  A    between atoms: C_2  and  C_3 
REMARK    3  A    between atoms: C_2  and  C_7 
REMARK    4  A    between atoms: C_3  and  C_4 
REMARK    5  A    between atoms: C_4  and  O_5 
ROOT
HETATM    1  C   UNK N   1      34.927  16.545   9.956  0.00  0.00     0.228 C 
ENDROOT
BRANCH   1   2
HETATM    2  O   UNK N   1      35.939  17.273  10.585  0.00  0.00    -0.384 OA
HETATM    3  H   UNK N   1      36.789  17.408  10.139  0.00  0.00     0.210 HD
ENDBRANCH   1   2
BRANCH   1   4
HETATM    4  C   UNK N   1      34.144  17.316   8.915  0.00  0.00     0.152 C 
BRANCH   4   5
HETATM    5  C   UNK N   1      34.576  18.245   8.046  0.00  0.00     0.142 C 
HETATM    6  O   UNK N   1      35.286  19.288   8.511  0.00  0.00    -0.650 OA
BRANCH   5   7
HETATM    7  O   UNK N   1      34.323  18.165   6.729  0.00  0.00    -0.776 OA
HETATM    8  H   UNK N   1      34.157  18.945   6.236  0.00  0.00     0.167 HD
ENDBRANCH   5   7
ENDBRANCH   4   5
ENDBRANCH   1   4
BRANCH   1   9
HETATM    9  C   UNK N   1      34.774  15.114  10.408  0.00  0.00     0.203 C 
HETATM   10  O   UNK N   1      34.047  14.839  11.506  0.00  0.00    -0.646 OA
HETATM   11  O   UNK N   1      35.296  14.198   9.798  0.00  0.00    -0.646 OA
ENDBRANCH   1   9
TORSDOF 5
ENDMDL
MODEL 6
REMARK VINA RESULT:      -4.3      3.269      4.266
REMARK  5 active torsions:
REMARK  status: ('A' for Active; 'I' for Inactive)
REMARK    1  A    between atoms: C_2  and  O_1 
REMARK    2  A    between atoms: C_2  and  C_3 
REMARK    3  A    between atoms: C_2  and  C_7 
REMARK    4  A    between atoms: C_3  and  C_4 
REMARK    5  A    between atoms: C_4  and  O_5 
ROOT
HETATM    1  C   UNK N   1      34.570  15.102  11.259  0.00  0.00     0.228 C 
ENDROOT
BRANCH   1   2
HETATM    2  O   UNK N   1      33.200  15.095  10.987  0.00  0.00    -0.384 OA
HETATM    3  H   UNK N   1      32.763  15.902  10.675  0.00  0.00     0.210 HD
ENDBRANCH   1   2
BRANCH   1   4
HETATM    4  C   UNK N   1      35.055  13.944  12.103  0.00  0.00     0.152 C 
BRANCH   4   5
HETATM    5  C   UNK N   1      35.646  13.965  13.310  0.00  0.00     0.142 C 
HETATM    6  O   UNK N   1      35.027  13.369  14.345  0.00  0.00    -0.650 OA
BRANCH   5   7
HETATM    7  O   UNK N   1      36.831  14.560  13.516  0.00  0.00    -0.776 OA
HETATM    8  H   UNK N   1      36.882  15.494  13.581  0.00  0.00     0.167 HD
ENDBRANCH   5   7
ENDBRANCH   4   5
ENDBRANCH   1   4
BRANCH   1   9
HETATM    9  C   UNK N   1      35.346  16.254  10.672  0.00  0.00     0.203 C 
HETATM   10  O   UNK N   1      36.685  16.285  10.799  0.00  0.00    -0.646 OA
HETATM   11  O   UNK N   1      34.786  17.161  10.083  0.00  0.00    -0.646 OA
ENDBRANCH   1   9
TORSDOF 5
ENDMDL
MODEL 7
REMARK VINA RESULT:      -4.2      1.987      2.730
REMARK  5 active torsions:
REMARK  status: ('A' for Active; 'I' for Inactive)
REMARK    1  A    between atoms: C_2  and  O_1 
REMARK    2  A    between atoms: C_2  and  C_3 
REMARK    3  A    between atoms: C_2  and  C_7 
REMARK    4  A    between atoms: C_3  and  C_4 
REMARK    5  A    between atoms: C_4  and  O_5 
ROOT
HETATM    1  C   UNK N   1      33.695  17.848   7.356  0.00  0.00     0.228 C 
ENDROOT
BRANCH   1   2
HETATM    2  O   UNK N   1      34.261  17.897   6.080  0.00  0.00    -0.384 OA
HETATM    3  H   UNK N   1      34.513  17.077   5.629  0.00  0.00     0.210 HD
ENDBRANCH   1   2
BRANCH   1   4
HETATM    4  C   UNK N   1      32.243  17.422   7.390  0.00  0.00     0.152 C 
BRANCH   4   5
HETATM    5  C   UNK N   1      31.449  17.206   8.452  0.00  0.00     0.142 C 
HETATM    6  O   UNK N   1      30.285  17.873   8.537  0.00  0.00    -0.650 OA
BRANCH   5   7
HETATM    7  O   UNK N   1      31.779  16.346   9.429  0.00  0.00    -0.776 OA
HETATM    8  H   UNK N   1      32.280  15.580   9.231  0.00  0.00     0.167 HD
ENDBRANCH   5   7
ENDBRANCH   4   5
ENDBRANCH   1   4
BRANCH   1   9
HETATM    9  C   UNK N   1      34.613  18.224   8.493  0.00  0.00     0.203 C 
HETATM   10  O   UNK N   1      34.685  17.432   9.578  0.00  0.00    -0.646 OA
HETATM   11  O   UNK N   1      35.292  19.234   8.450  0.00  0.00    -0.646 OA
ENDBRANCH   1   9
TORSDOF 5
ENDMDL
MODEL 8
REMARK VINA RESULT:      -4.1     12.978     13.875
REMARK  5 active torsions:
REMARK  status: ('A' for Active; 'I' for Inactive)
REMARK    1  A    between atoms: C_2  and  O_1 
REMARK    2  A    between atoms: C_2  and  C_3 
REMARK    3  A    between atoms: C_2  and  C_7 
REMARK    4  A    between atoms: C_3  and  C_4 
REMARK    5  A    between atoms: C_4  and  O_5 
ROOT
HETATM    1  C   UNK N   1      19.598  16.865   8.759  0.00  0.00     0.228 C 
ENDROOT
BRANCH   1   2
HETATM    2  O   UNK N   1      18.227  16.596   8.759  0.00  0.00    -0.384 OA
HETATM    3  H   UNK N   1      17.635  17.094   9.344  0.00  0.00     0.210 HD
ENDBRANCH   1   2
BRANCH   1   4
HETATM    4  C   UNK N   1      20.484  15.643   8.657  0.00  0.00     0.152 C 
BRANCH   4   5
HETATM    5  C   UNK N   1      20.547  14.573   9.467  0.00  0.00     0.142 C 
HETATM    6  O   UNK N   1      19.401  14.009   9.887  0.00  0.00    -0.650 OA
BRANCH   5   7
HETATM    7  O   UNK N   1      21.716  14.049   9.871  0.00  0.00    -0.776 OA
HETATM    8  H   UNK N   1      22.523  14.448   9.611  0.00  0.00     0.167 HD
ENDBRANCH   5   7
ENDBRANCH   4   5
ENDBRANCH   1   4
BRANCH   1   9
HETATM    9  C   UNK N   1      19.978  18.322   8.858  0.00  0.00     0.203 C 
HETATM   10  O   UNK N   1      20.561  18.929   7.809  0.00  0.00    -0.646 OA
HETATM   11  O   UNK N   1      19.767  18.963   9.872  0.00  0.00    -0.646 OA
ENDBRANCH   1   9
TORSDOF 5
ENDMDL
MODEL 9
REMARK VINA RESULT:      -4.1      1.508      3.769
REMARK  5 active torsions:
REMARK  status: ('A' for Active; 'I' for Inactive)
REMARK    1  A    between atoms: C_2  and  O_1 
REMARK    2  A    between atoms: C_2  and  C_3 
REMARK    3  A    between atoms: C_2  and  C_7 
REMARK    4  A    between atoms: C_3  and  C_4 
REMARK    5  A    between atoms: C_4  and  O_5 
ROOT
HETATM    1  C   UNK N   1      34.291  16.187   9.778  0.00  0.00     0.228 C 
ENDROOT
BRANCH   1   2
HETATM    2  O   UNK N   1      33.270  15.429  10.357  0.00  0.00    -0.384 OA
HETATM    3  H   UNK N   1      33.420  14.495  10.569  0.00  0.00     0.210 HD
ENDBRANCH   1   2
BRANCH   1   4
HETATM    4  C   UNK N   1      33.818  17.278   8.843  0.00  0.00     0.152 C 
BRANCH   4   5
HETATM    5  C   UNK N   1      34.543  18.174   8.152  0.00  0.00     0.142 C 
HETATM    6  O   UNK N   1      34.448  18.187   6.810  0.00  0.00    -0.650 OA
BRANCH   5   7
HETATM    7  O   UNK N   1      35.357  19.055   8.755  0.00  0.00    -0.776 OA
HETATM    8  H   UNK N   1      36.000  19.518   8.255  0.00  0.00     0.167 HD
ENDBRANCH   5   7
ENDBRANCH   4   5
ENDBRANCH   1   4
BRANCH   1   9
HETATM    9  C   UNK N   1      35.695  15.802  10.173  0.00  0.00     0.203 C 
HETATM   10  O   UNK N   1      36.119  14.541   9.970  0.00  0.00    -0.646 OA
HETATM   11  O   UNK N   1      36.456  16.609  10.673  0.00  0.00    -0.646 OA
ENDBRANCH   1   9
TORSDOF 5
ENDMDL
