MODEL 1
REMARK VINA RESULT:      -7.1      0.000      0.000
REMARK  9 active torsions:
REMARK  status: ('A' for Active; 'I' for Inactive)
REMARK    1  A    between atoms: C_3  and  C_2 
REMARK    2  A    between atoms: O_21  and  C_2 
REMARK    3  A    between atoms: O_14  and  C_4 
REMARK    4  A    between atoms: C_5  and  O_15 
REMARK    5  A    between atoms: C_6  and  O_16 
REMARK    6  A    between atoms: C_7  and  N_13 
REMARK    7  A    between atoms: P_23  and  O_18 
REMARK    8  A    between atoms: P_23  and  O_19 
REMARK    9  A    between atoms: P_23  and  O_21 
ROOT
HETATM    1  C   UNK N   1      21.703  17.612   6.471  0.00  0.00     0.180 C 
HETATM    2  C   UNK N   1      21.498  16.100   6.781  0.00  0.00     0.182 C 
HETATM    3  C   UNK N   1      20.718  16.173   8.085  0.00  0.00     0.200 C 
HETATM    4  C   UNK N   1      19.923  17.430   7.797  0.00  0.00     0.280 C 
HETATM    5  O   UNK N   1      20.910  18.338   7.387  0.00  0.00    -0.352 OA
ENDROOT
BRANCH   4   6
HETATM    6  N   UNK N   1      19.133  17.995   8.897  0.00  0.00    -0.210 N 
HETATM    7  C   UNK N   1      17.867  17.495   9.145  0.00  0.00     0.345 A 
HETATM    8  N   UNK N   1      17.140  17.979  10.193  0.00  0.00    -0.287 N 
HETATM    9  O   UNK N   1      17.392  16.619   8.439  0.00  0.00    -0.245 OA
HETATM   10  C   UNK N   1      17.654  18.942  10.992  0.00  0.00     0.161 A 
ATOM     11  HN  UNK N   1      16.205  17.613  10.376  1.00  0.00     0.172 HD
HETATM   12  C   UNK N   1      18.927  19.445  10.733  0.00  0.00     0.163 A 
HETATM   13  N   UNK N   1      19.635  18.954   9.682  0.00  0.00    -0.299 N 
ATOM     14  HN  UNK N   1      20.566  19.322   9.490  1.00  0.00     0.186 HD
BRANCH  10  15
HETATM   15  O   UNK N   1      16.940  19.403  12.030  0.00  0.00    -0.345 OA
HETATM   16  H   UNK N   1      16.275  18.873  12.424  0.00  0.00     0.219 HD
ENDBRANCH  10  15
ENDBRANCH   4   6
BRANCH   3  17
HETATM   17  O   UNK N   1      19.924  15.046   8.314  0.00  0.00    -0.388 OA
HETATM   18  H   UNK N   1      18.977  14.848   8.376  0.00  0.00     0.210 HD
ENDBRANCH   3  17
BRANCH   2  19
HETATM   19  O   UNK N   1      20.705  15.498   5.794  0.00  0.00    -0.390 OA
HETATM   20  H   UNK N   1      20.287  15.200   4.970  0.00  0.00     0.210 HD
ENDBRANCH   2  19
BRANCH   1  21
HETATM   21  C   UNK N   1      21.203  18.064   5.096  0.00  0.00     0.215 C 
BRANCH  21  22
HETATM   22  O   UNK N   1      21.245  19.444   4.882  0.00  0.00    -0.294 OA
BRANCH  22  23
HETATM   23  P   UNK N   1      21.090  19.630   3.153  0.00  0.00     0.390 P 
HETATM   24  O   UNK N   1      20.224  20.798   3.695  0.00  0.00    -0.632 OA
BRANCH  23  25
HETATM   25  O   UNK N   1      21.690  21.008   2.288  0.00  0.00    -0.307 OA
HETATM   26  H   UNK N   1      21.279  21.885   2.316  0.00  0.00     0.222 HD
ENDBRANCH  23  25
BRANCH  23  27
HETATM   27  O   UNK N   1      22.760  19.972   3.517  0.00  0.00    -0.307 OA
HETATM   28  H   UNK N   1      23.497  20.585   3.669  0.00  0.00     0.222 HD
ENDBRANCH  23  27
ENDBRANCH  22  23
ENDBRANCH  21  22
ENDBRANCH   1  21
TORSDOF 9
ENDMDL
MODEL 2
REMARK VINA RESULT:      -6.3      4.446      6.752
REMARK  9 active torsions:
REMARK  status: ('A' for Active; 'I' for Inactive)
REMARK    1  A    between atoms: C_3  and  C_2 
REMARK    2  A    between atoms: O_21  and  C_2 
REMARK    3  A    between atoms: O_14  and  C_4 
REMARK    4  A    between atoms: C_5  and  O_15 
REMARK    5  A    between atoms: C_6  and  O_16 
REMARK    6  A    between atoms: C_7  and  N_13 
REMARK    7  A    between atoms: P_23  and  O_18 
REMARK    8  A    between atoms: P_23  and  O_19 
REMARK    9  A    between atoms: P_23  and  O_21 
ROOT
HETATM    1  C   UNK N   1      22.479  15.802   5.254  0.00  0.00     0.180 C 
HETATM    2  C   UNK N   1      22.046  16.765   6.399  0.00  0.00     0.182 C 
HETATM    3  C   UNK N   1      21.883  18.070   5.636  0.00  0.00     0.200 C 
HETATM    4  C   UNK N   1      21.376  17.499   4.328  0.00  0.00     0.280 C 
HETATM    5  O   UNK N   1      22.315  16.499   4.037  0.00  0.00    -0.352 OA
ENDROOT
BRANCH   4   6
HETATM    6  N   UNK N   1      21.247  18.423   3.195  0.00  0.00    -0.210 N 
HETATM    7  C   UNK N   1      20.446  18.069   2.123  0.00  0.00     0.345 A 
HETATM    8  N   UNK N   1      20.280  18.938   1.084  0.00  0.00    -0.287 N 
HETATM    9  O   UNK N   1      19.879  16.987   2.097  0.00  0.00    -0.245 OA
HETATM   10  C   UNK N   1      20.891  20.144   1.101  0.00  0.00     0.161 A 
ATOM     11  HN  UNK N   1      19.692  18.677   0.292  1.00  0.00     0.172 HD
HETATM   12  C   UNK N   1      21.702  20.491   2.179  0.00  0.00     0.163 A 
HETATM   13  N   UNK N   1      21.858  19.612   3.204  0.00  0.00    -0.299 N 
ATOM     14  HN  UNK N   1      22.452  19.864   3.993  1.00  0.00     0.186 HD
BRANCH  10  15
HETATM   15  O   UNK N   1      20.713  21.000   0.082  0.00  0.00    -0.345 OA
HETATM   16  H   UNK N   1      19.862  21.345  -0.106  0.00  0.00     0.219 HD
ENDBRANCH  10  15
ENDBRANCH   4   6
BRANCH   3  17
HETATM   17  O   UNK N   1      20.991  18.955   6.247  0.00  0.00    -0.388 OA
HETATM   18  H   UNK N   1      20.217  19.476   5.981  0.00  0.00     0.210 HD
ENDBRANCH   3  17
BRANCH   2  19
HETATM   19  O   UNK N   1      20.808  16.374   6.929  0.00  0.00    -0.390 OA
HETATM   20  H   UNK N   1      20.079  15.977   7.432  0.00  0.00     0.210 HD
ENDBRANCH   2  19
BRANCH   1  21
HETATM   21  C   UNK N   1      21.609  14.552   5.096  0.00  0.00     0.215 C 
BRANCH  21  22
HETATM   22  O   UNK N   1      20.611  14.652   4.123  0.00  0.00    -0.294 OA
BRANCH  22  23
HETATM   23  P   UNK N   1      19.521  13.333   4.467  0.00  0.00     0.390 P 
HETATM   24  O   UNK N   1      19.422  14.193   5.754  0.00  0.00    -0.632 OA
BRANCH  23  25
HETATM   25  O   UNK N   1      17.813  13.543   4.678  0.00  0.00    -0.307 OA
HETATM   26  H   UNK N   1      17.203  13.774   3.959  0.00  0.00     0.222 HD
ENDBRANCH  23  25
BRANCH  23  27
HETATM   27  O   UNK N   1      18.790  14.221   3.158  0.00  0.00    -0.307 OA
HETATM   28  H   UNK N   1      18.635  15.038   2.656  0.00  0.00     0.222 HD
ENDBRANCH  23  27
ENDBRANCH  22  23
ENDBRANCH  21  22
ENDBRANCH   1  21
TORSDOF 9
ENDMDL
MODEL 3
REMARK VINA RESULT:      -6.3     15.840     17.590
REMARK  9 active torsions:
REMARK  status: ('A' for Active; 'I' for Inactive)
REMARK    1  A    between atoms: C_3  and  C_2 
REMARK    2  A    between atoms: O_21  and  C_2 
REMARK    3  A    between atoms: O_14  and  C_4 
REMARK    4  A    between atoms: C_5  and  O_15 
REMARK    5  A    between atoms: C_6  and  O_16 
REMARK    6  A    between atoms: C_7  and  N_13 
REMARK    7  A    between atoms: P_23  and  O_18 
REMARK    8  A    between atoms: P_23  and  O_19 
REMARK    9  A    between atoms: P_23  and  O_21 
ROOT
HETATM    1  C   UNK N   1      35.715  12.427  11.131  0.00  0.00     0.180 C 
HETATM    2  C   UNK N   1      37.199  12.899  11.147  0.00  0.00     0.182 C 
HETATM    3  C   UNK N   1      37.174  13.973  10.070  0.00  0.00     0.200 C 
HETATM    4  C   UNK N   1      35.774  14.496  10.311  0.00  0.00     0.280 C 
HETATM    5  O   UNK N   1      34.998  13.328  10.313  0.00  0.00    -0.352 OA
ENDROOT
BRANCH   4   6
HETATM    6  N   UNK N   1      35.239  15.462   9.345  0.00  0.00    -0.210 N 
HETATM    7  C   UNK N   1      35.018  16.768   9.748  0.00  0.00     0.345 A 
HETATM    8  N   UNK N   1      34.565  17.688   8.848  0.00  0.00    -0.287 N 
HETATM    9  O   UNK N   1      35.228  17.110  10.902  0.00  0.00    -0.245 OA
HETATM   10  C   UNK N   1      34.337  17.330   7.564  0.00  0.00     0.161 A 
ATOM     11  HN  UNK N   1      34.399  18.650   9.144  1.00  0.00     0.172 HD
HETATM   12  C   UNK N   1      34.555  16.013   7.167  0.00  0.00     0.163 A 
HETATM   13  N   UNK N   1      35.003  15.109   8.077  0.00  0.00    -0.299 N 
ATOM     14  HN  UNK N   1      35.162  14.144   7.789  1.00  0.00     0.186 HD
BRANCH  10  15
HETATM   15  O   UNK N   1      33.905  18.243   6.680  0.00  0.00    -0.345 OA
HETATM   16  H   UNK N   1      33.023  18.219   6.364  0.00  0.00     0.219 HD
ENDBRANCH  10  15
ENDBRANCH   4   6
BRANCH   3  17
HETATM   17  O   UNK N   1      38.172  14.938  10.234  0.00  0.00    -0.388 OA
HETATM   18  H   UNK N   1      39.002  15.180   9.795  0.00  0.00     0.210 HD
ENDBRANCH   3  17
BRANCH   2  19
HETATM   19  O   UNK N   1      37.518  13.482  12.382  0.00  0.00    -0.390 OA
HETATM   20  H   UNK N   1      37.804  14.059  13.108  0.00  0.00     0.210 HD
ENDBRANCH   2  19
BRANCH   1  21
HETATM   21  C   UNK N   1      35.001  12.492  12.483  0.00  0.00     0.215 C 
BRANCH  21  22
HETATM   22  O   UNK N   1      35.362  11.488  13.386  0.00  0.00    -0.294 OA
BRANCH  22  23
HETATM   23  P   UNK N   1      35.379  12.275  14.944  0.00  0.00     0.390 P 
HETATM   24  O   UNK N   1      36.881  11.967  14.708  0.00  0.00    -0.632 OA
BRANCH  23  25
HETATM   25  O   UNK N   1      36.150  13.802  15.229  0.00  0.00    -0.307 OA
HETATM   26  H   UNK N   1      35.680  14.650  15.248  0.00  0.00     0.222 HD
ENDBRANCH  23  25
BRANCH  23  27
HETATM   27  O   UNK N   1      34.885  13.497  13.803  0.00  0.00    -0.307 OA
HETATM   28  H   UNK N   1      34.562  14.386  13.584  0.00  0.00     0.222 HD
ENDBRANCH  23  27
ENDBRANCH  22  23
ENDBRANCH  21  22
ENDBRANCH   1  21
TORSDOF 9
ENDMDL
MODEL 4
REMARK VINA RESULT:      -6.1      3.093      4.076
REMARK  9 active torsions:
REMARK  status: ('A' for Active; 'I' for Inactive)
REMARK    1  A    between atoms: C_3  and  C_2 
REMARK    2  A    between atoms: O_21  and  C_2 
REMARK    3  A    between atoms: O_14  and  C_4 
REMARK    4  A    between atoms: C_5  and  O_15 
REMARK    5  A    between atoms: C_6  and  O_16 
REMARK    6  A    between atoms: C_7  and  N_13 
REMARK    7  A    between atoms: P_23  and  O_18 
REMARK    8  A    between atoms: P_23  and  O_19 
REMARK    9  A    between atoms: P_23  and  O_21 
ROOT
HETATM    1  C   UNK N   1      21.251  16.774   4.256  0.00  0.00     0.180 C 
HETATM    2  C   UNK N   1      19.939  16.052   3.829  0.00  0.00     0.182 C 
HETATM    3  C   UNK N   1      19.894  14.912   4.834  0.00  0.00     0.200 C 
HETATM    4  C   UNK N   1      20.504  15.635   6.017  0.00  0.00     0.280 C 
HETATM    5  O   UNK N   1      21.669  16.196   5.475  0.00  0.00    -0.352 OA
ENDROOT
BRANCH   4   6
HETATM    6  N   UNK N   1      20.827  14.834   7.203  0.00  0.00    -0.210 N 
HETATM    7  C   UNK N   1      20.892  15.454   8.439  0.00  0.00     0.345 A 
HETATM    8  N   UNK N   1      21.145  14.714   9.557  0.00  0.00    -0.287 N 
HETATM    9  O   UNK N   1      20.719  16.658   8.543  0.00  0.00    -0.245 OA
HETATM   10  C   UNK N   1      21.329  13.377   9.462  0.00  0.00     0.161 A 
ATOM     11  HN  UNK N   1      21.196  15.169  10.468  1.00  0.00     0.172 HD
HETATM   12  C   UNK N   1      21.270  12.760   8.214  0.00  0.00     0.163 A 
HETATM   13  N   UNK N   1      21.019  13.514   7.111  0.00  0.00    -0.299 N 
ATOM     14  HN  UNK N   1      20.977  13.065   6.197  1.00  0.00     0.186 HD
BRANCH  10  15
HETATM   15  O   UNK N   1      21.564  12.652  10.567  0.00  0.00    -0.345 OA
HETATM   16  H   UNK N   1      21.412  13.017  11.416  0.00  0.00     0.219 HD
ENDBRANCH  10  15
ENDBRANCH   4   6
BRANCH   3  17
HETATM   17  O   UNK N   1      18.600  14.438   5.071  0.00  0.00    -0.388 OA
HETATM   18  H   UNK N   1      17.803  14.754   5.524  0.00  0.00     0.210 HD
ENDBRANCH   3  17
BRANCH   2  19
HETATM   19  O   UNK N   1      18.831  16.889   4.022  0.00  0.00    -0.390 OA
HETATM   20  H   UNK N   1      18.186  17.615   4.032  0.00  0.00     0.210 HD
ENDBRANCH   2  19
BRANCH   1  21
HETATM   21  C   UNK N   1      21.095  18.263   4.576  0.00  0.00     0.215 C 
BRANCH  21  22
HETATM   22  O   UNK N   1      22.133  19.074   4.110  0.00  0.00    -0.294 OA
BRANCH  22  23
HETATM   23  P   UNK N   1      21.435  19.972   2.786  0.00  0.00     0.390 P 
HETATM   24  O   UNK N   1      20.524  20.370   3.977  0.00  0.00    -0.632 OA
BRANCH  23  25
HETATM   25  O   UNK N   1      21.420  21.705   2.716  0.00  0.00    -0.307 OA
HETATM   26  H   UNK N   1      22.126  22.236   2.317  0.00  0.00     0.222 HD
ENDBRANCH  23  25
BRANCH  23  27
HETATM   27  O   UNK N   1      23.012  20.666   3.047  0.00  0.00    -0.307 OA
HETATM   28  H   UNK N   1      23.935  20.611   3.343  0.00  0.00     0.222 HD
ENDBRANCH  23  27
ENDBRANCH  22  23
ENDBRANCH  21  22
ENDBRANCH   1  21
TORSDOF 9
ENDMDL
MODEL 5
REMARK VINA RESULT:      -6.0     12.980     14.408
REMARK  9 active torsions:
REMARK  status: ('A' for Active; 'I' for Inactive)
REMARK    1  A    between atoms: C_3  and  C_2 
REMARK    2  A    between atoms: O_21  and  C_2 
REMARK    3  A    between atoms: O_14  and  C_4 
REMARK    4  A    between atoms: C_5  and  O_15 
REMARK    5  A    between atoms: C_6  and  O_16 
REMARK    6  A    between atoms: C_7  and  N_13 
REMARK    7  A    between atoms: P_23  and  O_18 
REMARK    8  A    between atoms: P_23  and  O_19 
REMARK    9  A    between atoms: P_23  and  O_21 
ROOT
HETATM    1  C   UNK N   1      32.998  15.618   7.297  0.00  0.00     0.180 C 
HETATM    2  C   UNK N   1      31.665  15.572   8.101  0.00  0.00     0.182 C 
HETATM    3  C   UNK N   1      32.146  15.012   9.430  0.00  0.00     0.200 C 
HETATM    4  C   UNK N   1      33.514  15.662   9.462  0.00  0.00     0.280 C 
HETATM    5  O   UNK N   1      34.043  15.340   8.204  0.00  0.00    -0.352 OA
ENDROOT
BRANCH   4   6
HETATM    6  N   UNK N   1      34.434  15.245  10.526  0.00  0.00    -0.210 N 
HETATM    7  C   UNK N   1      35.434  16.112  10.933  0.00  0.00     0.345 A 
HETATM    8  N   UNK N   1      36.267  15.756  11.952  0.00  0.00    -0.287 N 
HETATM    9  O   UNK N   1      35.576  17.198  10.392  0.00  0.00    -0.245 OA
HETATM   10  C   UNK N   1      36.116  14.562  12.570  0.00  0.00     0.161 A 
ATOM     11  HN  UNK N   1      37.006  16.392  12.251  1.00  0.00     0.172 HD
HETATM   12  C   UNK N   1      35.113  13.691  12.151  0.00  0.00     0.163 A 
HETATM   13  N   UNK N   1      34.294  14.061  11.131  0.00  0.00    -0.299 N 
ATOM     14  HN  UNK N   1      33.560  13.425  10.823  1.00  0.00     0.186 HD
BRANCH  10  15
HETATM   15  O   UNK N   1      36.931  14.223  13.581  0.00  0.00    -0.345 OA
HETATM   16  H   UNK N   1      36.964  13.339  13.890  0.00  0.00     0.219 HD
ENDBRANCH  10  15
ENDBRANCH   4   6
BRANCH   3  17
HETATM   17  O   UNK N   1      31.328  15.371  10.505  0.00  0.00    -0.388 OA
HETATM   18  H   UNK N   1      30.474  15.089  10.870  0.00  0.00     0.210 HD
ENDBRANCH   3  17
BRANCH   2  19
HETATM   19  O   UNK N   1      31.160  16.866   8.292  0.00  0.00    -0.390 OA
HETATM   20  H   UNK N   1      30.937  17.809   8.243  0.00  0.00     0.210 HD
ENDBRANCH   2  19
BRANCH   1  21
HETATM   21  C   UNK N   1      33.355  16.988   6.715  0.00  0.00     0.215 C 
BRANCH  21  22
HETATM   22  O   UNK N   1      32.339  17.591   5.969  0.00  0.00    -0.294 OA
BRANCH  22  23
HETATM   23  P   UNK N   1      32.204  16.614   4.529  0.00  0.00     0.390 P 
HETATM   24  O   UNK N   1      30.741  17.073   4.760  0.00  0.00    -0.632 OA
BRANCH  23  25
HETATM   25  O   UNK N   1      31.737  17.253   2.986  0.00  0.00    -0.307 OA
HETATM   26  H   UNK N   1      32.348  17.370   2.242  0.00  0.00     0.222 HD
ENDBRANCH  23  25
BRANCH  23  27
HETATM   27  O   UNK N   1      33.149  18.004   4.069  0.00  0.00    -0.307 OA
HETATM   28  H   UNK N   1      33.593  18.844   4.268  0.00  0.00     0.222 HD
ENDBRANCH  23  27
ENDBRANCH  22  23
ENDBRANCH  21  22
ENDBRANCH   1  21
TORSDOF 9
ENDMDL
MODEL 6
REMARK VINA RESULT:      -6.0      5.556      7.597
REMARK  9 active torsions:
REMARK  status: ('A' for Active; 'I' for Inactive)
REMARK    1  A    between atoms: C_3  and  C_2 
REMARK    2  A    between atoms: O_21  and  C_2 
REMARK    3  A    between atoms: O_14  and  C_4 
REMARK    4  A    between atoms: C_5  and  O_15 
REMARK    5  A    between atoms: C_6  and  O_16 
REMARK    6  A    between atoms: C_7  and  N_13 
REMARK    7  A    between atoms: P_23  and  O_18 
REMARK    8  A    between atoms: P_23  and  O_19 
REMARK    9  A    between atoms: P_23  and  O_21 
ROOT
HETATM    1  C   UNK N   1      20.982  17.930   3.549  0.00  0.00     0.180 C 
HETATM    2  C   UNK N   1      20.531  19.340   3.065  0.00  0.00     0.182 C 
HETATM    3  C   UNK N   1      21.716  20.189   3.497  0.00  0.00     0.200 C 
HETATM    4  C   UNK N   1      22.812  19.167   3.275  0.00  0.00     0.280 C 
HETATM    5  O   UNK N   1      22.331  18.038   3.953  0.00  0.00    -0.352 OA
ENDROOT
BRANCH   4   6
HETATM    6  N   UNK N   1      24.159  19.511   3.746  0.00  0.00    -0.210 N 
HETATM    7  C   UNK N   1      24.974  20.296   2.948  0.00  0.00     0.345 A 
HETATM    8  N   UNK N   1      26.211  20.661   3.394  0.00  0.00    -0.287 N 
HETATM    9  O   UNK N   1      24.597  20.671   1.849  0.00  0.00    -0.245 OA
HETATM   10  C   UNK N   1      26.641  20.263   4.613  0.00  0.00     0.161 A 
ATOM     11  HN  UNK N   1      26.813  21.237   2.806  1.00  0.00     0.172 HD
HETATM   12  C   UNK N   1      25.818  19.467   5.408  0.00  0.00     0.163 A 
HETATM   13  N   UNK N   1      24.591  19.111   4.947  0.00  0.00    -0.299 N 
ATOM     14  HN  UNK N   1      23.988  18.527   5.526  1.00  0.00     0.186 HD
BRANCH  10  15
HETATM   15  O   UNK N   1      27.853  20.637   5.051  0.00  0.00    -0.345 OA
HETATM   16  H   UNK N   1      28.469  21.032   4.466  0.00  0.00     0.219 HD
ENDBRANCH  10  15
ENDBRANCH   4   6
BRANCH   3  17
HETATM   17  O   UNK N   1      21.866  21.350   2.734  0.00  0.00    -0.388 OA
HETATM   18  H   UNK N   1      22.399  21.634   1.975  0.00  0.00     0.210 HD
ENDBRANCH   3  17
BRANCH   2  19
HETATM   19  O   UNK N   1      20.418  19.369   1.668  0.00  0.00    -0.390 OA
HETATM   20  H   UNK N   1      20.357  19.164   0.721  0.00  0.00     0.210 HD
ENDBRANCH   2  19
BRANCH   1  21
HETATM   21  C   UNK N   1      20.997  16.848   2.466  0.00  0.00     0.215 C 
BRANCH  21  22
HETATM   22  O   UNK N   1      19.763  16.236   2.233  0.00  0.00    -0.294 OA
BRANCH  22  23
HETATM   23  P   UNK N   1      19.740  15.919   0.516  0.00  0.00     0.390 P 
HETATM   24  O   UNK N   1      19.031  14.668   1.097  0.00  0.00    -0.632 OA
BRANCH  23  25
HETATM   25  O   UNK N   1      18.279  15.821  -0.413  0.00  0.00    -0.307 OA
HETATM   26  H   UNK N   1      17.689  16.573  -0.573  0.00  0.00     0.222 HD
ENDBRANCH  23  25
BRANCH  23  27
HETATM   27  O   UNK N   1      18.701  17.298   0.756  0.00  0.00    -0.307 OA
HETATM   28  H   UNK N   1      17.829  17.724   0.764  0.00  0.00     0.222 HD
ENDBRANCH  23  27
ENDBRANCH  22  23
ENDBRANCH  21  22
ENDBRANCH   1  21
TORSDOF 9
ENDMDL
MODEL 7
REMARK VINA RESULT:      -5.8     13.488     15.101
REMARK  9 active torsions:
REMARK  status: ('A' for Active; 'I' for Inactive)
REMARK    1  A    between atoms: C_3  and  C_2 
REMARK    2  A    between atoms: O_21  and  C_2 
REMARK    3  A    between atoms: O_14  and  C_4 
REMARK    4  A    between atoms: C_5  and  O_15 
REMARK    5  A    between atoms: C_6  and  O_16 
REMARK    6  A    between atoms: C_7  and  N_13 
REMARK    7  A    between atoms: P_23  and  O_18 
REMARK    8  A    between atoms: P_23  and  O_19 
REMARK    9  A    between atoms: P_23  and  O_21 
ROOT
HETATM    1  C   UNK N   1      32.475  16.521   7.360  0.00  0.00     0.180 C 
HETATM    2  C   UNK N   1      33.200  17.898   7.427  0.00  0.00     0.182 C 
HETATM    3  C   UNK N   1      34.048  17.721   8.676  0.00  0.00     0.200 C 
HETATM    4  C   UNK N   1      34.348  16.243   8.532  0.00  0.00     0.280 C 
HETATM    5  O   UNK N   1      33.079  15.684   8.325  0.00  0.00    -0.352 OA
ENDROOT
BRANCH   4   6
HETATM    6  N   UNK N   1      35.021  15.580   9.655  0.00  0.00    -0.210 N 
HETATM    7  C   UNK N   1      35.824  14.480   9.406  0.00  0.00     0.345 A 
HETATM    8  N   UNK N   1      36.493  13.882  10.433  0.00  0.00    -0.287 N 
HETATM    9  O   UNK N   1      35.947  14.040   8.273  0.00  0.00    -0.245 OA
HETATM   10  C   UNK N   1      36.377  14.362  11.693  0.00  0.00     0.161 A 
ATOM     11  HN  UNK N   1      37.083  13.070  10.252  1.00  0.00     0.172 HD
HETATM   12  C   UNK N   1      35.562  15.465  11.937  0.00  0.00     0.163 A 
HETATM   13  N   UNK N   1      34.901  16.046  10.902  0.00  0.00    -0.299 N 
ATOM     14  HN  UNK N   1      34.303  16.852  11.079  1.00  0.00     0.186 HD
BRANCH  10  15
HETATM   15  O   UNK N   1      37.049  13.778  12.697  0.00  0.00    -0.345 OA
HETATM   16  H   UNK N   1      37.484  12.958  12.565  0.00  0.00     0.219 HD
ENDBRANCH  10  15
ENDBRANCH   4   6
BRANCH   3  17
HETATM   17  O   UNK N   1      35.189  18.528   8.684  0.00  0.00    -0.388 OA
HETATM   18  H   UNK N   1      35.597  19.183   8.096  0.00  0.00     0.210 HD
ENDBRANCH   3  17
BRANCH   2  19
HETATM   19  O   UNK N   1      34.035  18.069   6.314  0.00  0.00    -0.390 OA
HETATM   20  H   UNK N   1      34.734  18.314   5.686  0.00  0.00     0.210 HD
ENDBRANCH   2  19
BRANCH   1  21
HETATM   21  C   UNK N   1      32.647  15.763   6.041  0.00  0.00     0.215 C 
BRANCH  21  22
HETATM   22  O   UNK N   1      32.044  16.367   4.935  0.00  0.00    -0.294 OA
BRANCH  22  23
HETATM   23  P   UNK N   1      32.435  15.326   3.591  0.00  0.00     0.390 P 
HETATM   24  O   UNK N   1      31.785  16.547   2.890  0.00  0.00    -0.632 OA
BRANCH  23  25
HETATM   25  O   UNK N   1      33.590  15.746   2.367  0.00  0.00    -0.307 OA
HETATM   26  H   UNK N   1      33.356  15.932   1.444  0.00  0.00     0.222 HD
ENDBRANCH  23  25
BRANCH  23  27
HETATM   27  O   UNK N   1      33.964  15.827   4.259  0.00  0.00    -0.307 OA
HETATM   28  H   UNK N   1      34.902  16.065   4.173  0.00  0.00     0.222 HD
ENDBRANCH  23  27
ENDBRANCH  22  23
ENDBRANCH  21  22
ENDBRANCH   1  21
TORSDOF 9
ENDMDL
MODEL 8
REMARK VINA RESULT:      -5.8     11.448     13.050
REMARK  9 active torsions:
REMARK  status: ('A' for Active; 'I' for Inactive)
REMARK    1  A    between atoms: C_3  and  C_2 
REMARK    2  A    between atoms: O_21  and  C_2 
REMARK    3  A    between atoms: O_14  and  C_4 
REMARK    4  A    between atoms: C_5  and  O_15 
REMARK    5  A    between atoms: C_6  and  O_16 
REMARK    6  A    between atoms: C_7  and  N_13 
REMARK    7  A    between atoms: P_23  and  O_18 
REMARK    8  A    between atoms: P_23  and  O_19 
REMARK    9  A    between atoms: P_23  and  O_21 
ROOT
HETATM    1  C   UNK N   1      33.243  14.539   6.702  0.00  0.00     0.180 C 
HETATM    2  C   UNK N   1      33.505  15.387   5.422  0.00  0.00     0.182 C 
HETATM    3  C   UNK N   1      32.261  16.261   5.392  0.00  0.00     0.200 C 
HETATM    4  C   UNK N   1      32.067  16.420   6.886  0.00  0.00     0.280 C 
HETATM    5  O   UNK N   1      32.122  15.099   7.352  0.00  0.00    -0.352 OA
ENDROOT
BRANCH   4   6
HETATM    6  N   UNK N   1      30.833  17.072   7.339  0.00  0.00    -0.210 N 
HETATM    7  C   UNK N   1      30.884  17.939   8.417  0.00  0.00     0.345 A 
HETATM    8  N   UNK N   1      29.753  18.587   8.821  0.00  0.00    -0.287 N 
HETATM    9  O   UNK N   1      31.933  18.135   9.011  0.00  0.00    -0.245 OA
HETATM   10  C   UNK N   1      28.585  18.388   8.168  0.00  0.00     0.161 A 
ATOM     11  HN  UNK N   1      29.789  19.223   9.616  1.00  0.00     0.172 HD
HETATM   12  C   UNK N   1      28.539  17.509   7.088  0.00  0.00     0.163 A 
HETATM   13  N   UNK N   1      29.675  16.870   6.702  0.00  0.00    -0.299 N 
ATOM     14  HN  UNK N   1      29.643  16.226   5.913  1.00  0.00     0.186 HD
BRANCH  10  15
HETATM   15  O   UNK N   1      27.479  19.040   8.561  0.00  0.00    -0.345 OA
HETATM   16  H   UNK N   1      26.635  18.645   8.464  0.00  0.00     0.219 HD
ENDBRANCH  10  15
ENDBRANCH   4   6
BRANCH   3  17
HETATM   17  O   UNK N   1      32.456  17.469   4.717  0.00  0.00    -0.388 OA
HETATM   18  H   UNK N   1      32.391  18.414   4.925  0.00  0.00     0.210 HD
ENDBRANCH   3  17
BRANCH   2  19
HETATM   19  O   UNK N   1      34.640  16.192   5.588  0.00  0.00    -0.390 OA
HETATM   20  H   UNK N   1      35.494  16.648   5.514  0.00  0.00     0.210 HD
ENDBRANCH   2  19
BRANCH   1  21
HETATM   21  C   UNK N   1      34.356  14.593   7.752  0.00  0.00     0.215 C 
BRANCH  21  22
HETATM   22  O   UNK N   1      33.982  14.159   9.026  0.00  0.00    -0.294 OA
BRANCH  22  23
HETATM   23  P   UNK N   1      34.689  15.323  10.118  0.00  0.00     0.390 P 
HETATM   24  O   UNK N   1      35.222  15.791   8.739  0.00  0.00    -0.632 OA
BRANCH  23  25
HETATM   25  O   UNK N   1      34.298  17.012  10.090  0.00  0.00    -0.307 OA
HETATM   26  H   UNK N   1      33.469  17.370   9.734  0.00  0.00     0.222 HD
ENDBRANCH  23  25
BRANCH  23  27
HETATM   27  O   UNK N   1      32.971  15.612  10.168  0.00  0.00    -0.307 OA
HETATM   28  H   UNK N   1      32.074  15.520   9.807  0.00  0.00     0.222 HD
ENDBRANCH  23  27
ENDBRANCH  22  23
ENDBRANCH  21  22
ENDBRANCH   1  21
TORSDOF 9
ENDMDL
MODEL 9
REMARK VINA RESULT:      -5.8     15.293     16.779
REMARK  9 active torsions:
REMARK  status: ('A' for Active; 'I' for Inactive)
REMARK    1  A    between atoms: C_3  and  C_2 
REMARK    2  A    between atoms: O_21  and  C_2 
REMARK    3  A    between atoms: O_14  and  C_4 
REMARK    4  A    between atoms: C_5  and  O_15 
REMARK    5  A    between atoms: C_6  and  O_16 
REMARK    6  A    between atoms: C_7  and  N_13 
REMARK    7  A    between atoms: P_23  and  O_18 
REMARK    8  A    between atoms: P_23  and  O_19 
REMARK    9  A    between atoms: P_23  and  O_21 
ROOT
HETATM    1  C   UNK N   1      28.536  24.519  -4.436  0.00  0.00     0.180 C 
HETATM    2  C   UNK N   1      27.265  25.409  -4.308  0.00  0.00     0.182 C 
HETATM    3  C   UNK N   1      26.522  25.043  -5.583  0.00  0.00     0.200 C 
HETATM    4  C   UNK N   1      26.931  23.587  -5.666  0.00  0.00     0.280 C 
HETATM    5  O   UNK N   1      28.325  23.644  -5.525  0.00  0.00    -0.352 OA
ENDROOT
BRANCH   4   6
HETATM    6  N   UNK N   1      26.571  22.854  -6.886  0.00  0.00    -0.210 N 
HETATM    7  C   UNK N   1      25.341  22.224  -6.956  0.00  0.00     0.345 A 
HETATM    8  N   UNK N   1      24.974  21.578  -8.101  0.00  0.00    -0.287 N 
HETATM    9  O   UNK N   1      24.574  22.243  -6.006  0.00  0.00    -0.245 OA
HETATM   10  C   UNK N   1      25.806  21.556  -9.167  0.00  0.00     0.161 A 
ATOM     11  HN  UNK N   1      24.069  21.111  -8.154  1.00  0.00     0.172 HD
HETATM   12  C   UNK N   1      27.046  22.187  -9.087  0.00  0.00     0.163 A 
HETATM   13  N   UNK N   1      27.396  22.822  -7.938  0.00  0.00    -0.299 N 
ATOM     14  HN  UNK N   1      28.303  23.283  -7.877  1.00  0.00     0.186 HD
BRANCH  10  15
HETATM   15  O   UNK N   1      25.434  20.931 -10.295  0.00  0.00    -0.345 OA
HETATM   16  H   UNK N   1      25.948  20.229 -10.642  0.00  0.00     0.219 HD
ENDBRANCH  10  15
ENDBRANCH   4   6
BRANCH   3  17
HETATM   17  O   UNK N   1      25.141  25.234  -5.489  0.00  0.00    -0.388 OA
HETATM   18  H   UNK N   1      24.371  25.138  -6.071  0.00  0.00     0.210 HD
ENDBRANCH   3  17
BRANCH   2  19
HETATM   19  O   UNK N   1      26.504  25.024  -3.195  0.00  0.00    -0.390 OA
HETATM   20  H   UNK N   1      25.805  24.770  -2.571  0.00  0.00     0.210 HD
ENDBRANCH   2  19
BRANCH   1  21
HETATM   21  C   UNK N   1      28.797  23.590  -3.248  0.00  0.00     0.215 C 
BRANCH  21  22
HETATM   22  O   UNK N   1      29.469  22.407  -3.566  0.00  0.00    -0.294 OA
BRANCH  22  23
HETATM   23  P   UNK N   1      31.134  22.711  -3.136  0.00  0.00     0.390 P 
HETATM   24  O   UNK N   1      30.406  22.846  -1.773  0.00  0.00    -0.632 OA
BRANCH  23  25
HETATM   25  O   UNK N   1      32.050  21.676  -2.090  0.00  0.00    -0.307 OA
HETATM   26  H   UNK N   1      31.868  21.566  -1.144  0.00  0.00     0.222 HD
ENDBRANCH  23  25
BRANCH  23  27
HETATM   27  O   UNK N   1      31.071  21.040  -3.627  0.00  0.00    -0.307 OA
HETATM   28  H   UNK N   1      31.126  20.089  -3.442  0.00  0.00     0.222 HD
ENDBRANCH  23  27
ENDBRANCH  22  23
ENDBRANCH  21  22
ENDBRANCH   1  21
TORSDOF 9
ENDMDL
