REMARK  9 active torsions:
REMARK  status: ('A' for Active; 'I' for Inactive)
REMARK    1  A    between atoms: C_6  and  C_2 
REMARK    2  A    between atoms: N_11  and  C_3 
REMARK    3  A    between atoms: C_10  and  C_7 
REMARK    4  A    between atoms: N_16  and  C_7 
REMARK    5  A    between atoms: C_9  and  C_8 
REMARK    6  A    between atoms: C_10  and  C_8 
REMARK    7  A    between atoms: C_8  and  N_11 
REMARK    8  A    between atoms: O_19  and  C_9 
REMARK    9  A    between atoms: C_10  and  S_22 
ROOT
HETATM    1  C   UNK N   1       4.036   1.094   1.238  0.00  0.00     0.037 C 
HETATM    2  C   UNK N   1       4.002   1.079  -0.300  0.00  0.00     0.122 C 
ENDROOT
BRANCH   2   3
HETATM    3  C   UNK N   1       3.837  -0.339  -0.894  0.00  0.00     0.178 C 
BRANCH   3   4
HETATM    4  N   UNK N   1       4.143  -1.448  -0.004  0.00  0.00    -0.286 N 
HETATM    5  C   UNK N   1       5.181  -2.291  -0.111  0.00  0.00     0.130 A 
HETATM    6  C   UNK N   1       4.997  -3.258   0.863  0.00  0.00     0.127 A 
HETATM    7  N   UNK N   1       3.844  -2.967   1.505  0.00  0.00    -0.296 N 
HETATM    8  N   UNK N   1       3.344  -1.874   0.955  0.00  0.00    -0.241 N 
ATOM      9  HN  UNK N   1       3.434  -3.495   2.275  1.00  0.00     0.187 HD
ATOM     10  HN  UNK N   1       2.470  -1.426   1.231  1.00  0.00     0.208 HD
ENDBRANCH   3   4
ENDBRANCH   2   3
BRANCH   2  11
HETATM   11  C   UNK N   1       2.788   1.909  -0.832  0.00  0.00     0.205 C 
BRANCH  11  12
HETATM   12  C   UNK N   1       1.436   1.492  -0.255  0.00  0.00     0.165 C 
HETATM   13  O   UNK N   1       1.352   0.628   0.604  0.00  0.00    -0.648 OA
BRANCH  12  14
HETATM   14  O   UNK N   1       0.310   2.066  -0.718  0.00  0.00    -0.775 OA
HETATM   15  H   UNK N   1       0.264   2.945  -1.041  0.00  0.00     0.167 HD
ENDBRANCH  12  14
ENDBRANCH  11  12
BRANCH  11  16
HETATM   16  N   UNK N   1       3.048   3.332  -0.696  0.00  0.00    -0.383 N 
HETATM   17  H   UNK N   1       3.831   3.680  -1.182  0.00  0.00     0.159 HD
BRANCH  16  18
HETATM   18  C   UNK N   1       2.307   4.280   0.055  0.00  0.00     0.087 C 
HETATM   19  C   UNK N   1       2.604   5.579  -0.084  0.00  0.00     0.058 C 
BRANCH  19  20
HETATM   20  C   UNK N   1       1.902   6.643   0.658  0.00  0.00     0.260 C 
HETATM   21  O   UNK N   1       1.023   6.383   1.464  0.00  0.00    -0.302 OA
ENDBRANCH  19  20
ENDBRANCH  16  18
ENDBRANCH  11  16
ENDBRANCH   2  11
BRANCH   2  22
HETATM   22  S   UNK N   1       5.590   1.760  -0.982  0.00  0.00     0.264 S 
HETATM   23  O   UNK N   1       5.669   2.947  -0.004  0.00  0.00    -0.211 OA
HETATM   24  O   UNK N   1       6.495   0.894  -0.090  0.00  0.00    -0.211 OA
ENDBRANCH   2  22
TORSDOF 9
