MODEL 1
REMARK VINA RESULT:      -6.4      0.000      0.000
REMARK  9 active torsions:
REMARK  status: ('A' for Active; 'I' for Inactive)
REMARK    1  A    between atoms: C_3  and  C_1 
REMARK    2  A    between atoms: O_24  and  C_1 
REMARK    3  A    between atoms: C_9  and  C_5 
REMARK    4  A    between atoms: C_7  and  O_19 
REMARK    5  A    between atoms: C_8  and  O_20 
REMARK    6  A    between atoms: N_11  and  C_10 
REMARK    7  A    between atoms: P_26  and  O_21 
REMARK    8  A    between atoms: P_26  and  O_22 
REMARK    9  A    between atoms: P_26  and  O_24 
ROOT
HETATM    1  C   UNK N   1      31.844  15.499   6.301  0.00  0.00     0.178 C 
HETATM    2  C   UNK N   1      32.304  16.113   4.965  0.00  0.00     0.180 C 
HETATM    3  C   UNK N   1      31.180  15.665   4.082  0.00  0.00     0.184 C 
HETATM    4  C   UNK N   1      29.981  15.793   5.018  0.00  0.00     0.207 C 
HETATM    5  O   UNK N   1      30.433  15.330   6.271  0.00  0.00    -0.367 OA
ENDROOT
BRANCH   4   6
HETATM    6  C   UNK N   1      29.354  17.164   5.187  0.00  0.00     0.086 A 
HETATM    7  C   UNK N   1      28.809  17.715   6.329  0.00  0.00     0.092 A 
HETATM    8  C   UNK N   1      28.277  18.898   5.958  0.00  0.00     0.120 A 
HETATM    9  N   UNK N   1      28.718  17.250   7.599  0.00  0.00    -0.349 N 
HETATM   10  C   UNK N   1      27.610  19.686   6.883  0.00  0.00     0.130 A 
HETATM   11  N   UNK N   1      28.487  19.098   4.643  0.00  0.00    -0.295 N 
HETATM   12  N   UNK N   1      27.523  19.229   8.169  0.00  0.00    -0.337 N 
HETATM   13  C   UNK N   1      28.076  18.024   8.528  0.00  0.00     0.182 A 
ATOM     14  HN  UNK N   1      27.042  19.791   8.871  1.00  0.00     0.168 HD
HETATM   15  N   UNK N   1      29.140  18.037   4.170  0.00  0.00    -0.299 N 
ATOM     16  HN  UNK N   1      28.197  19.915   4.105  1.00  0.00     0.187 HD
HETATM   17  H   UNK N   1      29.422  17.907   3.235  0.00  0.00     0.186 HD
ATOM     18  HN  UNK N   1      29.117  16.347   7.857  1.00  0.00     0.167 HD
BRANCH  10  19
HETATM   19  N   UNK N   1      27.018  20.911   6.515  0.00  0.00    -0.383 N 
HETATM   20  H   UNK N   1      26.541  21.530   7.113  0.00  0.00     0.157 HD
HETATM   21  H   UNK N   1      27.089  21.173   5.569  0.00  0.00     0.157 HD
ENDBRANCH  10  19
ENDBRANCH   4   6
BRANCH   3  22
HETATM   22  O   UNK N   1      31.064  16.394   2.895  0.00  0.00    -0.390 OA
HETATM   23  H   UNK N   1      30.658  16.197   2.036  0.00  0.00     0.210 HD
ENDBRANCH   3  22
BRANCH   2  24
HETATM   24  O   UNK N   1      32.320  17.512   5.025  0.00  0.00    -0.390 OA
HETATM   25  H   UNK N   1      32.713  18.275   5.476  0.00  0.00     0.210 HD
ENDBRANCH   2  24
BRANCH   1  26
HETATM   26  C   UNK N   1      32.198  16.371   7.504  0.00  0.00     0.215 C 
BRANCH  26  27
HETATM   27  O   UNK N   1      33.571  16.576   7.635  0.00  0.00    -0.294 OA
BRANCH  27  28
HETATM   28  P   UNK N   1      33.686  18.195   8.257  0.00  0.00     0.390 P 
HETATM   29  O   UNK N   1      34.426  17.369   9.342  0.00  0.00    -0.632 OA
BRANCH  28  30
HETATM   30  O   UNK N   1      35.207  19.019   8.382  0.00  0.00    -0.307 OA
HETATM   31  H   UNK N   1      35.410  19.747   8.989  0.00  0.00     0.222 HD
ENDBRANCH  28  30
BRANCH  28  32
HETATM   32  O   UNK N   1      34.577  18.107   6.766  0.00  0.00    -0.307 OA
HETATM   33  H   UNK N   1      34.664  18.540   5.902  0.00  0.00     0.222 HD
ENDBRANCH  28  32
ENDBRANCH  27  28
ENDBRANCH  26  27
ENDBRANCH   1  26
TORSDOF 9
ENDMDL
MODEL 2
REMARK VINA RESULT:      -6.2      6.685      9.316
REMARK  9 active torsions:
REMARK  status: ('A' for Active; 'I' for Inactive)
REMARK    1  A    between atoms: C_3  and  C_1 
REMARK    2  A    between atoms: O_24  and  C_1 
REMARK    3  A    between atoms: C_9  and  C_5 
REMARK    4  A    between atoms: C_7  and  O_19 
REMARK    5  A    between atoms: C_8  and  O_20 
REMARK    6  A    between atoms: N_11  and  C_10 
REMARK    7  A    between atoms: P_26  and  O_21 
REMARK    8  A    between atoms: P_26  and  O_22 
REMARK    9  A    between atoms: P_26  and  O_24 
ROOT
HETATM    1  C   UNK N   1      34.560  15.315  10.699  0.00  0.00     0.178 C 
HETATM    2  C   UNK N   1      35.577  15.758  11.769  0.00  0.00     0.180 C 
HETATM    3  C   UNK N   1      35.763  14.460  12.493  0.00  0.00     0.184 C 
HETATM    4  C   UNK N   1      35.713  13.455  11.344  0.00  0.00     0.207 C 
HETATM    5  O   UNK N   1      34.691  13.915  10.489  0.00  0.00    -0.367 OA
ENDROOT
BRANCH   4   6
HETATM    6  C   UNK N   1      36.980  13.233  10.540  0.00  0.00     0.086 A 
HETATM    7  C   UNK N   1      37.091  12.870   9.212  0.00  0.00     0.092 A 
HETATM    8  C   UNK N   1      38.408  12.683   8.984  0.00  0.00     0.120 A 
HETATM    9  N   UNK N   1      36.156  12.663   8.253  0.00  0.00    -0.349 N 
HETATM   10  C   UNK N   1      38.848  12.267   7.737  0.00  0.00     0.130 A 
HETATM   11  N   UNK N   1      39.103  12.930  10.109  0.00  0.00    -0.295 N 
HETATM   12  N   UNK N   1      37.912  12.067   6.760  0.00  0.00    -0.337 N 
HETATM   13  C   UNK N   1      36.577  12.267   7.012  0.00  0.00     0.182 A 
ATOM     14  HN  UNK N   1      38.209  11.764   5.833  1.00  0.00     0.168 HD
HETATM   15  N   UNK N   1      38.232  13.261  11.062  0.00  0.00    -0.299 N 
ATOM     16  HN  UNK N   1      40.116  12.873  10.214  1.00  0.00     0.187 HD
HETATM   17  H   UNK N   1      38.459  13.488  11.993  0.00  0.00     0.186 HD
ATOM     18  HN  UNK N   1      35.164  12.800   8.449  1.00  0.00     0.167 HD
BRANCH  10  19
HETATM   19  N   UNK N   1      40.214  12.033   7.480  0.00  0.00    -0.383 N 
HETATM   20  H   UNK N   1      40.586  11.510   6.734  0.00  0.00     0.157 HD
HETATM   21  H   UNK N   1      40.859  12.433   8.107  0.00  0.00     0.157 HD
ENDBRANCH  10  19
ENDBRANCH   4   6
BRANCH   3  22
HETATM   22  O   UNK N   1      36.929  14.399  13.261  0.00  0.00    -0.390 OA
HETATM   23  H   UNK N   1      37.871  14.451  13.035  0.00  0.00     0.210 HD
ENDBRANCH   3  22
BRANCH   2  24
HETATM   24  O   UNK N   1      36.791  16.146  11.190  0.00  0.00    -0.390 OA
HETATM   25  H   UNK N   1      37.493  16.815  11.208  0.00  0.00     0.210 HD
ENDBRANCH   2  24
BRANCH   1  26
HETATM   26  C   UNK N   1      34.763  16.024   9.362  0.00  0.00     0.215 C 
BRANCH  26  27
HETATM   27  O   UNK N   1      34.814  17.411   9.491  0.00  0.00    -0.294 OA
BRANCH  27  28
HETATM   28  P   UNK N   1      33.863  17.983   8.153  0.00  0.00     0.390 P 
HETATM   29  O   UNK N   1      34.970  19.065   8.260  0.00  0.00    -0.632 OA
BRANCH  28  30
HETATM   30  O   UNK N   1      34.494  18.031   6.539  0.00  0.00    -0.307 OA
HETATM   31  H   UNK N   1      35.275  18.529   6.250  0.00  0.00     0.222 HD
ENDBRANCH  28  30
BRANCH  28  32
HETATM   32  O   UNK N   1      34.589  16.465   7.711  0.00  0.00    -0.307 OA
HETATM   33  H   UNK N   1      35.418  15.967   7.782  0.00  0.00     0.222 HD
ENDBRANCH  28  32
ENDBRANCH  27  28
ENDBRANCH  26  27
ENDBRANCH   1  26
TORSDOF 9
ENDMDL
MODEL 3
REMARK VINA RESULT:      -6.1      5.874      8.270
REMARK  9 active torsions:
REMARK  status: ('A' for Active; 'I' for Inactive)
REMARK    1  A    between atoms: C_3  and  C_1 
REMARK    2  A    between atoms: O_24  and  C_1 
REMARK    3  A    between atoms: C_9  and  C_5 
REMARK    4  A    between atoms: C_7  and  O_19 
REMARK    5  A    between atoms: C_8  and  O_20 
REMARK    6  A    between atoms: N_11  and  C_10 
REMARK    7  A    between atoms: P_26  and  O_21 
REMARK    8  A    between atoms: P_26  and  O_22 
REMARK    9  A    between atoms: P_26  and  O_24 
ROOT
HETATM    1  C   UNK N   1      35.989  12.054  11.443  0.00  0.00     0.178 C 
HETATM    2  C   UNK N   1      35.583  12.807  12.725  0.00  0.00     0.180 C 
HETATM    3  C   UNK N   1      36.700  13.802  12.797  0.00  0.00     0.184 C 
HETATM    4  C   UNK N   1      36.914  14.136  11.323  0.00  0.00     0.207 C 
HETATM    5  O   UNK N   1      36.792  12.908  10.640  0.00  0.00    -0.367 OA
ENDROOT
BRANCH   4   6
HETATM    6  C   UNK N   1      35.992  15.158  10.685  0.00  0.00     0.086 A 
HETATM    7  C   UNK N   1      35.576  15.225   9.370  0.00  0.00     0.092 A 
HETATM    8  C   UNK N   1      34.865  16.366   9.260  0.00  0.00     0.120 A 
HETATM    9  N   UNK N   1      35.806  14.413   8.310  0.00  0.00    -0.349 N 
HETATM   10  C   UNK N   1      34.339  16.746   8.035  0.00  0.00     0.130 A 
HETATM   11  N   UNK N   1      34.817  16.989  10.452  0.00  0.00    -0.295 N 
HETATM   12  N   UNK N   1      34.556  15.926   6.962  0.00  0.00    -0.337 N 
HETATM   13  C   UNK N   1      35.279  14.766   7.096  0.00  0.00     0.182 A 
ATOM     14  HN  UNK N   1      34.177  16.180   6.050  1.00  0.00     0.168 HD
HETATM   15  N   UNK N   1      35.510  16.255  11.323  0.00  0.00    -0.299 N 
ATOM     16  HN  UNK N   1      34.337  17.867  10.653  1.00  0.00     0.187 HD
HETATM   17  H   UNK N   1      35.649  16.472  12.274  0.00  0.00     0.186 HD
ATOM     18  HN  UNK N   1      36.357  13.560   8.413  1.00  0.00     0.167 HD
BRANCH  10  19
HETATM   19  N   UNK N   1      33.619  17.948   7.884  0.00  0.00    -0.383 N 
HETATM   20  H   UNK N   1      32.824  18.085   7.320  0.00  0.00     0.157 HD
HETATM   21  H   UNK N   1      33.942  18.727   8.393  0.00  0.00     0.157 HD
ENDBRANCH  10  19
ENDBRANCH   4   6
BRANCH   3  22
HETATM   22  O   UNK N   1      36.423  14.909  13.604  0.00  0.00    -0.390 OA
HETATM   23  H   UNK N   1      35.932  15.732  13.450  0.00  0.00     0.210 HD
ENDBRANCH   3  22
BRANCH   2  24
HETATM   24  O   UNK N   1      34.367  13.482  12.555  0.00  0.00    -0.390 OA
HETATM   25  H   UNK N   1      33.539  13.496  12.051  0.00  0.00     0.210 HD
ENDBRANCH   2  24
BRANCH   1  26
HETATM   26  C   UNK N   1      34.788  11.604  10.616  0.00  0.00     0.215 C 
BRANCH  26  27
HETATM   27  O   UNK N   1      35.007  11.716   9.243  0.00  0.00    -0.294 OA
BRANCH  27  28
HETATM   28  P   UNK N   1      33.452  11.368   8.549  0.00  0.00     0.390 P 
HETATM   29  O   UNK N   1      33.748  10.081   9.362  0.00  0.00    -0.632 OA
BRANCH  28  30
HETATM   30  O   UNK N   1      32.030  11.211   9.528  0.00  0.00    -0.307 OA
HETATM   31  H   UNK N   1      31.958  11.447  10.466  0.00  0.00     0.222 HD
ENDBRANCH  28  30
BRANCH  28  32
HETATM   32  O   UNK N   1      33.285  12.710   9.644  0.00  0.00    -0.307 OA
HETATM   33  H   UNK N   1      33.133  12.917  10.580  0.00  0.00     0.222 HD
ENDBRANCH  28  32
ENDBRANCH  27  28
ENDBRANCH  26  27
ENDBRANCH   1  26
TORSDOF 9
ENDMDL
MODEL 4
REMARK VINA RESULT:      -6.0      1.899      2.896
REMARK  9 active torsions:
REMARK  status: ('A' for Active; 'I' for Inactive)
REMARK    1  A    between atoms: C_3  and  C_1 
REMARK    2  A    between atoms: O_24  and  C_1 
REMARK    3  A    between atoms: C_9  and  C_5 
REMARK    4  A    between atoms: C_7  and  O_19 
REMARK    5  A    between atoms: C_8  and  O_20 
REMARK    6  A    between atoms: N_11  and  C_10 
REMARK    7  A    between atoms: P_26  and  O_21 
REMARK    8  A    between atoms: P_26  and  O_22 
REMARK    9  A    between atoms: P_26  and  O_24 
ROOT
HETATM    1  C   UNK N   1      34.386  15.738   6.687  0.00  0.00     0.178 C 
HETATM    2  C   UNK N   1      34.004  16.966   5.839  0.00  0.00     0.180 C 
HETATM    3  C   UNK N   1      32.857  16.392   5.066  0.00  0.00     0.184 C 
HETATM    4  C   UNK N   1      32.190  15.505   6.114  0.00  0.00     0.207 C 
HETATM    5  O   UNK N   1      33.249  14.894   6.816  0.00  0.00    -0.367 OA
ENDROOT
BRANCH   4   6
HETATM    6  C   UNK N   1      31.245  16.161   7.104  0.00  0.00     0.086 A 
HETATM    7  C   UNK N   1      29.978  16.656   6.869  0.00  0.00     0.092 A 
HETATM    8  C   UNK N   1      29.586  17.243   8.020  0.00  0.00     0.120 A 
HETATM    9  N   UNK N   1      29.204  16.662   5.757  0.00  0.00    -0.349 N 
HETATM   10  C   UNK N   1      28.357  17.879   8.096  0.00  0.00     0.130 A 
HETATM   11  N   UNK N   1      30.553  17.114   8.947  0.00  0.00    -0.295 N 
HETATM   12  N   UNK N   1      27.565  17.879   6.982  0.00  0.00    -0.337 N 
HETATM   13  C   UNK N   1      27.980  17.273   5.822  0.00  0.00     0.182 A 
ATOM     14  HN  UNK N   1      26.654  18.337   7.012  1.00  0.00     0.168 HD
HETATM   15  N   UNK N   1      31.569  16.458   8.388  0.00  0.00    -0.299 N 
ATOM     16  HN  UNK N   1      30.515  17.458   9.907  1.00  0.00     0.187 HD
HETATM   17  H   UNK N   1      32.417  16.226   8.833  0.00  0.00     0.186 HD
ATOM     18  HN  UNK N   1      29.524  16.222   4.893  1.00  0.00     0.167 HD
BRANCH  10  19
HETATM   19  N   UNK N   1      27.937  18.527   9.275  0.00  0.00    -0.383 N 
HETATM   20  H   UNK N   1      28.243  18.330  10.190  0.00  0.00     0.157 HD
HETATM   21  H   UNK N   1      27.273  19.247   9.174  0.00  0.00     0.157 HD
ENDBRANCH  10  19
ENDBRANCH   4   6
BRANCH   3  22
HETATM   22  O   UNK N   1      32.012  17.354   4.504  0.00  0.00    -0.390 OA
HETATM   23  H   UNK N   1      31.055  17.380   4.347  0.00  0.00     0.210 HD
ENDBRANCH   3  22
BRANCH   2  24
HETATM   24  O   UNK N   1      33.545  18.018   6.643  0.00  0.00    -0.390 OA
HETATM   25  H   UNK N   1      33.095  18.234   7.474  0.00  0.00     0.210 HD
ENDBRANCH   2  24
BRANCH   1  26
HETATM   26  C   UNK N   1      34.868  16.112   8.087  0.00  0.00     0.215 C 
BRANCH  26  27
HETATM   27  O   UNK N   1      34.272  15.342   9.085  0.00  0.00    -0.294 OA
BRANCH  27  28
HETATM   28  P   UNK N   1      34.928  15.997  10.555  0.00  0.00     0.390 P 
HETATM   29  O   UNK N   1      36.205  15.587   9.776  0.00  0.00    -0.632 OA
BRANCH  28  30
HETATM   30  O   UNK N   1      35.858  17.460  10.567  0.00  0.00    -0.307 OA
HETATM   31  H   UNK N   1      36.386  17.803   9.829  0.00  0.00     0.222 HD
ENDBRANCH  28  30
BRANCH  28  32
HETATM   32  O   UNK N   1      34.116  17.270   9.693  0.00  0.00    -0.307 OA
HETATM   33  H   UNK N   1      33.379  17.429   9.081  0.00  0.00     0.222 HD
ENDBRANCH  28  32
ENDBRANCH  27  28
ENDBRANCH  26  27
ENDBRANCH   1  26
TORSDOF 9
ENDMDL
MODEL 5
REMARK VINA RESULT:      -5.9      2.353      3.969
REMARK  9 active torsions:
REMARK  status: ('A' for Active; 'I' for Inactive)
REMARK    1  A    between atoms: C_3  and  C_1 
REMARK    2  A    between atoms: O_24  and  C_1 
REMARK    3  A    between atoms: C_9  and  C_5 
REMARK    4  A    between atoms: C_7  and  O_19 
REMARK    5  A    between atoms: C_8  and  O_20 
REMARK    6  A    between atoms: N_11  and  C_10 
REMARK    7  A    between atoms: P_26  and  O_21 
REMARK    8  A    between atoms: P_26  and  O_22 
REMARK    9  A    between atoms: P_26  and  O_24 
ROOT
HETATM    1  C   UNK N   1      34.401  16.130   6.727  0.00  0.00     0.178 C 
HETATM    2  C   UNK N   1      33.724  15.141   7.695  0.00  0.00     0.180 C 
HETATM    3  C   UNK N   1      33.403  16.073   8.823  0.00  0.00     0.184 C 
HETATM    4  C   UNK N   1      33.019  17.346   8.073  0.00  0.00     0.207 C 
HETATM    5  O   UNK N   1      33.936  17.443   7.006  0.00  0.00    -0.367 OA
ENDROOT
BRANCH   4   6
HETATM    6  C   UNK N   1      31.606  17.452   7.532  0.00  0.00     0.086 A 
HETATM    7  C   UNK N   1      30.440  17.681   8.236  0.00  0.00     0.092 A 
HETATM    8  C   UNK N   1      29.435  17.575   7.342  0.00  0.00     0.120 A 
HETATM    9  N   UNK N   1      30.214  17.921   9.551  0.00  0.00    -0.349 N 
HETATM   10  C   UNK N   1      28.118  17.712   7.752  0.00  0.00     0.130 A 
HETATM   11  N   UNK N   1      29.938  17.306   6.123  0.00  0.00    -0.295 N 
HETATM   12  N   UNK N   1      27.881  17.966   9.074  0.00  0.00    -0.337 N 
HETATM   13  C   UNK N   1      28.919  18.075   9.968  0.00  0.00     0.182 A 
ATOM     14  HN  UNK N   1      26.922  18.075   9.402  1.00  0.00     0.168 HD
HETATM   15  N   UNK N   1      31.264  17.226   6.238  0.00  0.00    -0.299 N 
ATOM     16  HN  UNK N   1      29.401  17.185   5.264  1.00  0.00     0.187 HD
HETATM   17  H   UNK N   1      31.893  17.034   5.505  0.00  0.00     0.186 HD
ATOM     18  HN  UNK N   1      30.988  17.986  10.213  1.00  0.00     0.167 HD
BRANCH  10  19
HETATM   19  N   UNK N   1      27.048  17.574   6.846  0.00  0.00    -0.383 N 
HETATM   20  H   UNK N   1      26.196  18.068   6.869  0.00  0.00     0.157 HD
HETATM   21  H   UNK N   1      27.162  16.922   6.117  0.00  0.00     0.157 HD
ENDBRANCH  10  19
ENDBRANCH   4   6
BRANCH   3  22
HETATM   22  O   UNK N   1      32.417  15.596   9.691  0.00  0.00    -0.390 OA
HETATM   23  H   UNK N   1      32.404  15.430  10.647  0.00  0.00     0.210 HD
ENDBRANCH   3  22
BRANCH   2  24
HETATM   24  O   UNK N   1      32.535  14.634   7.157  0.00  0.00    -0.390 OA
HETATM   25  H   UNK N   1      31.795  14.829   6.561  0.00  0.00     0.210 HD
ENDBRANCH   2  24
BRANCH   1  26
HETATM   26  C   UNK N   1      34.107  15.817   5.261  0.00  0.00     0.215 C 
BRANCH  26  27
HETATM   27  O   UNK N   1      33.597  16.914   4.568  0.00  0.00    -0.294 OA
BRANCH  27  28
HETATM   28  P   UNK N   1      32.718  16.196   3.252  0.00  0.00     0.390 P 
HETATM   29  O   UNK N   1      32.402  15.234   4.427  0.00  0.00    -0.632 OA
BRANCH  28  30
HETATM   30  O   UNK N   1      30.985  16.142   3.235  0.00  0.00    -0.307 OA
HETATM   31  H   UNK N   1      30.416  15.955   3.997  0.00  0.00     0.222 HD
ENDBRANCH  28  30
BRANCH  28  32
HETATM   32  O   UNK N   1      32.032  17.758   3.594  0.00  0.00    -0.307 OA
HETATM   33  H   UNK N   1      32.186  18.706   3.455  0.00  0.00     0.222 HD
ENDBRANCH  28  32
ENDBRANCH  27  28
ENDBRANCH  26  27
ENDBRANCH   1  26
TORSDOF 9
ENDMDL
MODEL 6
REMARK VINA RESULT:      -5.9      4.461      6.768
REMARK  9 active torsions:
REMARK  status: ('A' for Active; 'I' for Inactive)
REMARK    1  A    between atoms: C_3  and  C_1 
REMARK    2  A    between atoms: O_24  and  C_1 
REMARK    3  A    between atoms: C_9  and  C_5 
REMARK    4  A    between atoms: C_7  and  O_19 
REMARK    5  A    between atoms: C_8  and  O_20 
REMARK    6  A    between atoms: N_11  and  C_10 
REMARK    7  A    between atoms: P_26  and  O_21 
REMARK    8  A    between atoms: P_26  and  O_22 
REMARK    9  A    between atoms: P_26  and  O_24 
ROOT
HETATM    1  C   UNK N   1      37.153  14.134  10.240  0.00  0.00     0.178 C 
HETATM    2  C   UNK N   1      36.252  13.112  10.959  0.00  0.00     0.180 C 
HETATM    3  C   UNK N   1      35.711  13.979  12.054  0.00  0.00     0.184 C 
HETATM    4  C   UNK N   1      35.535  15.313  11.333  0.00  0.00     0.207 C 
HETATM    5  O   UNK N   1      36.669  15.444  10.506  0.00  0.00    -0.367 OA
ENDROOT
BRANCH   4   6
HETATM    6  C   UNK N   1      34.281  15.512  10.502  0.00  0.00     0.086 A 
HETATM    7  C   UNK N   1      34.042  16.474   9.541  0.00  0.00     0.092 A 
HETATM    8  C   UNK N   1      32.755  16.318   9.168  0.00  0.00     0.120 A 
HETATM    9  N   UNK N   1      34.829  17.452   9.029  0.00  0.00    -0.349 N 
HETATM   10  C   UNK N   1      32.191  17.172   8.233  0.00  0.00     0.130 A 
HETATM   11  N   UNK N   1      32.204  15.297   9.849  0.00  0.00    -0.295 N 
HETATM   12  N   UNK N   1      32.981  18.155   7.703  0.00  0.00    -0.337 N 
HETATM   13  C   UNK N   1      34.290  18.293   8.092  0.00  0.00     0.182 A 
ATOM     14  HN  UNK N   1      32.592  18.794   7.010  1.00  0.00     0.168 HD
HETATM   15  N   UNK N   1      33.134  14.806  10.669  0.00  0.00    -0.299 N 
ATOM     16  HN  UNK N   1      31.246  14.958   9.756  1.00  0.00     0.187 HD
HETATM   17  H   UNK N   1      33.010  14.054  11.293  0.00  0.00     0.186 HD
ATOM     18  HN  UNK N   1      35.797  17.559   9.333  1.00  0.00     0.167 HD
BRANCH  10  19
HETATM   19  N   UNK N   1      30.840  17.053   7.848  0.00  0.00    -0.383 N 
HETATM   20  H   UNK N   1      30.467  16.384   7.230  0.00  0.00     0.157 HD
HETATM   21  H   UNK N   1      30.208  17.701   8.236  0.00  0.00     0.157 HD
ENDBRANCH  10  19
ENDBRANCH   4   6
BRANCH   3  22
HETATM   22  O   UNK N   1      34.544  13.486  12.645  0.00  0.00    -0.390 OA
HETATM   23  H   UNK N   1      34.268  12.596  12.918  0.00  0.00     0.210 HD
ENDBRANCH   3  22
BRANCH   2  24
HETATM   24  O   UNK N   1      35.201  12.690  10.136  0.00  0.00    -0.390 OA
HETATM   25  H   UNK N   1      34.727  12.872   9.309  0.00  0.00     0.210 HD
ENDBRANCH   2  24
BRANCH   1  26
HETATM   26  C   UNK N   1      37.186  13.932   8.727  0.00  0.00     0.215 C 
BRANCH  26  27
HETATM   27  O   UNK N   1      36.246  14.715   8.058  0.00  0.00    -0.294 OA
BRANCH  27  28
HETATM   28  P   UNK N   1      36.151  13.987   6.483  0.00  0.00     0.390 P 
HETATM   29  O   UNK N   1      35.225  13.073   7.327  0.00  0.00    -0.632 OA
BRANCH  28  30
HETATM   30  O   UNK N   1      34.681  13.992   5.563  0.00  0.00    -0.307 OA
HETATM   31  H   UNK N   1      34.616  13.923   4.597  0.00  0.00     0.222 HD
ENDBRANCH  28  30
BRANCH  28  32
HETATM   32  O   UNK N   1      35.459  15.581   6.402  0.00  0.00    -0.307 OA
HETATM   33  H   UNK N   1      34.742  16.082   5.981  0.00  0.00     0.222 HD
ENDBRANCH  28  32
ENDBRANCH  27  28
ENDBRANCH  26  27
ENDBRANCH   1  26
TORSDOF 9
ENDMDL
MODEL 7
REMARK VINA RESULT:      -5.9      4.116      6.386
REMARK  9 active torsions:
REMARK  status: ('A' for Active; 'I' for Inactive)
REMARK    1  A    between atoms: C_3  and  C_1 
REMARK    2  A    between atoms: O_24  and  C_1 
REMARK    3  A    between atoms: C_9  and  C_5 
REMARK    4  A    between atoms: C_7  and  O_19 
REMARK    5  A    between atoms: C_8  and  O_20 
REMARK    6  A    between atoms: N_11  and  C_10 
REMARK    7  A    between atoms: P_26  and  O_21 
REMARK    8  A    between atoms: P_26  and  O_22 
REMARK    9  A    between atoms: P_26  and  O_24 
ROOT
HETATM    1  C   UNK N   1      35.511  13.812  10.088  0.00  0.00     0.178 C 
HETATM    2  C   UNK N   1      35.085  14.729  11.250  0.00  0.00     0.180 C 
HETATM    3  C   UNK N   1      35.534  16.050  10.707  0.00  0.00     0.184 C 
HETATM    4  C   UNK N   1      35.209  15.901   9.222  0.00  0.00     0.207 C 
HETATM    5  O   UNK N   1      35.569  14.578   8.892  0.00  0.00    -0.367 OA
ENDROOT
BRANCH   4   6
HETATM    6  C   UNK N   1      33.781  16.158   8.778  0.00  0.00     0.086 A 
HETATM    7  C   UNK N   1      33.093  15.563   7.739  0.00  0.00     0.092 A 
HETATM    8  C   UNK N   1      31.905  16.199   7.664  0.00  0.00     0.120 A 
HETATM    9  N   UNK N   1      33.442  14.580   6.874  0.00  0.00    -0.349 N 
HETATM   10  C   UNK N   1      30.991  15.856   6.680  0.00  0.00     0.130 A 
HETATM   11  N   UNK N   1      31.834  17.144   8.620  0.00  0.00    -0.295 N 
HETATM   12  N   UNK N   1      31.330  14.857   5.810  0.00  0.00    -0.337 N 
HETATM   13  C   UNK N   1      32.542  14.220   5.906  0.00  0.00     0.182 A 
ATOM     14  HN  UNK N   1      30.674  14.583   5.079  1.00  0.00     0.168 HD
HETATM   15  N   UNK N   1      32.982  17.123   9.298  0.00  0.00    -0.299 N 
ATOM     16  HN  UNK N   1      31.044  17.765   8.793  1.00  0.00     0.187 HD
HETATM   17  H   UNK N   1      33.212  17.713  10.054  0.00  0.00     0.186 HD
ATOM     18  HN  UNK N   1      34.350  14.120   6.941  1.00  0.00     0.167 HD
BRANCH  10  19
HETATM   19  N   UNK N   1      29.756  16.525   6.558  0.00  0.00    -0.383 N 
HETATM   20  H   UNK N   1      28.863  16.114   6.611  0.00  0.00     0.157 HD
HETATM   21  H   UNK N   1      29.790  17.497   6.407  0.00  0.00     0.157 HD
ENDBRANCH  10  19
ENDBRANCH   4   6
BRANCH   3  22
HETATM   22  O   UNK N   1      34.930  17.151  11.320  0.00  0.00    -0.390 OA
HETATM   23  H   UNK N   1      35.253  17.814  11.951  0.00  0.00     0.210 HD
ENDBRANCH   3  22
BRANCH   2  24
HETATM   24  O   UNK N   1      33.694  14.737  11.409  0.00  0.00    -0.390 OA
HETATM   25  H   UNK N   1      32.976  14.668  12.057  0.00  0.00     0.210 HD
ENDBRANCH   2  24
BRANCH   1  26
HETATM   26  C   UNK N   1      34.546  12.649   9.868  0.00  0.00     0.215 C 
BRANCH  26  27
HETATM   27  O   UNK N   1      34.456  12.270   8.529  0.00  0.00    -0.294 OA
BRANCH  27  28
HETATM   28  P   UNK N   1      33.177  11.093   8.520  0.00  0.00     0.390 P 
HETATM   29  O   UNK N   1      34.163  10.503   9.562  0.00  0.00    -0.632 OA
BRANCH  28  30
HETATM   30  O   UNK N   1      32.157  10.844   9.900  0.00  0.00    -0.307 OA
HETATM   31  H   UNK N   1      32.209  10.096  10.516  0.00  0.00     0.222 HD
ENDBRANCH  28  30
BRANCH  28  32
HETATM   32  O   UNK N   1      32.545  12.598   9.120  0.00  0.00    -0.307 OA
HETATM   33  H   UNK N   1      32.353  13.070   9.946  0.00  0.00     0.222 HD
ENDBRANCH  28  32
ENDBRANCH  27  28
ENDBRANCH  26  27
ENDBRANCH   1  26
TORSDOF 9
ENDMDL
MODEL 8
REMARK VINA RESULT:      -5.8      6.858      9.131
REMARK  9 active torsions:
REMARK  status: ('A' for Active; 'I' for Inactive)
REMARK    1  A    between atoms: C_3  and  C_1 
REMARK    2  A    between atoms: O_24  and  C_1 
REMARK    3  A    between atoms: C_9  and  C_5 
REMARK    4  A    between atoms: C_7  and  O_19 
REMARK    5  A    between atoms: C_8  and  O_20 
REMARK    6  A    between atoms: N_11  and  C_10 
REMARK    7  A    between atoms: P_26  and  O_21 
REMARK    8  A    between atoms: P_26  and  O_22 
REMARK    9  A    between atoms: P_26  and  O_24 
ROOT
HETATM    1  C   UNK N   1      34.841  15.228   9.200  0.00  0.00     0.178 C 
HETATM    2  C   UNK N   1      33.801  14.312   9.874  0.00  0.00     0.180 C 
HETATM    3  C   UNK N   1      34.618  13.065  10.017  0.00  0.00     0.184 C 
HETATM    4  C   UNK N   1      35.994  13.634  10.356  0.00  0.00     0.207 C 
HETATM    5  O   UNK N   1      36.144  14.766   9.528  0.00  0.00    -0.367 OA
ENDROOT
BRANCH   4   6
HETATM    6  C   UNK N   1      36.266  14.026  11.796  0.00  0.00     0.086 A 
HETATM    7  C   UNK N   1      36.372  13.199  12.896  0.00  0.00     0.092 A 
HETATM    8  C   UNK N   1      36.502  14.012  13.965  0.00  0.00     0.120 A 
HETATM    9  N   UNK N   1      36.322  11.850  13.018  0.00  0.00    -0.349 N 
HETATM   10  C   UNK N   1      36.589  13.479  15.242  0.00  0.00     0.130 A 
HETATM   11  N   UNK N   1      36.494  15.296  13.562  0.00  0.00    -0.295 N 
HETATM   12  N   UNK N   1      36.551  12.119  15.373  0.00  0.00    -0.337 N 
HETATM   13  C   UNK N   1      36.423  11.308  14.272  0.00  0.00     0.182 A 
ATOM     14  HN  UNK N   1      36.617  11.701  16.300  1.00  0.00     0.168 HD
HETATM   15  N   UNK N   1      36.346  15.306  12.237  0.00  0.00    -0.299 N 
ATOM     16  HN  UNK N   1      36.586  16.116  14.163  1.00  0.00     0.187 HD
HETATM   17  H   UNK N   1      36.300  16.112  11.671  0.00  0.00     0.186 HD
ATOM     18  HN  UNK N   1      36.212  11.253  12.198  1.00  0.00     0.167 HD
BRANCH  10  19
HETATM   19  N   UNK N   1      36.694  14.307  16.378  0.00  0.00    -0.383 N 
HETATM   20  H   UNK N   1      36.516  15.274  16.414  0.00  0.00     0.157 HD
HETATM   21  H   UNK N   1      36.970  13.875  17.219  0.00  0.00     0.157 HD
ENDBRANCH  10  19
ENDBRANCH   4   6
BRANCH   3  22
HETATM   22  O   UNK N   1      34.120  12.164  10.963  0.00  0.00    -0.390 OA
HETATM   23  H   UNK N   1      34.056  11.196  10.982  0.00  0.00     0.210 HD
ENDBRANCH   3  22
BRANCH   2  24
HETATM   24  O   UNK N   1      33.448  14.787  11.143  0.00  0.00    -0.390 OA
HETATM   25  H   UNK N   1      33.633  14.709  12.092  0.00  0.00     0.210 HD
ENDBRANCH   2  24
BRANCH   1  26
HETATM   26  C   UNK N   1      34.721  16.684   9.643  0.00  0.00     0.215 C 
BRANCH  26  27
HETATM   27  O   UNK N   1      33.799  17.404   8.883  0.00  0.00    -0.294 OA
BRANCH  27  28
HETATM   28  P   UNK N   1      34.173  16.952   7.247  0.00  0.00     0.390 P 
HETATM   29  O   UNK N   1      32.628  17.086   7.210  0.00  0.00    -0.632 OA
BRANCH  28  30
HETATM   30  O   UNK N   1      33.925  18.041   5.921  0.00  0.00    -0.307 OA
HETATM   31  H   UNK N   1      33.737  17.785   5.005  0.00  0.00     0.222 HD
ENDBRANCH  28  30
BRANCH  28  32
HETATM   32  O   UNK N   1      34.874  18.512   7.568  0.00  0.00    -0.307 OA
HETATM   33  H   UNK N   1      35.680  18.931   7.909  0.00  0.00     0.222 HD
ENDBRANCH  28  32
ENDBRANCH  27  28
ENDBRANCH  26  27
ENDBRANCH   1  26
TORSDOF 9
ENDMDL
MODEL 9
REMARK VINA RESULT:      -5.8      4.610      6.919
REMARK  9 active torsions:
REMARK  status: ('A' for Active; 'I' for Inactive)
REMARK    1  A    between atoms: C_3  and  C_1 
REMARK    2  A    between atoms: O_24  and  C_1 
REMARK    3  A    between atoms: C_9  and  C_5 
REMARK    4  A    between atoms: C_7  and  O_19 
REMARK    5  A    between atoms: C_8  and  O_20 
REMARK    6  A    between atoms: N_11  and  C_10 
REMARK    7  A    between atoms: P_26  and  O_21 
REMARK    8  A    between atoms: P_26  and  O_22 
REMARK    9  A    between atoms: P_26  and  O_24 
ROOT
HETATM    1  C   UNK N   1      32.018  17.369   6.814  0.00  0.00     0.178 C 
HETATM    2  C   UNK N   1      32.892  16.273   6.174  0.00  0.00     0.180 C 
HETATM    3  C   UNK N   1      34.242  16.725   6.636  0.00  0.00     0.184 C 
HETATM    4  C   UNK N   1      33.935  17.231   8.043  0.00  0.00     0.207 C 
HETATM    5  O   UNK N   1      32.703  17.909   7.936  0.00  0.00    -0.367 OA
ENDROOT
BRANCH   4   6
HETATM    6  C   UNK N   1      33.849  16.210   9.163  0.00  0.00     0.086 A 
HETATM    7  C   UNK N   1      34.867  15.439   9.690  0.00  0.00     0.092 A 
HETATM    8  C   UNK N   1      34.284  14.607  10.578  0.00  0.00     0.120 A 
HETATM    9  N   UNK N   1      36.195  15.395   9.423  0.00  0.00    -0.349 N 
HETATM   10  C   UNK N   1      35.043  13.665  11.254  0.00  0.00     0.130 A 
HETATM   11  N   UNK N   1      32.960  14.846  10.624  0.00  0.00    -0.295 N 
HETATM   12  N   UNK N   1      36.386  13.621  11.000  0.00  0.00    -0.337 N 
HETATM   13  C   UNK N   1      36.960  14.480  10.096  0.00  0.00     0.182 A 
ATOM     14  HN  UNK N   1      36.968  12.941  11.487  1.00  0.00     0.168 HD
HETATM   15  N   UNK N   1      32.693  15.823   9.757  0.00  0.00    -0.299 N 
ATOM     16  HN  UNK N   1      32.283  14.367  11.218  1.00  0.00     0.187 HD
HETATM   17  H   UNK N   1      31.801  16.201   9.576  0.00  0.00     0.186 HD
ATOM     18  HN  UNK N   1      36.614  16.026   8.739  1.00  0.00     0.167 HD
BRANCH  10  19
HETATM   19  N   UNK N   1      34.456  12.762  12.163  0.00  0.00    -0.383 N 
HETATM   20  H   UNK N   1      34.260  12.935  13.112  0.00  0.00     0.157 HD
HETATM   21  H   UNK N   1      34.217  11.873  11.815  0.00  0.00     0.157 HD
ENDBRANCH  10  19
ENDBRANCH   4   6
BRANCH   3  22
HETATM   22  O   UNK N   1      35.223  15.730   6.584  0.00  0.00    -0.390 OA
HETATM   23  H   UNK N   1      35.569  15.181   5.862  0.00  0.00     0.210 HD
ENDBRANCH   3  22
BRANCH   2  24
HETATM   24  O   UNK N   1      32.609  15.014   6.718  0.00  0.00    -0.390 OA
HETATM   25  H   UNK N   1      32.818  14.406   7.444  0.00  0.00     0.210 HD
ENDBRANCH   2  24
BRANCH   1  26
HETATM   26  C   UNK N   1      30.663  16.846   7.284  0.00  0.00     0.215 C 
BRANCH  26  27
HETATM   27  O   UNK N   1      30.392  17.170   8.613  0.00  0.00    -0.294 OA
BRANCH  27  28
HETATM   28  P   UNK N   1      29.111  18.339   8.498  0.00  0.00     0.390 P 
HETATM   29  O   UNK N   1      28.448  17.062   7.917  0.00  0.00    -0.632 OA
BRANCH  28  30
HETATM   30  O   UNK N   1      27.666  18.205   9.446  0.00  0.00    -0.307 OA
HETATM   31  H   UNK N   1      27.627  18.115  10.411  0.00  0.00     0.222 HD
ENDBRANCH  28  30
BRANCH  28  32
HETATM   32  O   UNK N   1      29.478  18.078  10.178  0.00  0.00    -0.307 OA
HETATM   33  H   UNK N   1      29.523  17.379  10.850  0.00  0.00     0.222 HD
ENDBRANCH  28  32
ENDBRANCH  27  28
ENDBRANCH  26  27
ENDBRANCH   1  26
TORSDOF 9
ENDMDL
