MODEL 1
REMARK VINA RESULT:      -8.3      0.000      0.000
REMARK  14 active torsions:
REMARK  status: ('A' for Active; 'I' for Inactive)
REMARK    1  A    between atoms: C_1  and  N_2 
REMARK    2  A    between atoms: C_7  and  C_12 
REMARK    3  A    between atoms: C_8  and  O_13 
REMARK    4  A    between atoms: C_12  and  O_16 
REMARK    5  A    between atoms: O_16  and  P_18 
REMARK    6  A    between atoms: P_18  and  O_19 
REMARK    7  A    between atoms: P_18  and  O_20 
REMARK    8  A    between atoms: O_19  and  P_22 
REMARK    9  A    between atoms: P_22  and  O_23 
REMARK   10  A    between atoms: P_22  and  O_24 
REMARK   11  A    between atoms: C_26  and  O_23 
REMARK   12  A    between atoms: C_27  and  O_30 
REMARK   13  A    between atoms: C_29  and  O_33 
REMARK   14  A    between atoms: C_32  and  O_35 
ROOT
HETATM    1  P   UNK N   1      34.489  16.768   8.693  0.00  0.00     0.401 P 
HETATM    2  O   UNK N   1      35.136  17.994   9.395  0.00  0.00    -0.631 OA
ENDROOT
BRANCH   1   3
HETATM    3  O   UNK N   1      34.583  17.005   6.965  0.00  0.00    -0.294 OA
BRANCH   3   4
HETATM    4  C   UNK N   1      33.376  17.554   6.523  0.00  0.00     0.215 C 
BRANCH   4   5
HETATM    5  C   UNK N   1      32.809  16.756   5.332  0.00  0.00     0.177 C 
HETATM    6  O   UNK N   1      31.725  17.443   4.744  0.00  0.00    -0.356 OA
HETATM    7  C   UNK N   1      30.548  16.783   5.184  0.00  0.00     0.235 C 
HETATM    8  C   UNK N   1      30.913  15.640   6.118  0.00  0.00     0.088 C 
HETATM    9  C   UNK N   1      32.305  15.368   5.679  0.00  0.00     0.153 C 
BRANCH   7  10
HETATM   10  N   UNK N   1      29.559  17.751   5.700  0.00  0.00    -0.282 N 
HETATM   11  C   UNK N   1      29.356  18.028   7.048  0.00  0.00     0.331 A 
HETATM   12  N   UNK N   1      28.416  18.950   7.423  0.00  0.00    -0.275 N 
HETATM   13  O   UNK N   1      30.008  17.471   7.912  0.00  0.00    -0.246 OA
HETATM   14  C   UNK N   1      27.655  19.603   6.497  0.00  0.00     0.256 A 
HETATM   15  H   UNK N   1      28.285  19.147   8.379  0.00  0.00     0.173 HD
HETATM   16  O   UNK N   1      26.823  20.416   6.861  0.00  0.00    -0.267 OA
HETATM   17  C   UNK N   1      27.839  19.331   5.140  0.00  0.00     0.022 A 
HETATM   18  C   UNK N   1      28.807  18.401   4.767  0.00  0.00     0.110 A 
HETATM   19  C   UNK N   1      27.022  20.008   4.093  0.00  0.00     0.056 C 
ENDBRANCH   7  10
BRANCH   9  20
HETATM   20  O   UNK N   1      33.056  14.749   6.679  0.00  0.00    -0.393 OA
HETATM   21  H   UNK N   1      32.684  14.163   7.356  0.00  0.00     0.210 HD
ENDBRANCH   9  20
ENDBRANCH   4   5
ENDBRANCH   3   4
ENDBRANCH   1   3
BRANCH   1  22
HETATM   22  O   UNK N   1      35.381  15.339   9.174  0.00  0.00    -0.195 OA
BRANCH  22  23
HETATM   23  P   UNK N   1      34.419  14.320  10.231  0.00  0.00     0.404 P 
HETATM   24  O   UNK N   1      33.670  13.383   9.246  0.00  0.00    -0.631 OA
BRANCH  23  25
HETATM   25  O   UNK N   1      35.372  13.196  11.164  0.00  0.00    -0.263 OA
BRANCH  25  26
HETATM   26  C   UNK N   1      35.063  13.319  12.527  0.00  0.00     0.303 C 
HETATM   27  C   UNK N   1      36.342  13.831  13.219  0.00  0.00     0.205 C 
HETATM   28  C   UNK N   1      36.271  13.695  14.734  0.00  0.00     0.183 C 
HETATM   29  C   UNK N   1      35.832  12.288  15.100  0.00  0.00     0.178 C 
HETATM   30  C   UNK N   1      34.503  12.044  14.384  0.00  0.00     0.152 C 
HETATM   31  O   UNK N   1      34.728  12.023  12.992  0.00  0.00    -0.350 OA
HETATM   32  C   UNK N   1      33.924  10.702  14.801  0.00  0.00     0.042 C 
BRANCH  27  33
HETATM   33  O   UNK N   1      36.568  15.166  12.879  0.00  0.00    -0.388 OA
HETATM   34  H   UNK N   1      37.122  15.406  12.119  0.00  0.00     0.210 HD
ENDBRANCH  27  33
BRANCH  28  35
HETATM   35  O   UNK N   1      37.525  13.962  15.287  0.00  0.00    -0.390 OA
HETATM   36  H   UNK N   1      37.618  14.562  16.043  0.00  0.00     0.210 HD
ENDBRANCH  28  35
BRANCH  29  37
HETATM   37  O   UNK N   1      35.687  12.184  16.485  0.00  0.00    -0.390 OA
HETATM   38  H   UNK N   1      35.291  11.560  17.113  0.00  0.00     0.210 HD
ENDBRANCH  29  37
ENDBRANCH  25  26
ENDBRANCH  23  25
BRANCH  23  39
HETATM   39  O   UNK N   1      33.144  15.040  11.163  0.00  0.00    -0.307 OA
HETATM   40  H   UNK N   1      32.261  15.334  10.890  0.00  0.00     0.222 HD
ENDBRANCH  23  39
ENDBRANCH  22  23
ENDBRANCH   1  22
BRANCH   1  41
HETATM   41  O   UNK N   1      32.810  16.779   9.131  0.00  0.00    -0.307 OA
HETATM   42  H   UNK N   1      32.199  16.096   8.807  0.00  0.00     0.222 HD
ENDBRANCH   1  41
TORSDOF 14
ENDMDL
MODEL 2
REMARK VINA RESULT:      -8.2      1.799      2.598
REMARK  14 active torsions:
REMARK  status: ('A' for Active; 'I' for Inactive)
REMARK    1  A    between atoms: C_1  and  N_2 
REMARK    2  A    between atoms: C_7  and  C_12 
REMARK    3  A    between atoms: C_8  and  O_13 
REMARK    4  A    between atoms: C_12  and  O_16 
REMARK    5  A    between atoms: O_16  and  P_18 
REMARK    6  A    between atoms: P_18  and  O_19 
REMARK    7  A    between atoms: P_18  and  O_20 
REMARK    8  A    between atoms: O_19  and  P_22 
REMARK    9  A    between atoms: P_22  and  O_23 
REMARK   10  A    between atoms: P_22  and  O_24 
REMARK   11  A    between atoms: C_26  and  O_23 
REMARK   12  A    between atoms: C_27  and  O_30 
REMARK   13  A    between atoms: C_29  and  O_33 
REMARK   14  A    between atoms: C_32  and  O_35 
ROOT
HETATM    1  P   UNK N   1      34.250  17.757   7.894  0.00  0.00     0.401 P 
HETATM    2  O   UNK N   1      34.187  17.972   6.356  0.00  0.00    -0.631 OA
ENDROOT
BRANCH   1   3
HETATM    3  O   UNK N   1      32.647  17.980   8.552  0.00  0.00    -0.294 OA
BRANCH   3   4
HETATM    4  C   UNK N   1      31.722  17.912   7.507  0.00  0.00     0.215 C 
BRANCH   4   5
HETATM    5  C   UNK N   1      30.786  16.698   7.676  0.00  0.00     0.177 C 
HETATM    6  O   UNK N   1      29.985  16.523   6.527  0.00  0.00    -0.356 OA
HETATM    7  C   UNK N   1      28.695  17.013   6.860  0.00  0.00     0.235 C 
HETATM    8  C   UNK N   1      28.696  17.547   8.285  0.00  0.00     0.088 C 
HETATM    9  C   UNK N   1      29.837  16.787   8.856  0.00  0.00     0.153 C 
BRANCH   7  10
HETATM   10  N   UNK N   1      28.193  17.936   5.823  0.00  0.00    -0.282 N 
HETATM   11  C   UNK N   1      28.040  17.605   4.480  0.00  0.00     0.331 A 
HETATM   12  N   UNK N   1      27.558  18.534   3.597  0.00  0.00    -0.275 N 
HETATM   13  O   UNK N   1      28.316  16.494   4.068  0.00  0.00    -0.246 OA
HETATM   14  C   UNK N   1      27.233  19.796   4.004  0.00  0.00     0.256 A 
HETATM   15  H   UNK N   1      27.444  18.288   2.650  0.00  0.00     0.173 HD
HETATM   16  O   UNK N   1      26.811  20.603   3.194  0.00  0.00    -0.267 OA
HETATM   17  C   UNK N   1      27.390  20.148   5.345  0.00  0.00     0.022 A 
HETATM   18  C   UNK N   1      27.868  19.193   6.239  0.00  0.00     0.110 A 
HETATM   19  C   UNK N   1      27.062  21.519   5.833  0.00  0.00     0.056 C 
ENDBRANCH   7  10
BRANCH   9  20
HETATM   20  O   UNK N   1      30.396  17.435   9.958  0.00  0.00    -0.393 OA
HETATM   21  H   UNK N   1      31.348  17.567  10.087  0.00  0.00     0.210 HD
ENDBRANCH   9  20
ENDBRANCH   4   5
ENDBRANCH   3   4
ENDBRANCH   1   3
BRANCH   1  22
HETATM   22  O   UNK N   1      34.821  16.126   8.186  0.00  0.00    -0.195 OA
BRANCH  22  23
HETATM   23  P   UNK N   1      34.814  15.753   9.901  0.00  0.00     0.404 P 
HETATM   24  O   UNK N   1      33.376  15.222  10.149  0.00  0.00    -0.631 OA
BRANCH  23  25
HETATM   25  O   UNK N   1      35.798  14.372  10.312  0.00  0.00    -0.263 OA
BRANCH  25  26
HETATM   26  C   UNK N   1      35.324  13.779  11.492  0.00  0.00     0.303 C 
HETATM   27  C   UNK N   1      36.441  13.943  12.541  0.00  0.00     0.205 C 
HETATM   28  C   UNK N   1      36.218  13.062  13.764  0.00  0.00     0.183 C 
HETATM   29  C   UNK N   1      35.923  11.640  13.320  0.00  0.00     0.178 C 
HETATM   30  C   UNK N   1      34.725  11.716  12.373  0.00  0.00     0.152 C 
HETATM   31  O   UNK N   1      35.106  12.408  11.204  0.00  0.00    -0.350 OA
HETATM   32  C   UNK N   1      34.279  10.317  11.982  0.00  0.00     0.042 C 
BRANCH  27  33
HETATM   33  O   UNK N   1      36.532  15.278  12.937  0.00  0.00    -0.388 OA
HETATM   34  H   UNK N   1      36.105  15.986  12.429  0.00  0.00     0.210 HD
ENDBRANCH  27  33
BRANCH  28  35
HETATM   35  O   UNK N   1      37.357  13.084  14.570  0.00  0.00    -0.390 OA
HETATM   36  H   UNK N   1      37.383  13.614  15.381  0.00  0.00     0.210 HD
ENDBRANCH  28  35
BRANCH  29  37
HETATM   37  O   UNK N   1      35.637  10.848  14.434  0.00  0.00    -0.390 OA
HETATM   38  H   UNK N   1      36.045  10.658  15.294  0.00  0.00     0.210 HD
ENDBRANCH  29  37
ENDBRANCH  25  26
ENDBRANCH  23  25
BRANCH  23  39
HETATM   39  O   UNK N   1      34.977  17.047  11.045  0.00  0.00    -0.307 OA
HETATM   40  H   UNK N   1      35.711  17.263  11.642  0.00  0.00     0.222 HD
ENDBRANCH  23  39
ENDBRANCH  22  23
ENDBRANCH   1  22
BRANCH   1  41
HETATM   41  O   UNK N   1      35.256  19.021   8.528  0.00  0.00    -0.307 OA
HETATM   42  H   UNK N   1      35.020  19.492   9.344  0.00  0.00     0.222 HD
ENDBRANCH   1  41
TORSDOF 14
ENDMDL
MODEL 3
REMARK VINA RESULT:      -8.0      3.271      9.362
REMARK  14 active torsions:
REMARK  status: ('A' for Active; 'I' for Inactive)
REMARK    1  A    between atoms: C_1  and  N_2 
REMARK    2  A    between atoms: C_7  and  C_12 
REMARK    3  A    between atoms: C_8  and  O_13 
REMARK    4  A    between atoms: C_12  and  O_16 
REMARK    5  A    between atoms: O_16  and  P_18 
REMARK    6  A    between atoms: P_18  and  O_19 
REMARK    7  A    between atoms: P_18  and  O_20 
REMARK    8  A    between atoms: O_19  and  P_22 
REMARK    9  A    between atoms: P_22  and  O_23 
REMARK   10  A    between atoms: P_22  and  O_24 
REMARK   11  A    between atoms: C_26  and  O_23 
REMARK   12  A    between atoms: C_27  and  O_30 
REMARK   13  A    between atoms: C_29  and  O_33 
REMARK   14  A    between atoms: C_32  and  O_35 
ROOT
HETATM    1  P   UNK N   1      30.985  13.876   4.639  0.00  0.00     0.401 P 
HETATM    2  O   UNK N   1      31.138  12.358   4.932  0.00  0.00    -0.631 OA
ENDROOT
BRANCH   1   3
HETATM    3  O   UNK N   1      32.548  14.517   4.195  0.00  0.00    -0.294 OA
BRANCH   3   4
HETATM    4  C   UNK N   1      33.336  14.609   5.346  0.00  0.00     0.215 C 
BRANCH   4   5
HETATM    5  C   UNK N   1      34.164  15.910   5.345  0.00  0.00     0.177 C 
HETATM    6  O   UNK N   1      35.112  15.897   6.391  0.00  0.00    -0.356 OA
HETATM    7  C   UNK N   1      34.595  16.741   7.409  0.00  0.00     0.235 C 
HETATM    8  C   UNK N   1      33.241  17.291   6.988  0.00  0.00     0.088 C 
HETATM    9  C   UNK N   1      33.353  17.181   5.511  0.00  0.00     0.153 C 
BRANCH   7  10
HETATM   10  N   UNK N   1      34.644  16.076   8.726  0.00  0.00    -0.282 N 
HETATM   11  C   UNK N   1      35.038  16.695   9.908  0.00  0.00     0.331 A 
HETATM   12  N   UNK N   1      35.041  15.990  11.082  0.00  0.00    -0.275 N 
HETATM   13  O   UNK N   1      35.374  17.864   9.927  0.00  0.00    -0.246 OA
HETATM   14  C   UNK N   1      34.674  14.675  11.119  0.00  0.00     0.256 A 
HETATM   15  H   UNK N   1      35.313  16.439  11.915  0.00  0.00     0.173 HD
HETATM   16  O   UNK N   1      34.692  14.072  12.178  0.00  0.00    -0.267 OA
HETATM   17  C   UNK N   1      34.286  14.036   9.941  0.00  0.00     0.022 A 
HETATM   18  C   UNK N   1      34.272  14.765   8.754  0.00  0.00     0.110 A 
HETATM   19  C   UNK N   1      33.891  12.598   9.931  0.00  0.00     0.056 C 
ENDBRANCH   7  10
BRANCH   9  20
HETATM   20  O   UNK N   1      32.102  17.114   4.897  0.00  0.00    -0.393 OA
HETATM   21  H   UNK N   1      31.476  17.853   4.853  0.00  0.00     0.210 HD
ENDBRANCH   9  20
ENDBRANCH   4   5
ENDBRANCH   3   4
ENDBRANCH   1   3
BRANCH   1  22
HETATM   22  O   UNK N   1      29.842  14.056   3.323  0.00  0.00    -0.195 OA
BRANCH  22  23
HETATM   23  P   UNK N   1      29.114  15.653   3.333  0.00  0.00     0.404 P 
HETATM   24  O   UNK N   1      27.900  15.503   2.377  0.00  0.00    -0.631 OA
BRANCH  23  25
HETATM   25  O   UNK N   1      28.349  16.055   4.848  0.00  0.00    -0.263 OA
BRANCH  25  26
HETATM   26  C   UNK N   1      28.551  17.412   5.143  0.00  0.00     0.303 C 
HETATM   27  C   UNK N   1      28.229  17.585   6.640  0.00  0.00     0.205 C 
HETATM   28  C   UNK N   1      28.075  19.049   7.031  0.00  0.00     0.183 C 
HETATM   29  C   UNK N   1      27.132  19.739   6.061  0.00  0.00     0.178 C 
HETATM   30  C   UNK N   1      27.706  19.520   4.661  0.00  0.00     0.152 C 
HETATM   31  O   UNK N   1      27.637  18.146   4.347  0.00  0.00    -0.350 OA
HETATM   32  C   UNK N   1      26.891  20.292   3.636  0.00  0.00     0.042 C 
BRANCH  27  33
HETATM   33  O   UNK N   1      29.229  16.996   7.416  0.00  0.00    -0.388 OA
HETATM   34  H   UNK N   1      30.033  16.634   7.012  0.00  0.00     0.210 HD
ENDBRANCH  27  33
BRANCH  28  35
HETATM   35  O   UNK N   1      27.570  19.136   8.330  0.00  0.00    -0.390 OA
HETATM   36  H   UNK N   1      28.058  19.607   9.023  0.00  0.00     0.210 HD
ENDBRANCH  28  35
BRANCH  29  37
HETATM   37  O   UNK N   1      27.053  21.100   6.368  0.00  0.00    -0.390 OA
HETATM   38  H   UNK N   1      27.076  21.940   5.883  0.00  0.00     0.210 HD
ENDBRANCH  29  37
ENDBRANCH  25  26
ENDBRANCH  23  25
BRANCH  23  39
HETATM   39  O   UNK N   1      30.001  16.987   2.664  0.00  0.00    -0.307 OA
HETATM   40  H   UNK N   1      30.681  17.549   3.068  0.00  0.00     0.222 HD
ENDBRANCH  23  39
ENDBRANCH  22  23
ENDBRANCH   1  22
BRANCH   1  41
HETATM   41  O   UNK N   1      30.519  14.623   6.135  0.00  0.00    -0.307 OA
HETATM   42  H   UNK N   1      30.357  14.095   6.933  0.00  0.00     0.222 HD
ENDBRANCH   1  41
TORSDOF 14
ENDMDL
MODEL 4
REMARK VINA RESULT:      -7.9      5.867      9.300
REMARK  14 active torsions:
REMARK  status: ('A' for Active; 'I' for Inactive)
REMARK    1  A    between atoms: C_1  and  N_2 
REMARK    2  A    between atoms: C_7  and  C_12 
REMARK    3  A    between atoms: C_8  and  O_13 
REMARK    4  A    between atoms: C_12  and  O_16 
REMARK    5  A    between atoms: O_16  and  P_18 
REMARK    6  A    between atoms: P_18  and  O_19 
REMARK    7  A    between atoms: P_18  and  O_20 
REMARK    8  A    between atoms: O_19  and  P_22 
REMARK    9  A    between atoms: P_22  and  O_23 
REMARK   10  A    between atoms: P_22  and  O_24 
REMARK   11  A    between atoms: C_26  and  O_23 
REMARK   12  A    between atoms: C_27  and  O_30 
REMARK   13  A    between atoms: C_29  and  O_33 
REMARK   14  A    between atoms: C_32  and  O_35 
ROOT
HETATM    1  P   UNK N   1      26.708  14.717   3.545  0.00  0.00     0.401 P 
HETATM    2  O   UNK N   1      27.736  13.580   3.289  0.00  0.00    -0.631 OA
ENDROOT
BRANCH   1   3
HETATM    3  O   UNK N   1      25.109  14.016   3.604  0.00  0.00    -0.294 OA
BRANCH   3   4
HETATM    4  C   UNK N   1      24.168  15.040   3.463  0.00  0.00     0.215 C 
BRANCH   4   5
HETATM    5  C   UNK N   1      22.958  14.809   4.390  0.00  0.00     0.177 C 
HETATM    6  O   UNK N   1      21.834  15.528   3.928  0.00  0.00    -0.356 OA
HETATM    7  C   UNK N   1      21.710  16.662   4.772  0.00  0.00     0.235 C 
HETATM    8  C   UNK N   1      22.832  16.668   5.799  0.00  0.00     0.088 C 
HETATM    9  C   UNK N   1      23.174  15.223   5.833  0.00  0.00     0.153 C 
BRANCH   7  10
HETATM   10  N   UNK N   1      21.551  17.898   3.980  0.00  0.00    -0.282 N 
HETATM   11  C   UNK N   1      20.362  18.302   3.380  0.00  0.00     0.331 A 
HETATM   12  N   UNK N   1      20.317  19.473   2.670  0.00  0.00    -0.275 N 
HETATM   13  O   UNK N   1      19.347  17.639   3.480  0.00  0.00    -0.246 OA
HETATM   14  C   UNK N   1      21.426  20.256   2.525  0.00  0.00     0.256 A 
HETATM   15  H   UNK N   1      19.470  19.756   2.257  0.00  0.00     0.173 HD
HETATM   16  O   UNK N   1      21.357  21.290   1.884  0.00  0.00    -0.267 OA
HETATM   17  C   UNK N   1      22.629  19.861   3.112  0.00  0.00     0.022 A 
HETATM   18  C   UNK N   1      22.662  18.675   3.844  0.00  0.00     0.110 A 
HETATM   19  C   UNK N   1      23.869  20.676   2.968  0.00  0.00     0.056 C 
ENDBRANCH   7  10
BRANCH   9  20
HETATM   20  O   UNK N   1      24.480  15.006   6.273  0.00  0.00    -0.393 OA
HETATM   21  H   UNK N   1      25.099  15.713   6.511  0.00  0.00     0.210 HD
ENDBRANCH   9  20
ENDBRANCH   4   5
ENDBRANCH   3   4
ENDBRANCH   1   3
BRANCH   1  22
HETATM   22  O   UNK N   1      27.113  15.473   5.073  0.00  0.00    -0.195 OA
BRANCH  22  23
HETATM   23  P   UNK N   1      27.365  17.198   4.876  0.00  0.00     0.404 P 
HETATM   24  O   UNK N   1      26.006  17.702   4.321  0.00  0.00    -0.631 OA
BRANCH  23  25
HETATM   25  O   UNK N   1      27.492  18.057   6.389  0.00  0.00    -0.263 OA
BRANCH  25  26
HETATM   26  C   UNK N   1      28.424  17.423   7.224  0.00  0.00     0.303 C 
HETATM   27  C   UNK N   1      28.518  18.280   8.502  0.00  0.00     0.205 C 
HETATM   28  C   UNK N   1      29.726  17.913   9.355  0.00  0.00     0.183 C 
HETATM   29  C   UNK N   1      30.970  17.873   8.485  0.00  0.00     0.178 C 
HETATM   30  C   UNK N   1      30.680  16.890   7.350  0.00  0.00     0.152 C 
HETATM   31  O   UNK N   1      29.662  17.420   6.532  0.00  0.00    -0.350 OA
HETATM   32  C   UNK N   1      31.926  16.689   6.503  0.00  0.00     0.042 C 
BRANCH  27  33
HETATM   33  O   UNK N   1      27.353  18.142   9.257  0.00  0.00    -0.388 OA
HETATM   34  H   UNK N   1      26.537  17.792   8.866  0.00  0.00     0.210 HD
ENDBRANCH  27  33
BRANCH  28  35
HETATM   35  O   UNK N   1      29.885  18.857  10.371  0.00  0.00    -0.390 OA
HETATM   36  H   UNK N   1      29.119  19.326  10.739  0.00  0.00     0.210 HD
ENDBRANCH  28  35
BRANCH  29  37
HETATM   37  O   UNK N   1      32.065  17.457   9.248  0.00  0.00    -0.390 OA
HETATM   38  H   UNK N   1      32.273  16.727   9.852  0.00  0.00     0.210 HD
ENDBRANCH  29  37
ENDBRANCH  25  26
ENDBRANCH  23  25
BRANCH  23  39
HETATM   39  O   UNK N   1      28.518  17.753   3.702  0.00  0.00    -0.307 OA
HETATM   40  H   UNK N   1      28.795  18.655   3.477  0.00  0.00     0.222 HD
ENDBRANCH  23  39
ENDBRANCH  22  23
ENDBRANCH   1  22
BRANCH   1  41
HETATM   41  O   UNK N   1      26.770  15.760   2.159  0.00  0.00    -0.307 OA
HETATM   42  H   UNK N   1      25.963  16.137   1.776  0.00  0.00     0.222 HD
ENDBRANCH   1  41
TORSDOF 14
ENDMDL
MODEL 5
REMARK VINA RESULT:      -7.9      3.685     10.278
REMARK  14 active torsions:
REMARK  status: ('A' for Active; 'I' for Inactive)
REMARK    1  A    between atoms: C_1  and  N_2 
REMARK    2  A    between atoms: C_7  and  C_12 
REMARK    3  A    between atoms: C_8  and  O_13 
REMARK    4  A    between atoms: C_12  and  O_16 
REMARK    5  A    between atoms: O_16  and  P_18 
REMARK    6  A    between atoms: P_18  and  O_19 
REMARK    7  A    between atoms: P_18  and  O_20 
REMARK    8  A    between atoms: O_19  and  P_22 
REMARK    9  A    between atoms: P_22  and  O_23 
REMARK   10  A    between atoms: P_22  and  O_24 
REMARK   11  A    between atoms: C_26  and  O_23 
REMARK   12  A    between atoms: C_27  and  O_30 
REMARK   13  A    between atoms: C_29  and  O_33 
REMARK   14  A    between atoms: C_32  and  O_35 
ROOT
HETATM    1  P   UNK N   1      34.006  14.605   9.764  0.00  0.00     0.401 P 
HETATM    2  O   UNK N   1      33.205  13.777   8.722  0.00  0.00    -0.631 OA
ENDROOT
BRANCH   1   3
HETATM    3  O   UNK N   1      35.295  13.608  10.395  0.00  0.00    -0.294 OA
BRANCH   3   4
HETATM    4  C   UNK N   1      35.192  13.574  11.788  0.00  0.00     0.215 C 
BRANCH   4   5
HETATM    5  C   UNK N   1      35.219  12.124  12.309  0.00  0.00     0.177 C 
HETATM    6  O   UNK N   1      34.794  12.070  13.654  0.00  0.00    -0.356 OA
HETATM    7  C   UNK N   1      35.967  11.911  14.438  0.00  0.00     0.235 C 
HETATM    8  C   UNK N   1      37.193  11.891  13.537  0.00  0.00     0.088 C 
HETATM    9  C   UNK N   1      36.579  11.454  12.257  0.00  0.00     0.153 C 
BRANCH   7  10
HETATM   10  N   UNK N   1      35.997  12.881  15.551  0.00  0.00    -0.282 N 
HETATM   11  C   UNK N   1      35.333  12.712  16.762  0.00  0.00     0.331 A 
HETATM   12  N   UNK N   1      35.431  13.670  17.735  0.00  0.00    -0.275 N 
HETATM   13  O   UNK N   1      34.668  11.718  16.984  0.00  0.00    -0.246 OA
HETATM   14  C   UNK N   1      36.163  14.806  17.540  0.00  0.00     0.256 A 
HETATM   15  H   UNK N   1      34.966  13.538  18.593  0.00  0.00     0.173 HD
HETATM   16  O   UNK N   1      36.228  15.643  18.423  0.00  0.00    -0.267 OA
HETATM   17  C   UNK N   1      36.828  14.996  16.328  0.00  0.00     0.022 A 
HETATM   18  C   UNK N   1      36.733  14.010  15.348  0.00  0.00     0.110 A 
HETATM   19  C   UNK N   1      37.627  16.227  16.063  0.00  0.00     0.056 C 
ENDBRANCH   7  10
BRANCH   9  20
HETATM   20  O   UNK N   1      37.338  11.846  11.154  0.00  0.00    -0.393 OA
HETATM   21  H   UNK N   1      37.089  12.560  10.547  0.00  0.00     0.210 HD
ENDBRANCH   9  20
ENDBRANCH   4   5
ENDBRANCH   3   4
ENDBRANCH   1   3
BRANCH   1  22
HETATM   22  O   UNK N   1      34.653  16.014   8.948  0.00  0.00    -0.195 OA
BRANCH  22  23
HETATM   23  P   UNK N   1      33.373  16.952   8.198  0.00  0.00     0.404 P 
HETATM   24  O   UNK N   1      33.347  16.427   6.738  0.00  0.00    -0.631 OA
BRANCH  23  25
HETATM   25  O   UNK N   1      31.780  16.534   8.774  0.00  0.00    -0.263 OA
BRANCH  25  26
HETATM   26  C   UNK N   1      30.809  17.253   8.063  0.00  0.00     0.303 C 
HETATM   27  C   UNK N   1      29.712  17.626   9.080  0.00  0.00     0.205 C 
HETATM   28  C   UNK N   1      28.437  18.111   8.402  0.00  0.00     0.183 C 
HETATM   29  C   UNK N   1      28.034  17.130   7.315  0.00  0.00     0.178 C 
HETATM   30  C   UNK N   1      29.234  16.997   6.376  0.00  0.00     0.152 C 
HETATM   31  O   UNK N   1      30.294  16.380   7.071  0.00  0.00    -0.350 OA
HETATM   32  C   UNK N   1      28.869  16.131   5.182  0.00  0.00     0.042 C 
BRANCH  27  33
HETATM   33  O   UNK N   1      30.182  18.610   9.951  0.00  0.00    -0.388 OA
HETATM   34  H   UNK N   1      29.973  19.547   9.813  0.00  0.00     0.210 HD
ENDBRANCH  27  33
BRANCH  28  35
HETATM   35  O   UNK N   1      27.417  18.220   9.348  0.00  0.00    -0.390 OA
HETATM   36  H   UNK N   1      26.746  17.526   9.440  0.00  0.00     0.210 HD
ENDBRANCH  28  35
BRANCH  29  37
HETATM   37  O   UNK N   1      26.912  17.613   6.637  0.00  0.00    -0.390 OA
HETATM   38  H   UNK N   1      26.652  18.432   6.187  0.00  0.00     0.210 HD
ENDBRANCH  29  37
ENDBRANCH  25  26
ENDBRANCH  23  25
BRANCH  23  39
HETATM   39  O   UNK N   1      33.582  18.666   8.016  0.00  0.00    -0.307 OA
HETATM   40  H   UNK N   1      32.940  19.349   7.764  0.00  0.00     0.222 HD
ENDBRANCH  23  39
ENDBRANCH  22  23
ENDBRANCH   1  22
BRANCH   1  41
HETATM   41  O   UNK N   1      32.916  14.939  11.073  0.00  0.00    -0.307 OA
HETATM   42  H   UNK N   1      32.743  14.282  11.765  0.00  0.00     0.222 HD
ENDBRANCH   1  41
TORSDOF 14
ENDMDL
MODEL 6
REMARK VINA RESULT:      -7.8      3.769      8.080
REMARK  14 active torsions:
REMARK  status: ('A' for Active; 'I' for Inactive)
REMARK    1  A    between atoms: C_1  and  N_2 
REMARK    2  A    between atoms: C_7  and  C_12 
REMARK    3  A    between atoms: C_8  and  O_13 
REMARK    4  A    between atoms: C_12  and  O_16 
REMARK    5  A    between atoms: O_16  and  P_18 
REMARK    6  A    between atoms: P_18  and  O_19 
REMARK    7  A    between atoms: P_18  and  O_20 
REMARK    8  A    between atoms: O_19  and  P_22 
REMARK    9  A    between atoms: P_22  and  O_23 
REMARK   10  A    between atoms: P_22  and  O_24 
REMARK   11  A    between atoms: C_26  and  O_23 
REMARK   12  A    between atoms: C_27  and  O_30 
REMARK   13  A    between atoms: C_29  and  O_33 
REMARK   14  A    between atoms: C_32  and  O_35 
ROOT
HETATM    1  P   UNK N   1      33.299  14.734   3.864  0.00  0.00     0.401 P 
HETATM    2  O   UNK N   1      33.670  15.168   2.419  0.00  0.00    -0.631 OA
ENDROOT
BRANCH   1   3
HETATM    3  O   UNK N   1      33.576  13.016   4.016  0.00  0.00    -0.294 OA
BRANCH   3   4
HETATM    4  C   UNK N   1      34.098  12.759   5.287  0.00  0.00     0.215 C 
BRANCH   4   5
HETATM    5  C   UNK N   1      33.012  12.194   6.225  0.00  0.00     0.177 C 
HETATM    6  O   UNK N   1      32.710  13.119   7.249  0.00  0.00    -0.356 OA
HETATM    7  C   UNK N   1      33.354  12.641   8.421  0.00  0.00     0.235 C 
HETATM    8  C   UNK N   1      34.120  11.366   8.108  0.00  0.00     0.088 C 
HETATM    9  C   UNK N   1      33.378  10.892   6.911  0.00  0.00     0.153 C 
BRANCH   7  10
HETATM   10  N   UNK N   1      34.124  13.716   9.078  0.00  0.00    -0.282 N 
HETATM   11  C   UNK N   1      33.559  14.831   9.689  0.00  0.00     0.331 A 
HETATM   12  N   UNK N   1      34.364  15.769  10.278  0.00  0.00    -0.275 N 
HETATM   13  O   UNK N   1      32.353  14.990   9.722  0.00  0.00    -0.246 OA
HETATM   14  C   UNK N   1      35.723  15.643  10.271  0.00  0.00     0.256 A 
HETATM   15  H   UNK N   1      33.955  16.551  10.717  0.00  0.00     0.173 HD
HETATM   16  O   UNK N   1      36.413  16.496  10.799  0.00  0.00    -0.267 OA
HETATM   17  C   UNK N   1      36.307  14.535   9.653  0.00  0.00     0.022 A 
HETATM   18  C   UNK N   1      35.480  13.579   9.068  0.00  0.00     0.110 A 
HETATM   19  C   UNK N   1      37.787  14.361   9.607  0.00  0.00     0.056 C 
ENDBRANCH   7  10
BRANCH   9  20
HETATM   20  O   UNK N   1      34.157  10.055   6.111  0.00  0.00    -0.393 OA
HETATM   21  H   UNK N   1      35.010  10.308   5.727  0.00  0.00     0.210 HD
ENDBRANCH   9  20
ENDBRANCH   4   5
ENDBRANCH   3   4
ENDBRANCH   1   3
BRANCH   1  22
HETATM   22  O   UNK N   1      34.319  15.629   4.972  0.00  0.00    -0.195 OA
BRANCH  22  23
HETATM   23  P   UNK N   1      33.414  16.896   5.780  0.00  0.00     0.404 P 
HETATM   24  O   UNK N   1      32.785  17.696   4.607  0.00  0.00    -0.631 OA
BRANCH  23  25
HETATM   25  O   UNK N   1      32.007  16.309   6.628  0.00  0.00    -0.263 OA
BRANCH  25  26
HETATM   26  C   UNK N   1      31.149  17.376   6.933  0.00  0.00     0.303 C 
HETATM   27  C   UNK N   1      31.112  17.479   8.471  0.00  0.00     0.205 C 
HETATM   28  C   UNK N   1      29.973  18.363   8.962  0.00  0.00     0.183 C 
HETATM   29  C   UNK N   1      28.677  17.944   8.290  0.00  0.00     0.178 C 
HETATM   30  C   UNK N   1      28.923  18.016   6.782  0.00  0.00     0.152 C 
HETATM   31  O   UNK N   1      29.871  17.035   6.424  0.00  0.00    -0.350 OA
HETATM   32  C   UNK N   1      27.632  17.739   6.029  0.00  0.00     0.042 C 
BRANCH  27  33
HETATM   33  O   UNK N   1      32.327  17.974   8.947  0.00  0.00    -0.388 OA
HETATM   34  H   UNK N   1      32.544  18.918   8.890  0.00  0.00     0.210 HD
ENDBRANCH  27  33
BRANCH  28  35
HETATM   35  O   UNK N   1      29.851  18.242  10.348  0.00  0.00    -0.390 OA
HETATM   36  H   UNK N   1      30.620  18.363  10.927  0.00  0.00     0.210 HD
ENDBRANCH  28  35
BRANCH  29  37
HETATM   37  O   UNK N   1      27.647  18.805   8.676  0.00  0.00    -0.390 OA
HETATM   38  H   UNK N   1      27.439  19.368   9.439  0.00  0.00     0.210 HD
ENDBRANCH  29  37
ENDBRANCH  25  26
ENDBRANCH  23  25
BRANCH  23  39
HETATM   39  O   UNK N   1      34.275  18.102   6.684  0.00  0.00    -0.307 OA
HETATM   40  H   UNK N   1      34.735  18.034   7.536  0.00  0.00     0.222 HD
ENDBRANCH  23  39
ENDBRANCH  22  23
ENDBRANCH   1  22
BRANCH   1  41
HETATM   41  O   UNK N   1      31.594  15.006   4.038  0.00  0.00    -0.307 OA
HETATM   42  H   UNK N   1      30.953  14.288   3.910  0.00  0.00     0.222 HD
ENDBRANCH   1  41
TORSDOF 14
ENDMDL
MODEL 7
REMARK VINA RESULT:      -7.8      3.312     10.165
REMARK  14 active torsions:
REMARK  status: ('A' for Active; 'I' for Inactive)
REMARK    1  A    between atoms: C_1  and  N_2 
REMARK    2  A    between atoms: C_7  and  C_12 
REMARK    3  A    between atoms: C_8  and  O_13 
REMARK    4  A    between atoms: C_12  and  O_16 
REMARK    5  A    between atoms: O_16  and  P_18 
REMARK    6  A    between atoms: P_18  and  O_19 
REMARK    7  A    between atoms: P_18  and  O_20 
REMARK    8  A    between atoms: O_19  and  P_22 
REMARK    9  A    between atoms: P_22  and  O_23 
REMARK   10  A    between atoms: P_22  and  O_24 
REMARK   11  A    between atoms: C_26  and  O_23 
REMARK   12  A    between atoms: C_27  and  O_30 
REMARK   13  A    between atoms: C_29  and  O_33 
REMARK   14  A    between atoms: C_32  and  O_35 
ROOT
HETATM    1  P   UNK N   1      33.082  13.851   8.726  0.00  0.00     0.401 P 
HETATM    2  O   UNK N   1      32.515  12.405   8.727  0.00  0.00    -0.631 OA
ENDROOT
BRANCH   1   3
HETATM    3  O   UNK N   1      34.826  13.764   8.766  0.00  0.00    -0.294 OA
BRANCH   3   4
HETATM    4  C   UNK N   1      35.226  13.406  10.057  0.00  0.00     0.215 C 
BRANCH   4   5
HETATM    5  C   UNK N   1      36.408  14.275  10.530  0.00  0.00     0.177 C 
HETATM    6  O   UNK N   1      37.032  13.695  11.656  0.00  0.00    -0.356 OA
HETATM    7  C   UNK N   1      36.598  14.443  12.782  0.00  0.00     0.235 C 
HETATM    8  C   UNK N   1      35.631  15.531  12.341  0.00  0.00     0.088 C 
HETATM    9  C   UNK N   1      36.038  15.693  10.922  0.00  0.00     0.153 C 
BRANCH   7  10
HETATM   10  N   UNK N   1      36.122  13.552  13.860  0.00  0.00    -0.282 N 
HETATM   11  C   UNK N   1      36.554  13.613  15.181  0.00  0.00     0.331 A 
HETATM   12  N   UNK N   1      36.044  12.743  16.108  0.00  0.00    -0.275 N 
HETATM   13  O   UNK N   1      37.375  14.436  15.540  0.00  0.00    -0.246 OA
HETATM   14  C   UNK N   1      35.121  11.799  15.761  0.00  0.00     0.256 A 
HETATM   15  H   UNK N   1      36.348  12.800  17.043  0.00  0.00     0.173 HD
HETATM   16  O   UNK N   1      34.689  11.036  16.607  0.00  0.00    -0.267 OA
HETATM   17  C   UNK N   1      34.685  11.717  14.438  0.00  0.00     0.022 A 
HETATM   18  C   UNK N   1      35.199  12.615  13.505  0.00  0.00     0.110 A 
HETATM   19  C   UNK N   1      33.690  10.693  14.009  0.00  0.00     0.056 C 
ENDBRANCH   7  10
BRANCH   9  20
HETATM   20  O   UNK N   1      35.010  16.224  10.141  0.00  0.00    -0.393 OA
HETATM   21  H   UNK N   1      35.061  17.075   9.679  0.00  0.00     0.210 HD
ENDBRANCH   9  20
ENDBRANCH   4   5
ENDBRANCH   3   4
ENDBRANCH   1   3
BRANCH   1  22
HETATM   22  O   UNK N   1      32.532  14.643   7.263  0.00  0.00    -0.195 OA
BRANCH  22  23
HETATM   23  P   UNK N   1      32.689  16.386   7.392  0.00  0.00     0.404 P 
HETATM   24  O   UNK N   1      34.206  16.631   7.172  0.00  0.00    -0.631 OA
BRANCH  23  25
HETATM   25  O   UNK N   1      31.975  17.246   6.052  0.00  0.00    -0.263 OA
BRANCH  25  26
HETATM   26  C   UNK N   1      30.583  17.073   6.057  0.00  0.00     0.303 C 
HETATM   27  C   UNK N   1      30.044  17.840   4.834  0.00  0.00     0.205 C 
HETATM   28  C   UNK N   1      28.533  18.027   4.890  0.00  0.00     0.183 C 
HETATM   29  C   UNK N   1      28.139  18.578   6.249  0.00  0.00     0.178 C 
HETATM   30  C   UNK N   1      28.691  17.606   7.293  0.00  0.00     0.152 C 
HETATM   31  O   UNK N   1      30.101  17.648   7.260  0.00  0.00    -0.350 OA
HETATM   32  C   UNK N   1      28.228  18.013   8.682  0.00  0.00     0.042 C 
BRANCH  27  33
HETATM   33  O   UNK N   1      30.388  17.168   3.659  0.00  0.00    -0.388 OA
HETATM   34  H   UNK N   1      31.128  16.541   3.635  0.00  0.00     0.210 HD
ENDBRANCH  27  33
BRANCH  28  35
HETATM   35  O   UNK N   1      28.134  18.909   3.884  0.00  0.00    -0.390 OA
HETATM   36  H   UNK N   1      27.728  18.581   3.067  0.00  0.00     0.210 HD
ENDBRANCH  28  35
BRANCH  29  37
HETATM   37  O   UNK N   1      26.748  18.674   6.333  0.00  0.00    -0.390 OA
HETATM   38  H   UNK N   1      25.996  18.640   5.722  0.00  0.00     0.210 HD
ENDBRANCH  29  37
ENDBRANCH  25  26
ENDBRANCH  23  25
BRANCH  23  39
HETATM   39  O   UNK N   1      32.366  17.151   8.916  0.00  0.00    -0.307 OA
HETATM   40  H   UNK N   1      32.417  16.794   9.817  0.00  0.00     0.222 HD
ENDBRANCH  23  39
ENDBRANCH  22  23
ENDBRANCH   1  22
BRANCH   1  41
HETATM   41  O   UNK N   1      32.561  14.586  10.210  0.00  0.00    -0.307 OA
HETATM   42  H   UNK N   1      32.383  14.053  11.001  0.00  0.00     0.222 HD
ENDBRANCH   1  41
TORSDOF 14
ENDMDL
MODEL 8
REMARK VINA RESULT:      -7.7      4.077     10.446
REMARK  14 active torsions:
REMARK  status: ('A' for Active; 'I' for Inactive)
REMARK    1  A    between atoms: C_1  and  N_2 
REMARK    2  A    between atoms: C_7  and  C_12 
REMARK    3  A    between atoms: C_8  and  O_13 
REMARK    4  A    between atoms: C_12  and  O_16 
REMARK    5  A    between atoms: O_16  and  P_18 
REMARK    6  A    between atoms: P_18  and  O_19 
REMARK    7  A    between atoms: P_18  and  O_20 
REMARK    8  A    between atoms: O_19  and  P_22 
REMARK    9  A    between atoms: P_22  and  O_23 
REMARK   10  A    between atoms: P_22  and  O_24 
REMARK   11  A    between atoms: C_26  and  O_23 
REMARK   12  A    between atoms: C_27  and  O_30 
REMARK   13  A    between atoms: C_29  and  O_33 
REMARK   14  A    between atoms: C_32  and  O_35 
ROOT
HETATM    1  P   UNK N   1      34.523  14.168  10.054  0.00  0.00     0.401 P 
HETATM    2  O   UNK N   1      33.630  13.626   8.903  0.00  0.00    -0.631 OA
ENDROOT
BRANCH   1   3
HETATM    3  O   UNK N   1      35.471  12.847  10.691  0.00  0.00    -0.294 OA
BRANCH   3   4
HETATM    4  C   UNK N   1      35.562  12.992  12.078  0.00  0.00     0.215 C 
BRANCH   4   5
HETATM    5  C   UNK N   1      35.560  11.618  12.778  0.00  0.00     0.177 C 
HETATM    6  O   UNK N   1      35.045  11.728  14.088  0.00  0.00    -0.356 OA
HETATM    7  C   UNK N   1      36.162  11.684  14.962  0.00  0.00     0.235 C 
HETATM    8  C   UNK N   1      37.447  11.567  14.155  0.00  0.00     0.088 C 
HETATM    9  C   UNK N   1      36.923  10.965  12.902  0.00  0.00     0.153 C 
BRANCH   7  10
HETATM   10  N   UNK N   1      36.112  12.786  15.944  0.00  0.00    -0.282 N 
HETATM   11  C   UNK N   1      35.433  12.730  17.157  0.00  0.00     0.331 A 
HETATM   12  N   UNK N   1      35.455  13.807  18.003  0.00  0.00    -0.275 N 
HETATM   13  O   UNK N   1      34.823  11.733  17.494  0.00  0.00    -0.246 OA
HETATM   14  C   UNK N   1      36.123  14.951  17.676  0.00  0.00     0.256 A 
HETATM   15  H   UNK N   1      34.979  13.755  18.864  0.00  0.00     0.173 HD
HETATM   16  O   UNK N   1      36.120  15.895  18.446  0.00  0.00    -0.267 OA
HETATM   17  C   UNK N   1      36.800  15.028  16.458  0.00  0.00     0.022 A 
HETATM   18  C   UNK N   1      36.785  13.923  15.610  0.00  0.00     0.110 A 
HETATM   19  C   UNK N   1      37.531  16.262  16.051  0.00  0.00     0.056 C 
ENDBRANCH   7  10
BRANCH   9  20
HETATM   20  O   UNK N   1      37.754  11.225  11.812  0.00  0.00    -0.393 OA
HETATM   21  H   UNK N   1      37.544  11.855  11.105  0.00  0.00     0.210 HD
ENDBRANCH   9  20
ENDBRANCH   4   5
ENDBRANCH   3   4
ENDBRANCH   1   3
BRANCH   1  22
HETATM   22  O   UNK N   1      35.561  15.413   9.387  0.00  0.00    -0.195 OA
BRANCH  22  23
HETATM   23  P   UNK N   1      34.625  16.803   8.866  0.00  0.00     0.404 P 
HETATM   24  O   UNK N   1      35.316  17.994   9.584  0.00  0.00    -0.631 OA
BRANCH  23  25
HETATM   25  O   UNK N   1      34.852  17.199   7.183  0.00  0.00    -0.263 OA
BRANCH  25  26
HETATM   26  C   UNK N   1      34.012  16.407   6.386  0.00  0.00     0.303 C 
HETATM   27  C   UNK N   1      34.925  15.401   5.657  0.00  0.00     0.205 C 
HETATM   28  C   UNK N   1      34.210  14.700   4.509  0.00  0.00     0.183 C 
HETATM   29  C   UNK N   1      33.522  15.732   3.633  0.00  0.00     0.178 C 
HETATM   30  C   UNK N   1      32.600  16.539   4.548  0.00  0.00     0.152 C 
HETATM   31  O   UNK N   1      33.386  17.276   5.457  0.00  0.00    -0.350 OA
HETATM   32  C   UNK N   1      31.770  17.511   3.726  0.00  0.00     0.042 C 
BRANCH  27  33
HETATM   33  O   UNK N   1      35.404  14.450   6.560  0.00  0.00    -0.388 OA
HETATM   34  H   UNK N   1      36.260  14.561   7.003  0.00  0.00     0.210 HD
ENDBRANCH  27  33
BRANCH  28  35
HETATM   35  O   UNK N   1      35.136  13.976   3.756  0.00  0.00    -0.390 OA
HETATM   36  H   UNK N   1      34.938  13.713   2.843  0.00  0.00     0.210 HD
ENDBRANCH  28  35
BRANCH  29  37
HETATM   37  O   UNK N   1      32.798  15.087   2.626  0.00  0.00    -0.390 OA
HETATM   38  H   UNK N   1      32.128  14.388   2.570  0.00  0.00     0.210 HD
ENDBRANCH  29  37
ENDBRANCH  25  26
ENDBRANCH  23  25
BRANCH  23  39
HETATM   39  O   UNK N   1      32.965  16.934   9.359  0.00  0.00    -0.307 OA
HETATM   40  H   UNK N   1      32.271  17.540   9.058  0.00  0.00     0.222 HD
ENDBRANCH  23  39
ENDBRANCH  22  23
ENDBRANCH   1  22
BRANCH   1  41
HETATM   41  O   UNK N   1      33.446  14.693  11.309  0.00  0.00    -0.307 OA
HETATM   42  H   UNK N   1      33.061  14.062  11.939  0.00  0.00     0.222 HD
ENDBRANCH   1  41
TORSDOF 14
ENDMDL
MODEL 9
REMARK VINA RESULT:      -7.7      9.045     11.614
REMARK  14 active torsions:
REMARK  status: ('A' for Active; 'I' for Inactive)
REMARK    1  A    between atoms: C_1  and  N_2 
REMARK    2  A    between atoms: C_7  and  C_12 
REMARK    3  A    between atoms: C_8  and  O_13 
REMARK    4  A    between atoms: C_12  and  O_16 
REMARK    5  A    between atoms: O_16  and  P_18 
REMARK    6  A    between atoms: P_18  and  O_19 
REMARK    7  A    between atoms: P_18  and  O_20 
REMARK    8  A    between atoms: O_19  and  P_22 
REMARK    9  A    between atoms: P_22  and  O_23 
REMARK   10  A    between atoms: P_22  and  O_24 
REMARK   11  A    between atoms: C_26  and  O_23 
REMARK   12  A    between atoms: C_27  and  O_30 
REMARK   13  A    between atoms: C_29  and  O_33 
REMARK   14  A    between atoms: C_32  and  O_35 
ROOT
HETATM    1  P   UNK N   1      20.465  16.799   3.997  0.00  0.00     0.401 P 
HETATM    2  O   UNK N   1      21.534  17.926   3.964  0.00  0.00    -0.631 OA
ENDROOT
BRANCH   1   3
HETATM    3  O   UNK N   1      21.203  15.318   3.434  0.00  0.00    -0.294 OA
BRANCH   3   4
HETATM    4  C   UNK N   1      22.413  15.632   2.810  0.00  0.00     0.215 C 
BRANCH   4   5
HETATM    5  C   UNK N   1      23.526  14.656   3.242  0.00  0.00     0.177 C 
HETATM    6  O   UNK N   1      24.240  15.174   4.345  0.00  0.00    -0.356 OA
HETATM    7  C   UNK N   1      25.470  15.662   3.831  0.00  0.00     0.235 C 
HETATM    8  C   UNK N   1      25.517  15.464   2.323  0.00  0.00     0.088 C 
HETATM    9  C   UNK N   1      24.552  14.345   2.169  0.00  0.00     0.153 C 
BRANCH   7  10
HETATM   10  N   UNK N   1      25.741  17.031   4.313  0.00  0.00    -0.282 N 
HETATM   11  C   UNK N   1      26.416  17.333   5.492  0.00  0.00     0.331 A 
HETATM   12  N   UNK N   1      26.622  18.639   5.846  0.00  0.00    -0.275 N 
HETATM   13  O   UNK N   1      26.842  16.455   6.218  0.00  0.00    -0.246 OA
HETATM   14  C   UNK N   1      26.166  19.665   5.070  0.00  0.00     0.256 A 
HETATM   15  H   UNK N   1      27.109  18.844   6.678  0.00  0.00     0.173 HD
HETATM   16  O   UNK N   1      26.361  20.818   5.414  0.00  0.00    -0.267 OA
HETATM   17  C   UNK N   1      25.478  19.380   3.889  0.00  0.00     0.022 A 
HETATM   18  C   UNK N   1      25.285  18.048   3.529  0.00  0.00     0.110 A 
HETATM   19  C   UNK N   1      24.948  20.467   3.016  0.00  0.00     0.056 C 
ENDBRANCH   7  10
BRANCH   9  20
HETATM   20  O   UNK N   1      24.003  14.302   0.887  0.00  0.00    -0.393 OA
HETATM   21  H   UNK N   1      23.682  13.494   0.459  0.00  0.00     0.210 HD
ENDBRANCH   9  20
ENDBRANCH   4   5
ENDBRANCH   3   4
ENDBRANCH   1   3
BRANCH   1  22
HETATM   22  O   UNK N   1      19.915  16.629   5.652  0.00  0.00    -0.195 OA
BRANCH  22  23
HETATM   23  P   UNK N   1      21.216  16.945   6.786  0.00  0.00     0.404 P 
HETATM   24  O   UNK N   1      21.041  18.448   7.129  0.00  0.00    -0.631 OA
BRANCH  23  25
HETATM   25  O   UNK N   1      20.985  16.179   8.336  0.00  0.00    -0.263 OA
BRANCH  25  26
HETATM   26  C   UNK N   1      21.175  14.794   8.221  0.00  0.00     0.303 C 
HETATM   27  C   UNK N   1      20.814  14.189   9.592  0.00  0.00     0.205 C 
HETATM   28  C   UNK N   1      21.288  12.748   9.729  0.00  0.00     0.183 C 
HETATM   29  C   UNK N   1      22.748  12.651   9.321  0.00  0.00     0.178 C 
HETATM   30  C   UNK N   1      22.843  13.211   7.901  0.00  0.00     0.152 C 
HETATM   31  O   UNK N   1      22.548  14.590   7.931  0.00  0.00    -0.350 OA
HETATM   32  C   UNK N   1      24.253  13.030   7.363  0.00  0.00     0.042 C 
BRANCH  27  33
HETATM   33  O   UNK N   1      19.434  14.249   9.792  0.00  0.00    -0.388 OA
HETATM   34  H   UNK N   1      19.053  14.728  10.545  0.00  0.00     0.210 HD
ENDBRANCH  27  33
BRANCH  28  35
HETATM   35  O   UNK N   1      21.135  12.329  11.053  0.00  0.00    -0.390 OA
HETATM   36  H   UNK N   1      21.569  12.804  11.778  0.00  0.00     0.210 HD
ENDBRANCH  28  35
BRANCH  29  37
HETATM   37  O   UNK N   1      23.162  11.318   9.368  0.00  0.00    -0.390 OA
HETATM   38  H   UNK N   1      23.933  10.824   9.691  0.00  0.00     0.210 HD
ENDBRANCH  29  37
ENDBRANCH  25  26
ENDBRANCH  23  25
BRANCH  23  39
HETATM   39  O   UNK N   1      22.858  16.838   6.234  0.00  0.00    -0.307 OA
HETATM   40  H   UNK N   1      23.253  17.112   5.391  0.00  0.00     0.222 HD
ENDBRANCH  23  39
ENDBRANCH  22  23
ENDBRANCH   1  22
BRANCH   1  41
HETATM   41  O   UNK N   1      19.243  17.243   2.849  0.00  0.00    -0.307 OA
HETATM   42  H   UNK N   1      18.997  16.652   2.119  0.00  0.00     0.222 HD
ENDBRANCH   1  41
TORSDOF 14
ENDMDL
