REMARK  17 active torsions:
REMARK  status: ('A' for Active; 'I' for Inactive)
REMARK    1  A    between atoms: C_12  and  C_6 
REMARK    2  A    between atoms: O_41  and  C_6 
REMARK    3  A    between atoms: C_13  and  C_7 
REMARK    4  A    between atoms: O_42  and  C_7 
REMARK    5  A    between atoms: C_11  and  C_10 
REMARK    6  A    between atoms: C_15  and  O_33 
REMARK    7  A    between atoms: C_16  and  O_34 
REMARK    8  A    between atoms: C_17  and  O_35 
REMARK    9  A    between atoms: C_18  and  O_36 
REMARK   10  A    between atoms: N_23  and  C_19 
REMARK   11  A    between atoms: C_21  and  N_30 
REMARK   12  A    between atoms: C_22  and  N_31 
REMARK   13  A    between atoms: P_46  and  O_38 
REMARK   14  A    between atoms: P_46  and  O_41 
REMARK   15  A    between atoms: P_47  and  O_42 
REMARK   16  A    between atoms: P_46  and  O_45 
REMARK   17  A    between atoms: P_47  and  O_45 
ROOT
HETATM    1  O   UNK N   1      -2.886  -2.544  -1.643  0.00  0.00    -0.624 OA
HETATM    2  O   UNK N   1      -2.700  -0.258  -0.373  0.00  0.00    -0.624 OA
HETATM    3  P   UNK N   1      -2.839  -1.983  -0.197  0.00  0.00     0.417 P 
ENDROOT
BRANCH   3   4
HETATM    4  O   UNK N   1      -1.444  -2.690   0.595  0.00  0.00    -0.287 OA
BRANCH   4   5
HETATM    5  C   UNK N   1      -0.780  -1.629   1.217  0.00  0.00     0.216 C 
BRANCH   5   6
HETATM    6  C   UNK N   1       0.245  -1.016   0.268  0.00  0.00     0.180 C 
HETATM    7  C   UNK N   1       1.620  -1.675   0.292  0.00  0.00     0.182 C 
HETATM    8  C   UNK N   1       2.550  -0.512  -0.087  0.00  0.00     0.198 C 
HETATM    9  C   UNK N   1       1.544   0.632  -0.301  0.00  0.00     0.262 C 
HETATM   10  O   UNK N   1       0.483   0.335   0.577  0.00  0.00    -0.353 OA
BRANCH   7  11
HETATM   11  O   UNK N   1       1.693  -2.750  -0.596  0.00  0.00    -0.390 OA
HETATM   12  H   UNK N   1       1.071  -3.168  -1.212  0.00  0.00     0.210 HD
ENDBRANCH   7  11
BRANCH   8  13
HETATM   13  O   UNK N   1       3.358  -0.246   1.023  0.00  0.00    -0.388 OA
HETATM   14  H   UNK N   1       3.798  -0.638   1.793  0.00  0.00     0.210 HD
ENDBRANCH   8  13
BRANCH   9  15
HETATM   15  N   UNK N   1       2.017   2.010  -0.117  0.00  0.00    -0.297 N 
HETATM   16  C   UNK N   1       1.182   3.082  -0.037  0.00  0.00     0.188 A 
HETATM   17  N   UNK N   1       1.871   4.248   0.091  0.00  0.00    -0.346 N 
HETATM   18  C   UNK N   1       3.162   3.874   0.068  0.00  0.00     0.122 A 
ATOM     19  HN  UNK N   1       1.494   5.191   0.184  1.00  0.00     0.167 HD
HETATM   20  C   UNK N   1       4.305   4.651   0.128  0.00  0.00     0.131 A 
HETATM   21  C   UNK N   1       3.252   2.534  -0.056  0.00  0.00     0.142 A 
HETATM   22  N   UNK N   1       5.513   4.018   0.052  0.00  0.00    -0.337 N 
HETATM   23  C   UNK N   1       5.586   2.653  -0.085  0.00  0.00     0.183 A 
ATOM     24  HN  UNK N   1       6.372   4.567   0.096  1.00  0.00     0.168 HD
HETATM   25  N   UNK N   1       4.446   1.898  -0.145  0.00  0.00    -0.336 N 
ATOM     26  HN  UNK N   1       4.493   0.885  -0.254  1.00  0.00     0.168 HD
BRANCH  20  27
HETATM   27  N   UNK N   1       4.232   6.053   0.250  0.00  0.00    -0.383 N 
HETATM   28  H   UNK N   1       5.055   6.587   0.335  0.00  0.00     0.157 HD
HETATM   29  H   UNK N   1       3.356   6.501   0.250  0.00  0.00     0.157 HD
ENDBRANCH  20  27
ENDBRANCH   9  15
ENDBRANCH   5   6
ENDBRANCH   4   5
ENDBRANCH   3   4
BRANCH   3  30
HETATM   30  O   UNK N   1      -4.357  -2.375   0.557  0.00  0.00    -0.188 OA
BRANCH  30  31
HETATM   31  P   UNK N   1      -4.247  -4.016   1.128  0.00  0.00     0.402 P 
HETATM   32  O   UNK N   1      -3.768  -3.942   2.602  0.00  0.00    -0.631 OA
BRANCH  31  33
HETATM   33  O   UNK N   1      -5.822  -4.747   1.181  0.00  0.00    -0.307 OA
HETATM   34  H   UNK N   1      -6.615  -4.190   1.211  0.00  0.00     0.222 HD
ENDBRANCH  31  33
BRANCH  31  35
HETATM   35  O   UNK N   1      -3.090  -5.012   0.283  0.00  0.00    -0.294 OA
BRANCH  35  36
HETATM   36  C   UNK N   1      -3.757  -5.529  -0.830  0.00  0.00     0.215 C 
BRANCH  36  37
HETATM   37  C   UNK N   1      -3.617  -7.052  -0.894  0.00  0.00     0.180 C 
HETATM   38  C   UNK N   1      -4.414  -7.829   0.160  0.00  0.00     0.182 C 
HETATM   39  C   UNK N   1      -3.586  -9.098   0.321  0.00  0.00     0.198 C 
HETATM   40  C   UNK N   1      -2.420  -8.876  -0.644  0.00  0.00     0.259 C 
HETATM   41  O   UNK N   1      -2.279  -7.475  -0.767  0.00  0.00    -0.353 OA
BRANCH  38  42
HETATM   42  O   UNK N   1      -4.411  -7.159   1.387  0.00  0.00    -0.390 OA
HETATM   43  H   UNK N   1      -4.008  -6.928   2.238  0.00  0.00     0.210 HD
ENDBRANCH  38  42
BRANCH  39  44
HETATM   44  O   UNK N   1      -4.307 -10.249  -0.010  0.00  0.00    -0.388 OA
HETATM   45  H   UNK N   1      -5.249 -10.214  -0.240  0.00  0.00     0.210 HD
ENDBRANCH  39  44
BRANCH  40  46
HETATM   46  N   UNK N   1      -1.175  -9.533  -0.217  0.00  0.00    -0.336 N 
HETATM   47  C   UNK N   1      -1.171 -10.880   0.011  0.00  0.00     0.093 A 
HETATM   48  C   UNK N   1       0.010 -11.542   0.348  0.00  0.00     0.018 A 
HETATM   49  C   UNK N   1       1.202 -10.824   0.412  0.00  0.00     0.018 A 
HETATM   50  C   UNK N   1       1.202  -9.447   0.165  0.00  0.00     0.025 A 
HETATM   51  C   UNK N   1      -0.013  -8.817  -0.138  0.00  0.00     0.108 A 
BRANCH  50  52
HETATM   52  C   UNK N   1       2.465  -8.677   0.169  0.00  0.00     0.157 C 
HETATM   53  C   UNK N   1       3.777  -9.359   0.389  0.00  0.00     0.097 C 
HETATM   54  O   UNK N   1       2.451  -7.474  -0.043  0.00  0.00    -0.293 OA
ENDBRANCH  50  52
ENDBRANCH  40  46
ENDBRANCH  36  37
ENDBRANCH  35  36
ENDBRANCH  31  35
ENDBRANCH  30  31
ENDBRANCH   3  30
TORSDOF 17
