MODEL 1
REMARK VINA RESULT:      -7.9      0.000      0.000
REMARK  22 active torsions:
REMARK  status: ('A' for Active; 'I' for Inactive)
REMARK    1  A    between atoms: C_7  and  C_3 
REMARK    2  A    between atoms: O_27  and  C_3 
REMARK    3  A    between atoms: C_9  and  C_4 
REMARK    4  A    between atoms: O_28  and  C_4 
REMARK    5  A    between atoms: C_10  and  C_5 
REMARK    6  A    between atoms: O_40  and  C_5 
REMARK    7  A    between atoms: C_8  and  N_26 
REMARK    8  A    between atoms: C_11  and  N_26 
REMARK    9  A    between atoms: C_12  and  O_29 
REMARK   10  A    between atoms: C_13  and  O_30 
REMARK   11  A    between atoms: C_14  and  O_31 
REMARK   12  A    between atoms: C_15  and  O_32 
REMARK   13  A    between atoms: C_16  and  O_33 
REMARK   14  A    between atoms: C_17  and  O_34 
REMARK   15  A    between atoms: C_18  and  O_35 
REMARK   16  A    between atoms: C_19  and  O_36 
REMARK   17  A    between atoms: C_20  and  O_37 
REMARK   18  A    between atoms: C_21  and  O_38 
REMARK   19  A    between atoms: C_22  and  O_44 
REMARK   20  A    between atoms: C_23  and  O_39 
REMARK   21  A    between atoms: C_24  and  O_40 
REMARK   22  A    between atoms: C_25  and  O_44 
ROOT
HETATM    1  C   UNK N   1      34.493  16.484   7.738  0.00  0.00     0.180 C 
HETATM    2  C   UNK N   1      33.257  14.367   7.223  0.00  0.00     0.183 C 
HETATM    3  C   UNK N   1      32.927  14.921   5.811  0.00  0.00     0.204 C 
HETATM    4  C   UNK N   1      33.339  15.512   8.226  0.00  0.00     0.187 C 
HETATM    5  C   UNK N   1      33.530  16.332   5.574  0.00  0.00     0.291 C 
HETATM    6  O   UNK N   1      34.722  16.477   6.324  0.00  0.00    -0.348 OA
ENDROOT
BRANCH   4   7
HETATM    7  O   UNK N   1      33.362  15.013   9.588  0.00  0.00    -0.348 OA
BRANCH   7   8
HETATM    8  C   UNK N   1      34.584  14.555  10.169  0.00  0.00     0.292 C 
HETATM    9  C   UNK N   1      34.912  15.275  11.486  0.00  0.00     0.204 C 
HETATM   10  C   UNK N   1      36.192  14.690  12.074  0.00  0.00     0.176 C 
HETATM   11  C   UNK N   1      35.962  13.197  12.359  0.00  0.00     0.137 C 
HETATM   12  C   UNK N   1      35.547  12.489  11.021  0.00  0.00     0.145 C 
HETATM   13  C   UNK N   1      34.844  11.184  11.322  0.00  0.00     0.042 C 
HETATM   14  O   UNK N   1      34.575  13.149  10.245  0.00  0.00    -0.352 OA
BRANCH   9  15
HETATM   15  O   UNK N   1      35.075  16.643  11.239  0.00  0.00    -0.388 OA
HETATM   16  H   UNK N   1      35.463  17.254  11.884  0.00  0.00     0.210 HD
ENDBRANCH   9  15
BRANCH  10  17
HETATM   17  O   UNK N   1      36.503  15.361  13.263  0.00  0.00    -0.391 OA
HETATM   18  H   UNK N   1      37.263  15.751  13.722  0.00  0.00     0.210 HD
ENDBRANCH  10  17
BRANCH  11  19
HETATM   19  N   UNK N   1      37.158  12.696  13.102  0.00  0.00    -0.402 N 
HETATM   20  H   UNK N   1      38.027  12.648  12.570  0.00  0.00     0.154 HD
BRANCH  19  21
HETATM   21  C   UNK N   1      37.235  12.262  14.519  0.00  0.00     0.132 C 
HETATM   22  C   UNK N   1      36.448  13.109  15.481  0.00  0.00     0.008 C 
HETATM   23  C   UNK N   1      35.711  12.604  16.489  0.00  0.00    -0.027 C 
HETATM   24  C   UNK N   1      35.690  11.118  16.791  0.00  0.00     0.180 C 
HETATM   25  C   UNK N   1      36.889  10.387  16.149  0.00  0.00     0.182 C 
HETATM   26  C   UNK N   1      36.995  10.739  14.663  0.00  0.00     0.175 C 
BRANCH  23  27
HETATM   27  C   UNK N   1      34.785  13.535  17.215  0.00  0.00     0.201 C 
BRANCH  27  28
HETATM   28  O   UNK N   1      35.308  13.891  18.456  0.00  0.00    -0.397 OA
HETATM   29  H   UNK N   1      34.888  13.633  19.291  0.00  0.00     0.209 HD
ENDBRANCH  27  28
ENDBRANCH  23  27
BRANCH  24  30
HETATM   30  O   UNK N   1      35.736  10.909  18.171  0.00  0.00    -0.388 OA
HETATM   31  H   UNK N   1      35.940  10.029  18.523  0.00  0.00     0.210 HD
ENDBRANCH  24  30
BRANCH  25  32
HETATM   32  O   UNK N   1      36.752   9.008  16.315  0.00  0.00    -0.390 OA
HETATM   33  H   UNK N   1      37.149   8.271  16.806  0.00  0.00     0.210 HD
ENDBRANCH  25  32
BRANCH  26  34
HETATM   34  O   UNK N   1      35.835  10.327  14.008  0.00  0.00    -0.391 OA
HETATM   35  H   UNK N   1      35.002  10.564  13.572  0.00  0.00     0.210 HD
ENDBRANCH  26  34
ENDBRANCH  19  21
ENDBRANCH  11  19
ENDBRANCH   7   8
ENDBRANCH   4   7
BRANCH   1  36
HETATM   36  C   UNK N   1      34.319  17.944   8.214  0.00  0.00     0.198 C 
BRANCH  36  37
HETATM   37  O   UNK N   1      33.213  18.139   9.045  0.00  0.00    -0.398 OA
HETATM   38  H   UNK N   1      32.324  18.189   9.429  0.00  0.00     0.209 HD
ENDBRANCH  36  37
ENDBRANCH   1  36
BRANCH   2  39
HETATM   39  O   UNK N   1      32.297  13.422   7.593  0.00  0.00    -0.390 OA
HETATM   40  H   UNK N   1      31.745  12.818   7.075  0.00  0.00     0.210 HD
ENDBRANCH   2  39
BRANCH   3  41
HETATM   41  O   UNK N   1      33.423  14.016   4.868  0.00  0.00    -0.388 OA
HETATM   42  H   UNK N   1      33.271  13.166   4.425  0.00  0.00     0.210 HD
ENDBRANCH   3  41
BRANCH   5  43
HETATM   43  O   UNK N   1      32.603  17.368   5.870  0.00  0.00    -0.356 OA
BRANCH  43  44
HETATM   44  C   UNK N   1      31.317  16.819   5.687  0.00  0.00     0.205 C 
BRANCH  44  45
HETATM   45  C   UNK N   1      30.217  17.533   6.449  0.00  0.00     0.180 C 
HETATM   46  C   UNK N   1      28.969  16.621   6.390  0.00  0.00     0.180 C 
HETATM   47  C   UNK N   1      27.855  17.210   7.254  0.00  0.00     0.183 C 
HETATM   48  C   UNK N   1      28.406  17.427   8.665  0.00  0.00     0.204 C 
HETATM   49  C   UNK N   1      29.650  18.328   8.573  0.00  0.00     0.288 C 
HETATM   50  O   UNK N   1      30.656  17.714   7.785  0.00  0.00    -0.349 OA
BRANCH  46  51
HETATM   51  O   UNK N   1      28.525  16.486   5.071  0.00  0.00    -0.390 OA
HETATM   52  H   UNK N   1      28.170  15.669   4.687  0.00  0.00     0.210 HD
ENDBRANCH  46  51
BRANCH  47  53
HETATM   53  O   UNK N   1      26.763  16.339   7.289  0.00  0.00    -0.390 OA
HETATM   54  H   UNK N   1      26.804  15.416   6.993  0.00  0.00     0.210 HD
ENDBRANCH  47  53
BRANCH  48  55
HETATM   55  O   UNK N   1      27.432  18.025   9.470  0.00  0.00    -0.388 OA
HETATM   56  H   UNK N   1      27.235  18.974   9.476  0.00  0.00     0.210 HD
ENDBRANCH  48  55
BRANCH  49  57
HETATM   57  O   UNK N   1      30.160  18.534   9.855  0.00  0.00    -0.369 OA
HETATM   58  H   UNK N   1      29.734  18.207  10.663  0.00  0.00     0.212 HD
ENDBRANCH  49  57
ENDBRANCH  44  45
ENDBRANCH  43  44
ENDBRANCH   5  43
TORSDOF 22
ENDMDL
MODEL 2
REMARK VINA RESULT:      -7.8      5.329     10.132
REMARK  22 active torsions:
REMARK  status: ('A' for Active; 'I' for Inactive)
REMARK    1  A    between atoms: C_7  and  C_3 
REMARK    2  A    between atoms: O_27  and  C_3 
REMARK    3  A    between atoms: C_9  and  C_4 
REMARK    4  A    between atoms: O_28  and  C_4 
REMARK    5  A    between atoms: C_10  and  C_5 
REMARK    6  A    between atoms: O_40  and  C_5 
REMARK    7  A    between atoms: C_8  and  N_26 
REMARK    8  A    between atoms: C_11  and  N_26 
REMARK    9  A    between atoms: C_12  and  O_29 
REMARK   10  A    between atoms: C_13  and  O_30 
REMARK   11  A    between atoms: C_14  and  O_31 
REMARK   12  A    between atoms: C_15  and  O_32 
REMARK   13  A    between atoms: C_16  and  O_33 
REMARK   14  A    between atoms: C_17  and  O_34 
REMARK   15  A    between atoms: C_18  and  O_35 
REMARK   16  A    between atoms: C_19  and  O_36 
REMARK   17  A    between atoms: C_20  and  O_37 
REMARK   18  A    between atoms: C_21  and  O_38 
REMARK   19  A    between atoms: C_22  and  O_44 
REMARK   20  A    between atoms: C_23  and  O_39 
REMARK   21  A    between atoms: C_24  and  O_40 
REMARK   22  A    between atoms: C_25  and  O_44 
ROOT
HETATM    1  C   UNK N   1      25.213  14.547   3.111  0.00  0.00     0.180 C 
HETATM    2  C   UNK N   1      24.771  15.474   5.395  0.00  0.00     0.183 C 
HETATM    3  C   UNK N   1      23.385  14.776   5.395  0.00  0.00     0.204 C 
HETATM    4  C   UNK N   1      25.154  15.875   3.975  0.00  0.00     0.187 C 
HETATM    5  C   UNK N   1      23.131  13.969   4.093  0.00  0.00     0.291 C 
HETATM    6  O   UNK N   1      24.359  13.494   3.575  0.00  0.00    -0.348 OA
ENDROOT
BRANCH   4   7
HETATM    7  O   UNK N   1      26.296  16.771   3.975  0.00  0.00    -0.348 OA
BRANCH   7   8
HETATM    8  C   UNK N   1      27.543  16.352   4.531  0.00  0.00     0.292 C 
HETATM    9  C   UNK N   1      28.712  16.534   3.551  0.00  0.00     0.204 C 
HETATM   10  C   UNK N   1      30.012  16.126   4.237  0.00  0.00     0.176 C 
HETATM   11  C   UNK N   1      30.230  17.037   5.455  0.00  0.00     0.137 C 
HETATM   12  C   UNK N   1      28.989  16.905   6.409  0.00  0.00     0.145 C 
HETATM   13  C   UNK N   1      28.912  18.103   7.328  0.00  0.00     0.042 C 
HETATM   14  O   UNK N   1      27.725  16.953   5.792  0.00  0.00    -0.352 OA
BRANCH   9  15
HETATM   15  O   UNK N   1      28.494  15.742   2.418  0.00  0.00    -0.388 OA
HETATM   16  H   UNK N   1      28.658  16.056   1.515  0.00  0.00     0.210 HD
ENDBRANCH   9  15
BRANCH  10  17
HETATM   17  O   UNK N   1      31.074  16.270   3.336  0.00  0.00    -0.391 OA
HETATM   18  H   UNK N   1      31.387  15.915   2.490  0.00  0.00     0.210 HD
ENDBRANCH  10  17
BRANCH  11  19
HETATM   19  N   UNK N   1      31.591  16.742   5.994  0.00  0.00    -0.402 N 
HETATM   20  H   UNK N   1      32.197  16.177   5.397  0.00  0.00     0.154 HD
BRANCH  19  21
HETATM   21  C   UNK N   1      32.172  17.170   7.292  0.00  0.00     0.132 C 
HETATM   22  C   UNK N   1      32.311  16.072   8.311  0.00  0.00     0.008 C 
HETATM   23  C   UNK N   1      33.390  15.923   9.104  0.00  0.00    -0.027 C 
HETATM   24  C   UNK N   1      34.529  16.923   9.090  0.00  0.00     0.180 C 
HETATM   25  C   UNK N   1      34.106  18.264   8.453  0.00  0.00     0.182 C 
HETATM   26  C   UNK N   1      33.447  18.023   7.093  0.00  0.00     0.175 C 
BRANCH  23  27
HETATM   27  C   UNK N   1      33.508  14.653   9.894  0.00  0.00     0.201 C 
BRANCH  27  28
HETATM   28  O   UNK N   1      33.359  14.899  11.257  0.00  0.00    -0.397 OA
HETATM   29  H   UNK N   1      34.010  14.605  11.913  0.00  0.00     0.209 HD
ENDBRANCH  27  28
ENDBRANCH  23  27
BRANCH  24  30
HETATM   30  O   UNK N   1      34.961  17.173  10.395  0.00  0.00    -0.388 OA
HETATM   31  H   UNK N   1      35.718  16.687  10.757  0.00  0.00     0.210 HD
ENDBRANCH  24  30
BRANCH  25  32
HETATM   32  O   UNK N   1      35.217  19.099   8.317  0.00  0.00    -0.390 OA
HETATM   33  H   UNK N   1      35.874  19.366   7.656  0.00  0.00     0.210 HD
ENDBRANCH  25  32
BRANCH  26  34
HETATM   34  O   UNK N   1      34.363  17.409   6.240  0.00  0.00    -0.391 OA
HETATM   35  H   UNK N   1      35.146  16.846   6.133  0.00  0.00     0.210 HD
ENDBRANCH  26  34
ENDBRANCH  19  21
ENDBRANCH  11  19
ENDBRANCH   7   8
ENDBRANCH   4   7
BRANCH   1  36
HETATM   36  C   UNK N   1      24.959  14.775   1.603  0.00  0.00     0.198 C 
BRANCH  36  37
HETATM   37  O   UNK N   1      25.880  15.636   1.000  0.00  0.00    -0.398 OA
HETATM   38  H   UNK N   1      26.497  16.354   0.792  0.00  0.00     0.209 HD
ENDBRANCH  36  37
ENDBRANCH   1  36
BRANCH   2  39
HETATM   39  O   UNK N   1      24.743  16.575   6.254  0.00  0.00    -0.390 OA
HETATM   40  H   UNK N   1      25.428  16.998   6.794  0.00  0.00     0.210 HD
ENDBRANCH   2  39
BRANCH   3  41
HETATM   41  O   UNK N   1      23.328  13.934   6.508  0.00  0.00    -0.388 OA
HETATM   42  H   UNK N   1      22.956  13.815   7.397  0.00  0.00     0.210 HD
ENDBRANCH   3  41
BRANCH   5  43
HETATM   43  O   UNK N   1      22.418  14.725   3.123  0.00  0.00    -0.356 OA
BRANCH  43  44
HETATM   44  C   UNK N   1      21.111  14.891   3.627  0.00  0.00     0.205 C 
BRANCH  44  45
HETATM   45  C   UNK N   1      20.416  16.156   3.159  0.00  0.00     0.180 C 
HETATM   46  C   UNK N   1      21.030  17.325   3.966  0.00  0.00     0.180 C 
HETATM   47  C   UNK N   1      20.477  18.654   3.454  0.00  0.00     0.183 C 
HETATM   48  C   UNK N   1      20.733  18.732   1.948  0.00  0.00     0.204 C 
HETATM   49  C   UNK N   1      20.092  17.504   1.277  0.00  0.00     0.288 C 
HETATM   50  O   UNK N   1      20.666  16.306   1.772  0.00  0.00    -0.349 OA
BRANCH  46  51
HETATM   51  O   UNK N   1      20.739  17.185   5.327  0.00  0.00    -0.390 OA
HETATM   52  H   UNK N   1      19.882  16.900   5.683  0.00  0.00     0.210 HD
ENDBRANCH  46  51
BRANCH  47  53
HETATM   53  O   UNK N   1      21.104  19.719   4.107  0.00  0.00    -0.390 OA
HETATM   54  H   UNK N   1      20.634  20.354   4.669  0.00  0.00     0.210 HD
ENDBRANCH  47  53
BRANCH  48  55
HETATM   55  O   UNK N   1      20.184  19.909   1.431  0.00  0.00    -0.388 OA
HETATM   56  H   UNK N   1      20.371  20.797   1.774  0.00  0.00     0.210 HD
ENDBRANCH  48  55
BRANCH  49  57
HETATM   57  O   UNK N   1      20.317  17.565  -0.099  0.00  0.00    -0.369 OA
HETATM   58  H   UNK N   1      21.193  17.693  -0.496  0.00  0.00     0.212 HD
ENDBRANCH  49  57
ENDBRANCH  44  45
ENDBRANCH  43  44
ENDBRANCH   5  43
TORSDOF 22
ENDMDL
MODEL 3
REMARK VINA RESULT:      -7.6      2.249     10.265
REMARK  22 active torsions:
REMARK  status: ('A' for Active; 'I' for Inactive)
REMARK    1  A    between atoms: C_7  and  C_3 
REMARK    2  A    between atoms: O_27  and  C_3 
REMARK    3  A    between atoms: C_9  and  C_4 
REMARK    4  A    between atoms: O_28  and  C_4 
REMARK    5  A    between atoms: C_10  and  C_5 
REMARK    6  A    between atoms: O_40  and  C_5 
REMARK    7  A    between atoms: C_8  and  N_26 
REMARK    8  A    between atoms: C_11  and  N_26 
REMARK    9  A    between atoms: C_12  and  O_29 
REMARK   10  A    between atoms: C_13  and  O_30 
REMARK   11  A    between atoms: C_14  and  O_31 
REMARK   12  A    between atoms: C_15  and  O_32 
REMARK   13  A    between atoms: C_16  and  O_33 
REMARK   14  A    between atoms: C_17  and  O_34 
REMARK   15  A    between atoms: C_18  and  O_35 
REMARK   16  A    between atoms: C_19  and  O_36 
REMARK   17  A    between atoms: C_20  and  O_37 
REMARK   18  A    between atoms: C_21  and  O_38 
REMARK   19  A    between atoms: C_22  and  O_44 
REMARK   20  A    between atoms: C_23  and  O_39 
REMARK   21  A    between atoms: C_24  and  O_40 
REMARK   22  A    between atoms: C_25  and  O_44 
ROOT
HETATM    1  C   UNK N   1      35.069  14.343  11.678  0.00  0.00     0.180 C 
HETATM    2  C   UNK N   1      34.635  12.193  10.469  0.00  0.00     0.183 C 
HETATM    3  C   UNK N   1      34.863  11.419  11.795  0.00  0.00     0.204 C 
HETATM    4  C   UNK N   1      35.501  13.448  10.443  0.00  0.00     0.187 C 
HETATM    5  C   UNK N   1      35.176  12.366  12.986  0.00  0.00     0.291 C 
HETATM    6  O   UNK N   1      34.536  13.613  12.789  0.00  0.00    -0.348 OA
ENDROOT
BRANCH   4   7
HETATM    7  O   UNK N   1      35.527  14.036   9.117  0.00  0.00    -0.348 OA
BRANCH   7   8
HETATM    8  C   UNK N   1      34.392  14.743   8.617  0.00  0.00     0.292 C 
HETATM    9  C   UNK N   1      34.758  16.133   8.075  0.00  0.00     0.204 C 
HETATM   10  C   UNK N   1      33.509  16.796   7.504  0.00  0.00     0.176 C 
HETATM   11  C   UNK N   1      32.979  15.930   6.350  0.00  0.00     0.137 C 
HETATM   12  C   UNK N   1      32.686  14.488   6.899  0.00  0.00     0.145 C 
HETATM   13  C   UNK N   1      32.649  13.497   5.757  0.00  0.00     0.042 C 
HETATM   14  O   UNK N   1      33.682  13.922   7.718  0.00  0.00    -0.352 OA
BRANCH   9  15
HETATM   15  O   UNK N   1      35.286  16.910   9.112  0.00  0.00    -0.388 OA
HETATM   16  H   UNK N   1      35.156  17.869   9.173  0.00  0.00     0.210 HD
ENDBRANCH   9  15
BRANCH  10  17
HETATM   17  O   UNK N   1      33.838  18.072   7.032  0.00  0.00    -0.391 OA
HETATM   18  H   UNK N   1      33.464  18.789   6.496  0.00  0.00     0.210 HD
ENDBRANCH  10  17
BRANCH  11  19
HETATM   19  N   UNK N   1      31.874  16.692   5.693  0.00  0.00    -0.402 N 
HETATM   20  H   UNK N   1      32.160  17.414   5.032  0.00  0.00     0.154 HD
BRANCH  19  21
HETATM   21  C   UNK N   1      30.411  16.525   5.885  0.00  0.00     0.132 C 
HETATM   22  C   UNK N   1      29.859  17.185   7.118  0.00  0.00     0.008 C 
HETATM   23  C   UNK N   1      28.697  17.867   7.144  0.00  0.00    -0.027 C 
HETATM   24  C   UNK N   1      27.796  17.944   5.926  0.00  0.00     0.180 C 
HETATM   25  C   UNK N   1      28.128  16.843   4.897  0.00  0.00     0.182 C 
HETATM   26  C   UNK N   1      29.627  16.837   4.587  0.00  0.00     0.175 C 
BRANCH  23  27
HETATM   27  C   UNK N   1      28.388  18.680   8.366  0.00  0.00     0.201 C 
BRANCH  27  28
HETATM   28  O   UNK N   1      27.439  18.042   9.161  0.00  0.00    -0.397 OA
HETATM   29  H   UNK N   1      27.638  17.238   9.665  0.00  0.00     0.209 HD
ENDBRANCH  27  28
ENDBRANCH  23  27
BRANCH  24  30
HETATM   30  O   UNK N   1      26.461  17.800   6.309  0.00  0.00    -0.388 OA
HETATM   31  H   UNK N   1      25.763  17.775   5.637  0.00  0.00     0.210 HD
ENDBRANCH  24  30
BRANCH  25  32
HETATM   32  O   UNK N   1      27.389  17.042   3.730  0.00  0.00    -0.390 OA
HETATM   33  H   UNK N   1      27.300  17.675   3.001  0.00  0.00     0.210 HD
ENDBRANCH  25  32
BRANCH  26  34
HETATM   34  O   UNK N   1      29.988  18.065   4.037  0.00  0.00    -0.391 OA
HETATM   35  H   UNK N   1      30.636  18.593   3.543  0.00  0.00     0.210 HD
ENDBRANCH  26  34
ENDBRANCH  19  21
ENDBRANCH  11  19
ENDBRANCH   7   8
ENDBRANCH   4   7
BRANCH   1  36
HETATM   36  C   UNK N   1      36.185  15.286  12.183  0.00  0.00     0.198 C 
BRANCH  36  37
HETATM   37  O   UNK N   1      36.871  15.947  11.161  0.00  0.00    -0.398 OA
HETATM   38  H   UNK N   1      37.533  16.270  10.531  0.00  0.00     0.209 HD
ENDBRANCH  36  37
ENDBRANCH   1  36
BRANCH   2  39
HETATM   39  O   UNK N   1      34.904  11.356   9.384  0.00  0.00    -0.390 OA
HETATM   40  H   UNK N   1      34.911  10.391   9.292  0.00  0.00     0.210 HD
ENDBRANCH   2  39
BRANCH   3  41
HETATM   41  O   UNK N   1      33.712  10.671  12.058  0.00  0.00    -0.388 OA
HETATM   42  H   UNK N   1      33.357   9.778  12.190  0.00  0.00     0.210 HD
ENDBRANCH   3  41
BRANCH   5  43
HETATM   43  O   UNK N   1      36.574  12.527  13.188  0.00  0.00    -0.356 OA
BRANCH  43  44
HETATM   44  C   UNK N   1      36.793  12.413  14.577  0.00  0.00     0.205 C 
BRANCH  44  45
HETATM   45  C   UNK N   1      36.202  13.543  15.399  0.00  0.00     0.180 C 
HETATM   46  C   UNK N   1      35.911  12.965  16.804  0.00  0.00     0.180 C 
HETATM   47  C   UNK N   1      35.440  14.081  17.735  0.00  0.00     0.183 C 
HETATM   48  C   UNK N   1      36.490  15.194  17.721  0.00  0.00     0.204 C 
HETATM   49  C   UNK N   1      36.696  15.656  16.267  0.00  0.00     0.288 C 
HETATM   50  O   UNK N   1      37.161  14.585  15.463  0.00  0.00    -0.349 OA
BRANCH  46  51
HETATM   51  O   UNK N   1      34.933  11.968  16.729  0.00  0.00    -0.390 OA
HETATM   52  H   UNK N   1      35.105  11.017  16.821  0.00  0.00     0.210 HD
ENDBRANCH  46  51
BRANCH  47  53
HETATM   53  O   UNK N   1      35.275  13.588  19.032  0.00  0.00    -0.390 OA
HETATM   54  H   UNK N   1      35.123  14.154  19.806  0.00  0.00     0.210 HD
ENDBRANCH  47  53
BRANCH  48  55
HETATM   55  O   UNK N   1      36.063  16.263  18.514  0.00  0.00    -0.388 OA
HETATM   56  H   UNK N   1      36.658  16.851  19.005  0.00  0.00     0.210 HD
ENDBRANCH  48  55
BRANCH  49  57
HETATM   57  O   UNK N   1      37.652  16.672  16.242  0.00  0.00    -0.369 OA
HETATM   58  H   UNK N   1      37.504  17.541  15.836  0.00  0.00     0.212 HD
ENDBRANCH  49  57
ENDBRANCH  44  45
ENDBRANCH  43  44
ENDBRANCH   5  43
TORSDOF 22
ENDMDL
MODEL 4
REMARK VINA RESULT:      -7.6      6.581     11.565
REMARK  22 active torsions:
REMARK  status: ('A' for Active; 'I' for Inactive)
REMARK    1  A    between atoms: C_7  and  C_3 
REMARK    2  A    between atoms: O_27  and  C_3 
REMARK    3  A    between atoms: C_9  and  C_4 
REMARK    4  A    between atoms: O_28  and  C_4 
REMARK    5  A    between atoms: C_10  and  C_5 
REMARK    6  A    between atoms: O_40  and  C_5 
REMARK    7  A    between atoms: C_8  and  N_26 
REMARK    8  A    between atoms: C_11  and  N_26 
REMARK    9  A    between atoms: C_12  and  O_29 
REMARK   10  A    between atoms: C_13  and  O_30 
REMARK   11  A    between atoms: C_14  and  O_31 
REMARK   12  A    between atoms: C_15  and  O_32 
REMARK   13  A    between atoms: C_16  and  O_33 
REMARK   14  A    between atoms: C_17  and  O_34 
REMARK   15  A    between atoms: C_18  and  O_35 
REMARK   16  A    between atoms: C_19  and  O_36 
REMARK   17  A    between atoms: C_20  and  O_37 
REMARK   18  A    between atoms: C_21  and  O_38 
REMARK   19  A    between atoms: C_22  and  O_44 
REMARK   20  A    between atoms: C_23  and  O_39 
REMARK   21  A    between atoms: C_24  and  O_40 
REMARK   22  A    between atoms: C_25  and  O_44 
ROOT
HETATM    1  C   UNK N   1      20.993  16.303   5.559  0.00  0.00     0.180 C 
HETATM    2  C   UNK N   1      21.931  14.325   4.343  0.00  0.00     0.183 C 
HETATM    3  C   UNK N   1      21.588  13.430   5.564  0.00  0.00     0.204 C 
HETATM    4  C   UNK N   1      22.269  15.736   4.809  0.00  0.00     0.187 C 
HETATM    5  C   UNK N   1      20.905  14.229   6.708  0.00  0.00     0.291 C 
HETATM    6  O   UNK N   1      20.163  15.305   6.165  0.00  0.00    -0.348 OA
ENDROOT
BRANCH   4   7
HETATM    7  O   UNK N   1      22.863  16.512   3.736  0.00  0.00    -0.348 OA
BRANCH   7   8
HETATM    8  C   UNK N   1      24.244  16.871   3.782  0.00  0.00     0.292 C 
HETATM    9  C   UNK N   1      24.538  17.937   4.847  0.00  0.00     0.204 C 
HETATM   10  C   UNK N   1      26.036  18.221   4.878  0.00  0.00     0.176 C 
HETATM   11  C   UNK N   1      26.772  16.923   5.247  0.00  0.00     0.137 C 
HETATM   12  C   UNK N   1      26.398  15.818   4.195  0.00  0.00     0.145 C 
HETATM   13  C   UNK N   1      26.674  14.445   4.767  0.00  0.00     0.042 C 
HETATM   14  O   UNK N   1      25.033  15.708   3.870  0.00  0.00    -0.352 OA
BRANCH   9  15
HETATM   15  O   UNK N   1      23.831  19.106   4.542  0.00  0.00    -0.388 OA
HETATM   16  H   UNK N   1      22.933  19.101   4.177  0.00  0.00     0.210 HD
ENDBRANCH   9  15
BRANCH  10  17
HETATM   17  O   UNK N   1      26.301  19.209   5.833  0.00  0.00    -0.391 OA
HETATM   18  H   UNK N   1      27.049  19.678   6.233  0.00  0.00     0.210 HD
ENDBRANCH  10  17
BRANCH  11  19
HETATM   19  N   UNK N   1      28.211  17.270   5.451  0.00  0.00    -0.402 N 
HETATM   20  H   UNK N   1      28.629  17.880   4.747  0.00  0.00     0.154 HD
BRANCH  19  21
HETATM   21  C   UNK N   1      29.107  16.836   6.552  0.00  0.00     0.132 C 
HETATM   22  C   UNK N   1      30.562  16.744   6.180  0.00  0.00     0.008 C 
HETATM   23  C   UNK N   1      31.564  17.165   6.975  0.00  0.00    -0.027 C 
HETATM   24  C   UNK N   1      31.299  17.693   8.372  0.00  0.00     0.180 C 
HETATM   25  C   UNK N   1      29.906  17.274   8.888  0.00  0.00     0.182 C 
HETATM   26  C   UNK N   1      28.829  17.620   7.857  0.00  0.00     0.175 C 
BRANCH  23  27
HETATM   27  C   UNK N   1      32.941  17.244   6.386  0.00  0.00     0.201 C 
BRANCH  27  28
HETATM   28  O   UNK N   1      33.728  18.160   7.081  0.00  0.00    -0.397 OA
HETATM   29  H   UNK N   1      34.567  18.497   6.730  0.00  0.00     0.209 HD
ENDBRANCH  27  28
ENDBRANCH  23  27
BRANCH  24  30
HETATM   30  O   UNK N   1      32.261  17.204   9.259  0.00  0.00    -0.388 OA
HETATM   31  H   UNK N   1      32.594  16.298   9.162  0.00  0.00     0.210 HD
ENDBRANCH  24  30
BRANCH  25  32
HETATM   32  O   UNK N   1      29.638  17.905  10.104  0.00  0.00    -0.390 OA
HETATM   33  H   UNK N   1      30.099  18.248  10.886  0.00  0.00     0.210 HD
ENDBRANCH  25  32
BRANCH  26  34
HETATM   34  O   UNK N   1      28.817  18.998   7.648  0.00  0.00    -0.391 OA
HETATM   35  H   UNK N   1      29.019  19.750   7.069  0.00  0.00     0.210 HD
ENDBRANCH  26  34
ENDBRANCH  19  21
ENDBRANCH  11  19
ENDBRANCH   7   8
ENDBRANCH   4   7
BRANCH   1  36
HETATM   36  C   UNK N   1      21.319  17.392   6.607  0.00  0.00     0.198 C 
BRANCH  36  37
HETATM   37  O   UNK N   1      21.377  18.685   6.078  0.00  0.00    -0.398 OA
HETATM   38  H   UNK N   1      21.238  19.497   5.568  0.00  0.00     0.209 HD
ENDBRANCH  36  37
ENDBRANCH   1  36
BRANCH   2  39
HETATM   39  O   UNK N   1      22.980  13.752   3.621  0.00  0.00    -0.390 OA
HETATM   40  H   UNK N   1      23.294  12.839   3.541  0.00  0.00     0.210 HD
ENDBRANCH   2  39
BRANCH   3  41
HETATM   41  O   UNK N   1      20.752  12.402   5.122  0.00  0.00    -0.388 OA
HETATM   42  H   UNK N   1      20.239  11.623   5.391  0.00  0.00     0.210 HD
ENDBRANCH   3  41
BRANCH   5  43
HETATM   43  O   UNK N   1      21.839  14.681   7.679  0.00  0.00    -0.356 OA
BRANCH  43  44
HETATM   44  C   UNK N   1      22.536  13.539   8.126  0.00  0.00     0.205 C 
BRANCH  44  45
HETATM   45  C   UNK N   1      22.632  13.416   9.635  0.00  0.00     0.180 C 
HETATM   46  C   UNK N   1      21.370  12.650  10.100  0.00  0.00     0.180 C 
HETATM   47  C   UNK N   1      21.460  12.365  11.598  0.00  0.00     0.183 C 
HETATM   48  C   UNK N   1      22.773  11.628  11.868  0.00  0.00     0.204 C 
HETATM   49  C   UNK N   1      23.936  12.487  11.338  0.00  0.00     0.288 C 
HETATM   50  O   UNK N   1      23.811  12.691   9.941  0.00  0.00    -0.349 OA
BRANCH  46  51
HETATM   51  O   UNK N   1      20.219  13.397   9.828  0.00  0.00    -0.390 OA
HETATM   52  H   UNK N   1      19.910  13.635   8.940  0.00  0.00     0.210 HD
ENDBRANCH  46  51
BRANCH  47  53
HETATM   53  O   UNK N   1      20.375  11.583  12.004  0.00  0.00    -0.390 OA
HETATM   54  H   UNK N   1      19.450  11.817  11.826  0.00  0.00     0.210 HD
ENDBRANCH  47  53
BRANCH  48  55
HETATM   55  O   UNK N   1      22.921  11.405  13.240  0.00  0.00    -0.388 OA
HETATM   56  H   UNK N   1      23.742  11.556  13.733  0.00  0.00     0.210 HD
ENDBRANCH  48  55
BRANCH  49  57
HETATM   57  O   UNK N   1      25.140  11.825  11.581  0.00  0.00    -0.369 OA
HETATM   58  H   UNK N   1      25.992  12.277  11.681  0.00  0.00     0.212 HD
ENDBRANCH  49  57
ENDBRANCH  44  45
ENDBRANCH  43  44
ENDBRANCH   5  43
TORSDOF 22
ENDMDL
MODEL 5
REMARK VINA RESULT:      -7.6      4.836      9.542
REMARK  22 active torsions:
REMARK  status: ('A' for Active; 'I' for Inactive)
REMARK    1  A    between atoms: C_7  and  C_3 
REMARK    2  A    between atoms: O_27  and  C_3 
REMARK    3  A    between atoms: C_9  and  C_4 
REMARK    4  A    between atoms: O_28  and  C_4 
REMARK    5  A    between atoms: C_10  and  C_5 
REMARK    6  A    between atoms: O_40  and  C_5 
REMARK    7  A    between atoms: C_8  and  N_26 
REMARK    8  A    between atoms: C_11  and  N_26 
REMARK    9  A    between atoms: C_12  and  O_29 
REMARK   10  A    between atoms: C_13  and  O_30 
REMARK   11  A    between atoms: C_14  and  O_31 
REMARK   12  A    between atoms: C_15  and  O_32 
REMARK   13  A    between atoms: C_16  and  O_33 
REMARK   14  A    between atoms: C_17  and  O_34 
REMARK   15  A    between atoms: C_18  and  O_35 
REMARK   16  A    between atoms: C_19  and  O_36 
REMARK   17  A    between atoms: C_20  and  O_37 
REMARK   18  A    between atoms: C_21  and  O_38 
REMARK   19  A    between atoms: C_22  and  O_44 
REMARK   20  A    between atoms: C_23  and  O_39 
REMARK   21  A    between atoms: C_24  and  O_40 
REMARK   22  A    between atoms: C_25  and  O_44 
ROOT
HETATM    1  C   UNK N   1      24.228  15.514   4.367  0.00  0.00     0.180 C 
HETATM    2  C   UNK N   1      25.345  13.636   3.144  0.00  0.00     0.183 C 
HETATM    3  C   UNK N   1      24.353  12.638   3.798  0.00  0.00     0.204 C 
HETATM    4  C   UNK N   1      25.616  14.799   4.091  0.00  0.00     0.187 C 
HETATM    5  C   UNK N   1      23.330  13.346   4.728  0.00  0.00     0.291 C 
HETATM    6  O   UNK N   1      23.083  14.659   4.259  0.00  0.00    -0.348 OA
ENDROOT
BRANCH   4   7
HETATM    7  O   UNK N   1      26.741  15.593   3.635  0.00  0.00    -0.348 OA
BRANCH   7   8
HETATM    8  C   UNK N   1      28.021  15.455   4.253  0.00  0.00     0.292 C 
HETATM    9  C   UNK N   1      29.176  15.666   3.264  0.00  0.00     0.204 C 
HETATM   10  C   UNK N   1      30.504  15.565   4.009  0.00  0.00     0.176 C 
HETATM   11  C   UNK N   1      30.549  16.667   5.080  0.00  0.00     0.137 C 
HETATM   12  C   UNK N   1      29.316  16.489   6.036  0.00  0.00     0.145 C 
HETATM   13  C   UNK N   1      29.035  17.783   6.767  0.00  0.00     0.042 C 
HETATM   14  O   UNK N   1      28.076  16.253   5.413  0.00  0.00    -0.352 OA
BRANCH   9  15
HETATM   15  O   UNK N   1      29.111  14.694   2.259  0.00  0.00    -0.388 OA
HETATM   16  H   UNK N   1      29.865  14.135   2.015  0.00  0.00     0.210 HD
ENDBRANCH   9  15
BRANCH  10  17
HETATM   17  O   UNK N   1      31.557  15.736   3.103  0.00  0.00    -0.391 OA
HETATM   18  H   UNK N   1      32.450  16.111   3.059  0.00  0.00     0.210 HD
ENDBRANCH  10  17
BRANCH  11  19
HETATM   19  N   UNK N   1      31.924  16.664   5.664  0.00  0.00    -0.402 N 
HETATM   20  H   UNK N   1      32.667  16.317   5.057  0.00  0.00     0.154 HD
BRANCH  19  21
HETATM   21  C   UNK N   1      32.341  17.105   7.018  0.00  0.00     0.132 C 
HETATM   22  C   UNK N   1      32.373  16.014   8.053  0.00  0.00     0.008 C 
HETATM   23  C   UNK N   1      33.352  15.883   8.969  0.00  0.00    -0.027 C 
HETATM   24  C   UNK N   1      34.472  16.899   9.085  0.00  0.00     0.180 C 
HETATM   25  C   UNK N   1      34.109  18.231   8.394  0.00  0.00     0.182 C 
HETATM   26  C   UNK N   1      33.620  17.976   6.967  0.00  0.00     0.175 C 
BRANCH  23  27
HETATM   27  C   UNK N   1      33.393  14.618   9.775  0.00  0.00     0.201 C 
BRANCH  27  28
HETATM   28  O   UNK N   1      33.194  14.883  11.128  0.00  0.00    -0.397 OA
HETATM   29  H   UNK N   1      33.927  14.954  11.758  0.00  0.00     0.209 HD
ENDBRANCH  27  28
ENDBRANCH  23  27
BRANCH  24  30
HETATM   30  O   UNK N   1      34.743  17.160  10.430  0.00  0.00    -0.388 OA
HETATM   31  H   UNK N   1      34.391  17.960  10.850  0.00  0.00     0.210 HD
ENDBRANCH  24  30
BRANCH  25  32
HETATM   32  O   UNK N   1      35.217  19.081   8.386  0.00  0.00    -0.390 OA
HETATM   33  H   UNK N   1      35.804  19.549   9.000  0.00  0.00     0.210 HD
ENDBRANCH  25  32
BRANCH  26  34
HETATM   34  O   UNK N   1      34.637  17.370   6.232  0.00  0.00    -0.391 OA
HETATM   35  H   UNK N   1      35.328  17.448   5.555  0.00  0.00     0.210 HD
ENDBRANCH  26  34
ENDBRANCH  19  21
ENDBRANCH  11  19
ENDBRANCH   7   8
ENDBRANCH   4   7
BRANCH   1  36
HETATM   36  C   UNK N   1      24.171  16.262   5.719  0.00  0.00     0.198 C 
BRANCH  36  37
HETATM   37  O   UNK N   1      25.297  16.061   6.522  0.00  0.00    -0.398 OA
HETATM   38  H   UNK N   1      26.101  16.163   7.055  0.00  0.00     0.209 HD
ENDBRANCH  36  37
ENDBRANCH   1  36
BRANCH   2  39
HETATM   39  O   UNK N   1      26.521  12.968   2.794  0.00  0.00    -0.390 OA
HETATM   40  H   UNK N   1      27.456  13.200   2.896  0.00  0.00     0.210 HD
ENDBRANCH   2  39
BRANCH   3  41
HETATM   41  O   UNK N   1      23.688  11.958   2.773  0.00  0.00    -0.388 OA
HETATM   42  H   UNK N   1      23.799  11.399   1.988  0.00  0.00     0.210 HD
ENDBRANCH   3  41
BRANCH   5  43
HETATM   43  O   UNK N   1      23.753  13.352   6.085  0.00  0.00    -0.356 OA
BRANCH  43  44
HETATM   44  C   UNK N   1      22.633  12.980   6.856  0.00  0.00     0.205 C 
BRANCH  44  45
HETATM   45  C   UNK N   1      22.773  13.263   8.339  0.00  0.00     0.180 C 
HETATM   46  C   UNK N   1      21.486  12.734   9.016  0.00  0.00     0.180 C 
HETATM   47  C   UNK N   1      21.610  12.859  10.534  0.00  0.00     0.183 C 
HETATM   48  C   UNK N   1      22.889  12.142  10.972  0.00  0.00     0.204 C 
HETATM   49  C   UNK N   1      24.079  12.750  10.209  0.00  0.00     0.288 C 
HETATM   50  O   UNK N   1      23.919  12.575   8.811  0.00  0.00    -0.349 OA
BRANCH  46  51
HETATM   51  O   UNK N   1      20.370  13.450   8.572  0.00  0.00    -0.390 OA
HETATM   52  H   UNK N   1      19.690  13.830   9.151  0.00  0.00     0.210 HD
ENDBRANCH  46  51
BRANCH  47  53
HETATM   53  O   UNK N   1      20.497  12.287  11.156  0.00  0.00    -0.390 OA
HETATM   54  H   UNK N   1      19.626  12.713  11.192  0.00  0.00     0.210 HD
ENDBRANCH  47  53
BRANCH  48  55
HETATM   55  O   UNK N   1      23.069  12.289  12.350  0.00  0.00    -0.388 OA
HETATM   56  H   UNK N   1      23.929  12.245  12.797  0.00  0.00     0.210 HD
ENDBRANCH  48  55
BRANCH  49  57
HETATM   57  O   UNK N   1      25.251  12.104  10.602  0.00  0.00    -0.369 OA
HETATM   58  H   UNK N   1      25.268  11.312  11.162  0.00  0.00     0.212 HD
ENDBRANCH  49  57
ENDBRANCH  44  45
ENDBRANCH  43  44
ENDBRANCH   5  43
TORSDOF 22
ENDMDL
MODEL 6
REMARK VINA RESULT:      -7.5      4.769      8.660
REMARK  22 active torsions:
REMARK  status: ('A' for Active; 'I' for Inactive)
REMARK    1  A    between atoms: C_7  and  C_3 
REMARK    2  A    between atoms: O_27  and  C_3 
REMARK    3  A    between atoms: C_9  and  C_4 
REMARK    4  A    between atoms: O_28  and  C_4 
REMARK    5  A    between atoms: C_10  and  C_5 
REMARK    6  A    between atoms: O_40  and  C_5 
REMARK    7  A    between atoms: C_8  and  N_26 
REMARK    8  A    between atoms: C_11  and  N_26 
REMARK    9  A    between atoms: C_12  and  O_29 
REMARK   10  A    between atoms: C_13  and  O_30 
REMARK   11  A    between atoms: C_14  and  O_31 
REMARK   12  A    between atoms: C_15  and  O_32 
REMARK   13  A    between atoms: C_16  and  O_33 
REMARK   14  A    between atoms: C_17  and  O_34 
REMARK   15  A    between atoms: C_18  and  O_35 
REMARK   16  A    between atoms: C_19  and  O_36 
REMARK   17  A    between atoms: C_20  and  O_37 
REMARK   18  A    between atoms: C_21  and  O_38 
REMARK   19  A    between atoms: C_22  and  O_44 
REMARK   20  A    between atoms: C_23  and  O_39 
REMARK   21  A    between atoms: C_24  and  O_40 
REMARK   22  A    between atoms: C_25  and  O_44 
ROOT
HETATM    1  C   UNK N   1      26.735  16.572   4.670  0.00  0.00     0.180 C 
HETATM    2  C   UNK N   1      27.724  18.846   5.013  0.00  0.00     0.183 C 
HETATM    3  C   UNK N   1      26.296  19.424   5.197  0.00  0.00     0.204 C 
HETATM    4  C   UNK N   1      27.691  17.670   4.044  0.00  0.00     0.187 C 
HETATM    5  C   UNK N   1      25.198  18.331   5.089  0.00  0.00     0.291 C 
HETATM    6  O   UNK N   1      25.712  17.089   5.530  0.00  0.00    -0.348 OA
ENDROOT
BRANCH   4   7
HETATM    7  O   UNK N   1      29.030  17.292   3.635  0.00  0.00    -0.348 OA
BRANCH   7   8
HETATM    8  C   UNK N   1      29.990  16.870   4.603  0.00  0.00     0.292 C 
HETATM    9  C   UNK N   1      31.316  17.636   4.488  0.00  0.00     0.204 C 
HETATM   10  C   UNK N   1      32.264  17.175   5.591  0.00  0.00     0.176 C 
HETATM   11  C   UNK N   1      31.619  17.487   6.951  0.00  0.00     0.137 C 
HETATM   12  C   UNK N   1      30.227  16.764   7.024  0.00  0.00     0.145 C 
HETATM   13  C   UNK N   1      29.359  17.416   8.077  0.00  0.00     0.042 C 
HETATM   14  O   UNK N   1      29.407  16.882   5.886  0.00  0.00    -0.352 OA
BRANCH   9  15
HETATM   15  O   UNK N   1      31.884  17.394   3.231  0.00  0.00    -0.388 OA
HETATM   16  H   UNK N   1      31.732  17.966   2.463  0.00  0.00     0.210 HD
ENDBRANCH   9  15
BRANCH  10  17
HETATM   17  O   UNK N   1      33.480  17.857   5.471  0.00  0.00    -0.391 OA
HETATM   18  H   UNK N   1      34.043  18.471   5.967  0.00  0.00     0.210 HD
ENDBRANCH  10  17
BRANCH  11  19
HETATM   19  N   UNK N   1      32.640  17.198   8.003  0.00  0.00    -0.402 N 
HETATM   20  H   UNK N   1      32.810  17.944   8.678  0.00  0.00     0.154 HD
BRANCH  19  21
HETATM   21  C   UNK N   1      33.436  15.959   8.187  0.00  0.00     0.132 C 
HETATM   22  C   UNK N   1      34.732  16.148   8.927  0.00  0.00     0.008 C 
HETATM   23  C   UNK N   1      35.186  15.295   9.866  0.00  0.00    -0.027 C 
HETATM   24  C   UNK N   1      34.452  14.007  10.190  0.00  0.00     0.180 C 
HETATM   25  C   UNK N   1      33.469  13.612   9.068  0.00  0.00     0.182 C 
HETATM   26  C   UNK N   1      32.564  14.793   8.711  0.00  0.00     0.175 C 
BRANCH  23  27
HETATM   27  C   UNK N   1      36.358  15.727  10.697  0.00  0.00     0.201 C 
BRANCH  27  28
HETATM   28  O   UNK N   1      37.518  15.065  10.303  0.00  0.00    -0.397 OA
HETATM   29  H   UNK N   1      37.657  14.118  10.461  0.00  0.00     0.209 HD
ENDBRANCH  27  28
ENDBRANCH  23  27
BRANCH  24  30
HETATM   30  O   UNK N   1      35.368  12.966  10.359  0.00  0.00    -0.388 OA
HETATM   31  H   UNK N   1      36.078  13.046  11.014  0.00  0.00     0.210 HD
ENDBRANCH  24  30
BRANCH  25  32
HETATM   32  O   UNK N   1      32.705  12.514   9.469  0.00  0.00    -0.390 OA
HETATM   33  H   UNK N   1      32.393  12.076  10.276  0.00  0.00     0.210 HD
ENDBRANCH  25  32
BRANCH  26  34
HETATM   34  O   UNK N   1      31.819  15.157   9.832  0.00  0.00    -0.391 OA
HETATM   35  H   UNK N   1      31.526  15.853  10.441  0.00  0.00     0.210 HD
ENDBRANCH  26  34
ENDBRANCH  19  21
ENDBRANCH  11  19
ENDBRANCH   7   8
ENDBRANCH   4   7
BRANCH   1  36
HETATM   36  C   UNK N   1      26.087  15.639   3.621  0.00  0.00     0.198 C 
BRANCH  36  37
HETATM   37  O   UNK N   1      26.269  16.063   2.302  0.00  0.00    -0.398 OA
HETATM   38  H   UNK N   1      26.178  16.461   1.422  0.00  0.00     0.209 HD
ENDBRANCH  36  37
ENDBRANCH   1  36
BRANCH   2  39
HETATM   39  O   UNK N   1      28.587  19.854   4.575  0.00  0.00    -0.390 OA
HETATM   40  H   UNK N   1      29.465  19.828   4.165  0.00  0.00     0.210 HD
ENDBRANCH   2  39
BRANCH   3  41
HETATM   41  O   UNK N   1      26.241  20.046   6.448  0.00  0.00    -0.388 OA
HETATM   42  H   UNK N   1      26.737  20.250   7.256  0.00  0.00     0.210 HD
ENDBRANCH   3  41
BRANCH   5  43
HETATM   43  O   UNK N   1      24.667  18.234   3.774  0.00  0.00    -0.356 OA
BRANCH  43  44
HETATM   44  C   UNK N   1      24.017  19.458   3.513  0.00  0.00     0.205 C 
BRANCH  44  45
HETATM   45  C   UNK N   1      22.503  19.392   3.592  0.00  0.00     0.180 C 
HETATM   46  C   UNK N   1      21.959  20.294   2.458  0.00  0.00     0.180 C 
HETATM   47  C   UNK N   1      20.438  20.172   2.386  0.00  0.00     0.183 C 
HETATM   48  C   UNK N   1      20.081  18.692   2.234  0.00  0.00     0.204 C 
HETATM   49  C   UNK N   1      20.701  17.914   3.409  0.00  0.00     0.288 C 
HETATM   50  O   UNK N   1      22.113  18.043   3.404  0.00  0.00    -0.349 OA
BRANCH  46  51
HETATM   51  O   UNK N   1      22.317  21.627   2.680  0.00  0.00    -0.390 OA
HETATM   52  H   UNK N   1      22.082  22.139   3.471  0.00  0.00     0.210 HD
ENDBRANCH  46  51
BRANCH  47  53
HETATM   53  O   UNK N   1      19.949  20.901   1.298  0.00  0.00    -0.390 OA
HETATM   54  H   UNK N   1      20.433  21.632   0.882  0.00  0.00     0.210 HD
ENDBRANCH  47  53
BRANCH  48  55
HETATM   55  O   UNK N   1      18.692  18.534   2.227  0.00  0.00    -0.388 OA
HETATM   56  H   UNK N   1      18.099  18.940   1.576  0.00  0.00     0.210 HD
ENDBRANCH  48  55
BRANCH  49  57
HETATM   57  O   UNK N   1      20.381  16.563   3.282  0.00  0.00    -0.369 OA
HETATM   58  H   UNK N   1      19.526  16.185   3.542  0.00  0.00     0.212 HD
ENDBRANCH  49  57
ENDBRANCH  44  45
ENDBRANCH  43  44
ENDBRANCH   5  43
TORSDOF 22
ENDMDL
MODEL 7
REMARK VINA RESULT:      -7.5      6.536     11.752
REMARK  22 active torsions:
REMARK  status: ('A' for Active; 'I' for Inactive)
REMARK    1  A    between atoms: C_7  and  C_3 
REMARK    2  A    between atoms: O_27  and  C_3 
REMARK    3  A    between atoms: C_9  and  C_4 
REMARK    4  A    between atoms: O_28  and  C_4 
REMARK    5  A    between atoms: C_10  and  C_5 
REMARK    6  A    between atoms: O_40  and  C_5 
REMARK    7  A    between atoms: C_8  and  N_26 
REMARK    8  A    between atoms: C_11  and  N_26 
REMARK    9  A    between atoms: C_12  and  O_29 
REMARK   10  A    between atoms: C_13  and  O_30 
REMARK   11  A    between atoms: C_14  and  O_31 
REMARK   12  A    between atoms: C_15  and  O_32 
REMARK   13  A    between atoms: C_16  and  O_33 
REMARK   14  A    between atoms: C_17  and  O_34 
REMARK   15  A    between atoms: C_18  and  O_35 
REMARK   16  A    between atoms: C_19  and  O_36 
REMARK   17  A    between atoms: C_20  and  O_37 
REMARK   18  A    between atoms: C_21  and  O_38 
REMARK   19  A    between atoms: C_22  and  O_44 
REMARK   20  A    between atoms: C_23  and  O_39 
REMARK   21  A    between atoms: C_24  and  O_40 
REMARK   22  A    between atoms: C_25  and  O_44 
ROOT
HETATM    1  C   UNK N   1      22.399  13.621   2.652  0.00  0.00     0.180 C 
HETATM    2  C   UNK N   1      22.507  13.109   5.101  0.00  0.00     0.183 C 
HETATM    3  C   UNK N   1      21.342  14.103   5.346  0.00  0.00     0.204 C 
HETATM    4  C   UNK N   1      23.350  13.574   3.919  0.00  0.00     0.187 C 
HETATM    5  C   UNK N   1      20.832  14.753   4.030  0.00  0.00     0.291 C 
HETATM    6  O   UNK N   1      21.017  13.857   2.950  0.00  0.00    -0.348 OA
ENDROOT
BRANCH   4   7
HETATM    7  O   UNK N   1      24.596  12.833   3.842  0.00  0.00    -0.348 OA
BRANCH   7   8
HETATM    8  C   UNK N   1      25.833  13.463   4.173  0.00  0.00     0.292 C 
HETATM    9  C   UNK N   1      26.221  14.559   3.169  0.00  0.00     0.204 C 
HETATM   10  C   UNK N   1      27.517  15.224   3.624  0.00  0.00     0.176 C 
HETATM   11  C   UNK N   1      27.281  15.864   5.001  0.00  0.00     0.137 C 
HETATM   12  C   UNK N   1      26.805  14.748   5.998  0.00  0.00     0.145 C 
HETATM   13  C   UNK N   1      26.100  15.375   7.180  0.00  0.00     0.042 C 
HETATM   14  O   UNK N   1      25.811  13.872   5.521  0.00  0.00    -0.352 OA
BRANCH   9  15
HETATM   15  O   UNK N   1      26.390  13.988   1.902  0.00  0.00    -0.388 OA
HETATM   16  H   UNK N   1      26.625  13.057   1.769  0.00  0.00     0.210 HD
ENDBRANCH   9  15
BRANCH  10  17
HETATM   17  O   UNK N   1      27.882  16.207   2.696  0.00  0.00    -0.391 OA
HETATM   18  H   UNK N   1      27.792  17.160   2.546  0.00  0.00     0.210 HD
ENDBRANCH  10  17
BRANCH  11  19
HETATM   19  N   UNK N   1      28.499  16.661   5.336  0.00  0.00    -0.402 N 
HETATM   20  H   UNK N   1      28.660  17.493   4.767  0.00  0.00     0.154 HD
BRANCH  19  21
HETATM   21  C   UNK N   1      29.503  16.392   6.395  0.00  0.00     0.132 C 
HETATM   22  C   UNK N   1      30.933  16.413   5.927  0.00  0.00     0.008 C 
HETATM   23  C   UNK N   1      31.937  16.982   6.621  0.00  0.00    -0.027 C 
HETATM   24  C   UNK N   1      31.712  17.579   7.997  0.00  0.00     0.180 C 
HETATM   25  C   UNK N   1      30.404  17.066   8.636  0.00  0.00     0.182 C 
HETATM   26  C   UNK N   1      29.234  17.236   7.665  0.00  0.00     0.175 C 
BRANCH  23  27
HETATM   27  C   UNK N   1      33.258  17.150   5.931  0.00  0.00     0.201 C 
BRANCH  27  28
HETATM   28  O   UNK N   1      34.056  18.076   6.601  0.00  0.00    -0.397 OA
HETATM   29  H   UNK N   1      34.796  17.812   7.168  0.00  0.00     0.209 HD
ENDBRANCH  27  28
ENDBRANCH  23  27
BRANCH  24  30
HETATM   30  O   UNK N   1      32.774  17.246   8.842  0.00  0.00    -0.388 OA
HETATM   31  H   UNK N   1      33.149  17.913   9.437  0.00  0.00     0.210 HD
ENDBRANCH  24  30
BRANCH  25  32
HETATM   32  O   UNK N   1      30.154  17.752   9.826  0.00  0.00    -0.390 OA
HETATM   33  H   UNK N   1      30.604  18.323  10.469  0.00  0.00     0.210 HD
ENDBRANCH  25  32
BRANCH  26  34
HETATM   34  O   UNK N   1      29.071  18.589   7.371  0.00  0.00    -0.391 OA
HETATM   35  H   UNK N   1      28.590  19.279   6.888  0.00  0.00     0.210 HD
ENDBRANCH  26  34
ENDBRANCH  19  21
ENDBRANCH  11  19
ENDBRANCH   7   8
ENDBRANCH   4   7
BRANCH   1  36
HETATM   36  C   UNK N   1      22.858  14.621   1.567  0.00  0.00     0.198 C 
BRANCH  36  37
HETATM   37  O   UNK N   1      21.806  15.187   0.840  0.00  0.00    -0.398 OA
HETATM   38  H   UNK N   1      21.137  15.407   0.174  0.00  0.00     0.209 HD
ENDBRANCH  36  37
ENDBRANCH   1  36
BRANCH   2  39
HETATM   39  O   UNK N   1      23.271  12.984   6.264  0.00  0.00    -0.390 OA
HETATM   40  H   UNK N   1      23.067  12.628   7.142  0.00  0.00     0.210 HD
ENDBRANCH   2  39
BRANCH   3  41
HETATM   41  O   UNK N   1      20.307  13.406   5.976  0.00  0.00    -0.388 OA
HETATM   42  H   UNK N   1      19.978  12.529   6.228  0.00  0.00     0.210 HD
ENDBRANCH   3  41
BRANCH   5  43
HETATM   43  O   UNK N   1      21.453  16.006   3.776  0.00  0.00    -0.356 OA
BRANCH  43  44
HETATM   44  C   UNK N   1      20.578  16.994   4.272  0.00  0.00     0.205 C 
BRANCH  44  45
HETATM   45  C   UNK N   1      20.147  18.023   3.244  0.00  0.00     0.180 C 
HETATM   46  C   UNK N   1      20.979  19.299   3.515  0.00  0.00     0.180 C 
HETATM   47  C   UNK N   1      20.700  20.339   2.431  0.00  0.00     0.183 C 
HETATM   48  C   UNK N   1      20.967  19.696   1.069  0.00  0.00     0.204 C 
HETATM   49  C   UNK N   1      20.095  18.433   0.943  0.00  0.00     0.288 C 
HETATM   50  O   UNK N   1      20.422  17.497   1.957  0.00  0.00    -0.349 OA
BRANCH  46  51
HETATM   51  O   UNK N   1      20.666  19.828   4.771  0.00  0.00    -0.390 OA
HETATM   52  H   UNK N   1      19.805  20.205   5.014  0.00  0.00     0.210 HD
ENDBRANCH  46  51
BRANCH  47  53
HETATM   53  O   UNK N   1      21.525  21.452   2.610  0.00  0.00    -0.390 OA
HETATM   54  H   UNK N   1      22.257  21.678   2.014  0.00  0.00     0.210 HD
ENDBRANCH  47  53
BRANCH  48  55
HETATM   55  O   UNK N   1      20.661  20.600   0.047  0.00  0.00    -0.388 OA
HETATM   56  H   UNK N   1      19.774  20.726  -0.324  0.00  0.00     0.210 HD
ENDBRANCH  48  55
BRANCH  49  57
HETATM   57  O   UNK N   1      20.329  17.839  -0.297  0.00  0.00    -0.369 OA
HETATM   58  H   UNK N   1      19.643  17.710  -0.971  0.00  0.00     0.212 HD
ENDBRANCH  49  57
ENDBRANCH  44  45
ENDBRANCH  43  44
ENDBRANCH   5  43
TORSDOF 22
ENDMDL
MODEL 8
REMARK VINA RESULT:      -7.4      4.994      9.569
REMARK  22 active torsions:
REMARK  status: ('A' for Active; 'I' for Inactive)
REMARK    1  A    between atoms: C_7  and  C_3 
REMARK    2  A    between atoms: O_27  and  C_3 
REMARK    3  A    between atoms: C_9  and  C_4 
REMARK    4  A    between atoms: O_28  and  C_4 
REMARK    5  A    between atoms: C_10  and  C_5 
REMARK    6  A    between atoms: O_40  and  C_5 
REMARK    7  A    between atoms: C_8  and  N_26 
REMARK    8  A    between atoms: C_11  and  N_26 
REMARK    9  A    between atoms: C_12  and  O_29 
REMARK   10  A    between atoms: C_13  and  O_30 
REMARK   11  A    between atoms: C_14  and  O_31 
REMARK   12  A    between atoms: C_15  and  O_32 
REMARK   13  A    between atoms: C_16  and  O_33 
REMARK   14  A    between atoms: C_17  and  O_34 
REMARK   15  A    between atoms: C_18  and  O_35 
REMARK   16  A    between atoms: C_19  and  O_36 
REMARK   17  A    between atoms: C_20  and  O_37 
REMARK   18  A    between atoms: C_21  and  O_38 
REMARK   19  A    between atoms: C_22  and  O_44 
REMARK   20  A    between atoms: C_23  and  O_39 
REMARK   21  A    between atoms: C_24  and  O_40 
REMARK   22  A    between atoms: C_25  and  O_44 
ROOT
HETATM    1  C   UNK N   1      25.088  14.354   3.184  0.00  0.00     0.180 C 
HETATM    2  C   UNK N   1      24.264  13.828   5.489  0.00  0.00     0.183 C 
HETATM    3  C   UNK N   1      22.888  14.445   5.123  0.00  0.00     0.204 C 
HETATM    4  C   UNK N   1      25.376  14.544   4.731  0.00  0.00     0.187 C 
HETATM    5  C   UNK N   1      22.842  14.958   3.658  0.00  0.00     0.291 C 
HETATM    6  O   UNK N   1      23.705  14.181   2.849  0.00  0.00    -0.348 OA
ENDROOT
BRANCH   4   7
HETATM    7  O   UNK N   1      26.680  14.188   5.257  0.00  0.00    -0.348 OA
BRANCH   7   8
HETATM    8  C   UNK N   1      27.759  15.122   5.209  0.00  0.00     0.292 C 
HETATM    9  C   UNK N   1      27.762  16.077   6.412  0.00  0.00     0.204 C 
HETATM   10  C   UNK N   1      28.974  16.999   6.321  0.00  0.00     0.176 C 
HETATM   11  C   UNK N   1      30.247  16.138   6.358  0.00  0.00     0.137 C 
HETATM   12  C   UNK N   1      30.192  15.111   5.172  0.00  0.00     0.145 C 
HETATM   13  C   UNK N   1      31.127  13.953   5.446  0.00  0.00     0.042 C 
HETATM   14  O   UNK N   1      28.970  14.437   4.990  0.00  0.00    -0.352 OA
BRANCH   9  15
HETATM   15  O   UNK N   1      26.581  16.830   6.410  0.00  0.00    -0.388 OA
HETATM   16  H   UNK N   1      26.044  16.968   5.615  0.00  0.00     0.210 HD
ENDBRANCH   9  15
BRANCH  10  17
HETATM   17  O   UNK N   1      28.964  17.885   7.405  0.00  0.00    -0.391 OA
HETATM   18  H   UNK N   1      29.568  18.274   8.055  0.00  0.00     0.210 HD
ENDBRANCH  10  17
BRANCH  11  19
HETATM   19  N   UNK N   1      31.411  17.070   6.455  0.00  0.00    -0.402 N 
HETATM   20  H   UNK N   1      31.696  17.523   5.587  0.00  0.00     0.154 HD
BRANCH  19  21
HETATM   21  C   UNK N   1      32.203  17.417   7.662  0.00  0.00     0.132 C 
HETATM   22  C   UNK N   1      32.439  16.273   8.610  0.00  0.00     0.008 C 
HETATM   23  C   UNK N   1      33.617  16.042   9.222  0.00  0.00    -0.027 C 
HETATM   24  C   UNK N   1      34.791  16.989   9.067  0.00  0.00     0.180 C 
HETATM   25  C   UNK N   1      34.345  18.373   8.548  0.00  0.00     0.182 C 
HETATM   26  C   UNK N   1      33.476  18.219   7.298  0.00  0.00     0.175 C 
BRANCH  23  27
HETATM   27  C   UNK N   1      33.788  14.737   9.941  0.00  0.00     0.201 C 
BRANCH  27  28
HETATM   28  O   UNK N   1      33.589  14.893  11.312  0.00  0.00    -0.397 OA
HETATM   29  H   UNK N   1      32.705  14.968  11.703  0.00  0.00     0.209 HD
ENDBRANCH  27  28
ENDBRANCH  23  27
BRANCH  24  30
HETATM   30  O   UNK N   1      35.429  17.165  10.297  0.00  0.00    -0.388 OA
HETATM   31  H   UNK N   1      35.649  16.396  10.844  0.00  0.00     0.210 HD
ENDBRANCH  24  30
BRANCH  25  32
HETATM   32  O   UNK N   1      35.464  19.161   8.271  0.00  0.00    -0.390 OA
HETATM   33  H   UNK N   1      35.694  20.025   7.895  0.00  0.00     0.210 HD
ENDBRANCH  25  32
BRANCH  26  34
HETATM   34  O   UNK N   1      34.218  17.599   6.294  0.00  0.00    -0.391 OA
HETATM   35  H   UNK N   1      34.260  17.254   5.388  0.00  0.00     0.210 HD
ENDBRANCH  26  34
ENDBRANCH  19  21
ENDBRANCH  11  19
ENDBRANCH   7   8
ENDBRANCH   4   7
BRANCH   1  36
HETATM   36  C   UNK N   1      25.684  15.472   2.298  0.00  0.00     0.198 C 
BRANCH  36  37
HETATM   37  O   UNK N   1      26.969  15.192   1.825  0.00  0.00    -0.398 OA
HETATM   38  H   UNK N   1      27.743  14.974   1.284  0.00  0.00     0.209 HD
ENDBRANCH  36  37
ENDBRANCH   1  36
BRANCH   2  39
HETATM   39  O   UNK N   1      24.455  13.893   6.872  0.00  0.00    -0.390 OA
HETATM   40  H   UNK N   1      23.887  13.655   7.620  0.00  0.00     0.210 HD
ENDBRANCH   2  39
BRANCH   3  41
HETATM   41  O   UNK N   1      21.911  13.467   5.326  0.00  0.00    -0.388 OA
HETATM   42  H   UNK N   1      21.576  12.605   5.033  0.00  0.00     0.210 HD
ENDBRANCH   3  41
BRANCH   5  43
HETATM   43  O   UNK N   1      23.153  16.342   3.565  0.00  0.00    -0.356 OA
BRANCH  43  44
HETATM   44  C   UNK N   1      22.426  16.985   4.588  0.00  0.00     0.205 C 
BRANCH  44  45
HETATM   45  C   UNK N   1      22.040  18.419   4.275  0.00  0.00     0.180 C 
HETATM   46  C   UNK N   1      23.216  19.033   3.480  0.00  0.00     0.180 C 
HETATM   47  C   UNK N   1      22.844  20.438   3.008  0.00  0.00     0.183 C 
HETATM   48  C   UNK N   1      21.535  20.350   2.221  0.00  0.00     0.204 C 
HETATM   49  C   UNK N   1      20.465  19.703   3.118  0.00  0.00     0.288 C 
HETATM   50  O   UNK N   1      20.855  18.393   3.497  0.00  0.00    -0.349 OA
BRANCH  46  51
HETATM   51  O   UNK N   1      24.366  19.090   4.274  0.00  0.00    -0.390 OA
HETATM   52  H   UNK N   1      24.368  19.211   5.237  0.00  0.00     0.210 HD
ENDBRANCH  46  51
BRANCH  47  53
HETATM   53  O   UNK N   1      23.860  20.958   2.201  0.00  0.00    -0.390 OA
HETATM   54  H   UNK N   1      24.475  21.649   2.493  0.00  0.00     0.210 HD
ENDBRANCH  47  53
BRANCH  48  55
HETATM   55  O   UNK N   1      21.129  21.627   1.825  0.00  0.00    -0.388 OA
HETATM   56  H   UNK N   1      21.722  22.298   1.451  0.00  0.00     0.210 HD
ENDBRANCH  48  55
BRANCH  49  57
HETATM   57  O   UNK N   1      19.266  19.618   2.411  0.00  0.00    -0.369 OA
HETATM   58  H   UNK N   1      19.007  18.849   1.879  0.00  0.00     0.212 HD
ENDBRANCH  49  57
ENDBRANCH  44  45
ENDBRANCH  43  44
ENDBRANCH   5  43
TORSDOF 22
ENDMDL
MODEL 9
REMARK VINA RESULT:      -7.4      4.403      7.607
REMARK  22 active torsions:
REMARK  status: ('A' for Active; 'I' for Inactive)
REMARK    1  A    between atoms: C_7  and  C_3 
REMARK    2  A    between atoms: O_27  and  C_3 
REMARK    3  A    between atoms: C_9  and  C_4 
REMARK    4  A    between atoms: O_28  and  C_4 
REMARK    5  A    between atoms: C_10  and  C_5 
REMARK    6  A    between atoms: O_40  and  C_5 
REMARK    7  A    between atoms: C_8  and  N_26 
REMARK    8  A    between atoms: C_11  and  N_26 
REMARK    9  A    between atoms: C_12  and  O_29 
REMARK   10  A    between atoms: C_13  and  O_30 
REMARK   11  A    between atoms: C_14  and  O_31 
REMARK   12  A    between atoms: C_15  and  O_32 
REMARK   13  A    between atoms: C_16  and  O_33 
REMARK   14  A    between atoms: C_17  and  O_34 
REMARK   15  A    between atoms: C_18  and  O_35 
REMARK   16  A    between atoms: C_19  and  O_36 
REMARK   17  A    between atoms: C_20  and  O_37 
REMARK   18  A    between atoms: C_21  and  O_38 
REMARK   19  A    between atoms: C_22  and  O_44 
REMARK   20  A    between atoms: C_23  and  O_39 
REMARK   21  A    between atoms: C_24  and  O_40 
REMARK   22  A    between atoms: C_25  and  O_44 
ROOT
HETATM    1  C   UNK N   1      27.846  19.319   5.479  0.00  0.00     0.180 C 
HETATM    2  C   UNK N   1      27.388  16.862   5.318  0.00  0.00     0.183 C 
HETATM    3  C   UNK N   1      26.227  17.158   4.331  0.00  0.00     0.204 C 
HETATM    4  C   UNK N   1      27.531  18.008   6.313  0.00  0.00     0.187 C 
HETATM    5  C   UNK N   1      26.071  18.676   4.040  0.00  0.00     0.291 C 
HETATM    6  O   UNK N   1      27.329  19.316   4.143  0.00  0.00    -0.348 OA
ENDROOT
BRANCH   4   7
HETATM    7  O   UNK N   1      28.406  17.640   7.411  0.00  0.00    -0.348 OA
BRANCH   7   8
HETATM    8  C   UNK N   1      29.803  17.447   7.188  0.00  0.00     0.292 C 
HETATM    9  C   UNK N   1      30.601  17.375   8.499  0.00  0.00     0.204 C 
HETATM   10  C   UNK N   1      32.068  17.106   8.181  0.00  0.00     0.176 C 
HETATM   11  C   UNK N   1      32.172  15.756   7.453  0.00  0.00     0.137 C 
HETATM   12  C   UNK N   1      31.286  15.815   6.158  0.00  0.00     0.145 C 
HETATM   13  C   UNK N   1      30.956  14.415   5.692  0.00  0.00     0.042 C 
HETATM   14  O   UNK N   1      29.998  16.361   6.312  0.00  0.00    -0.352 OA
BRANCH   9  15
HETATM   15  O   UNK N   1      30.470  18.585   9.189  0.00  0.00    -0.388 OA
HETATM   16  H   UNK N   1      30.105  18.646  10.086  0.00  0.00     0.210 HD
ENDBRANCH   9  15
BRANCH  10  17
HETATM   17  O   UNK N   1      32.799  17.063   9.375  0.00  0.00    -0.391 OA
HETATM   18  H   UNK N   1      32.747  17.372  10.292  0.00  0.00     0.210 HD
ENDBRANCH  10  17
BRANCH  11  19
HETATM   19  N   UNK N   1      33.624  15.432   7.322  0.00  0.00    -0.402 N 
HETATM   20  H   UNK N   1      34.190  16.108   6.807  0.00  0.00     0.154 HD
BRANCH  19  21
HETATM   21  C   UNK N   1      34.346  14.247   7.850  0.00  0.00     0.132 C 
HETATM   22  C   UNK N   1      35.700  14.543   8.434  0.00  0.00     0.008 C 
HETATM   23  C   UNK N   1      36.160  13.988   9.572  0.00  0.00    -0.027 C 
HETATM   24  C   UNK N   1      35.366  12.932  10.316  0.00  0.00     0.180 C 
HETATM   25  C   UNK N   1      34.282  12.294   9.422  0.00  0.00     0.182 C 
HETATM   26  C   UNK N   1      33.436  13.380   8.753  0.00  0.00     0.175 C 
BRANCH  23  27
HETATM   27  C   UNK N   1      37.414  14.553  10.171  0.00  0.00     0.201 C 
BRANCH  27  28
HETATM   28  O   UNK N   1      37.175  15.803  10.738  0.00  0.00    -0.397 OA
HETATM   29  H   UNK N   1      37.677  16.133  11.498  0.00  0.00     0.209 HD
ENDBRANCH  27  28
ENDBRANCH  23  27
BRANCH  24  30
HETATM   30  O   UNK N   1      36.219  11.919  10.763  0.00  0.00    -0.388 OA
HETATM   31  H   UNK N   1      37.161  11.943  10.537  0.00  0.00     0.210 HD
ENDBRANCH  24  30
BRANCH  25  32
HETATM   32  O   UNK N   1      33.475  11.445  10.181  0.00  0.00    -0.390 OA
HETATM   33  H   UNK N   1      32.991  10.608  10.105  0.00  0.00     0.210 HD
ENDBRANCH  25  32
BRANCH  26  34
HETATM   34  O   UNK N   1      32.797  14.136   9.735  0.00  0.00    -0.391 OA
HETATM   35  H   UNK N   1      32.068  14.727   9.981  0.00  0.00     0.210 HD
ENDBRANCH  26  34
ENDBRANCH  19  21
ENDBRANCH  11  19
ENDBRANCH   7   8
ENDBRANCH   4   7
BRANCH   1  36
HETATM   36  C   UNK N   1      27.412  20.624   6.184  0.00  0.00     0.198 C 
BRANCH  36  37
HETATM   37  O   UNK N   1      26.626  20.417   7.322  0.00  0.00    -0.398 OA
HETATM   38  H   UNK N   1      25.943  20.445   8.008  0.00  0.00     0.209 HD
ENDBRANCH  36  37
ENDBRANCH   1  36
BRANCH   2  39
HETATM   39  O   UNK N   1      27.158  15.643   5.961  0.00  0.00    -0.390 OA
HETATM   40  H   UNK N   1      27.409  15.312   6.837  0.00  0.00     0.210 HD
ENDBRANCH   2  39
BRANCH   3  41
HETATM   41  O   UNK N   1      26.482  16.460   3.147  0.00  0.00    -0.388 OA
HETATM   42  H   UNK N   1      27.129  15.920   2.666  0.00  0.00     0.210 HD
ENDBRANCH   3  41
BRANCH   5  43
HETATM   43  O   UNK N   1      25.108  19.288   4.889  0.00  0.00    -0.356 OA
BRANCH  43  44
HETATM   44  C   UNK N   1      23.994  18.424   4.918  0.00  0.00     0.205 C 
BRANCH  44  45
HETATM   45  C   UNK N   1      23.022  18.618   3.769  0.00  0.00     0.180 C 
HETATM   46  C   UNK N   1      21.774  17.762   4.093  0.00  0.00     0.180 C 
HETATM   47  C   UNK N   1      20.689  18.012   3.047  0.00  0.00     0.183 C 
HETATM   48  C   UNK N   1      20.418  19.516   2.986  0.00  0.00     0.204 C 
HETATM   49  C   UNK N   1      21.740  20.243   2.681  0.00  0.00     0.288 C 
HETATM   50  O   UNK N   1      22.694  19.995   3.701  0.00  0.00    -0.349 OA
BRANCH  46  51
HETATM   51  O   UNK N   1      22.107  16.404   4.115  0.00  0.00    -0.390 OA
HETATM   52  H   UNK N   1      21.959  15.810   4.868  0.00  0.00     0.210 HD
ENDBRANCH  46  51
BRANCH  47  53
HETATM   53  O   UNK N   1      19.523  17.323   3.390  0.00  0.00    -0.390 OA
HETATM   54  H   UNK N   1      19.359  16.953   4.272  0.00  0.00     0.210 HD
ENDBRANCH  47  53
BRANCH  48  55
HETATM   55  O   UNK N   1      19.473  19.791   1.993  0.00  0.00    -0.388 OA
HETATM   56  H   UNK N   1      18.638  20.260   2.148  0.00  0.00     0.210 HD
ENDBRANCH  48  55
BRANCH  49  57
HETATM   57  O   UNK N   1      21.504  21.616   2.623  0.00  0.00    -0.369 OA
HETATM   58  H   UNK N   1      22.000  22.271   3.140  0.00  0.00     0.212 HD
ENDBRANCH  49  57
ENDBRANCH  44  45
ENDBRANCH  43  44
ENDBRANCH   5  43
TORSDOF 22
ENDMDL
