MODEL 1
REMARK VINA RESULT:      -4.7      0.000      0.000
REMARK  6 active torsions:
REMARK  status: ('A' for Active; 'I' for Inactive)
REMARK       I    between atoms: N_2  and  C_3 
REMARK    1  A    between atoms: C_3  and  C_5 
REMARK    2  A    between atoms: C_5  and  C_6 
REMARK    3  A    between atoms: C_6  and  C_7 
REMARK    4  A    between atoms: C_7  and  N_8 
REMARK    5  A    between atoms: C_7  and  C_9 
REMARK    6  A    between atoms: C_9  and  O_10 
ROOT
HETATM    1  C   UNK N   1      34.450  17.039   9.019  0.00  0.00     0.173 C 
ENDROOT
BRANCH   1   2
HETATM    2  C   UNK N   1      33.795  15.719   8.629  0.00  0.00     0.044 C 
BRANCH   2   3
HETATM    3  C   UNK N   1      32.333  15.595   9.033  0.00  0.00     0.105 C 
BRANCH   3   4
HETATM    4  C   UNK N   1      31.523  16.762   8.558  0.00  0.00     0.217 C 
HETATM    5  N   UNK N   1      30.862  17.548   9.443  0.00  0.00    -0.365 N 
HETATM    6  C   UNK N   1      30.074  18.679   9.029  0.00  0.00     0.149 C 
HETATM    7  H   UNK N   1      30.923  17.338  10.403  0.00  0.00     0.161 HD
HETATM    8  O   UNK N   1      31.466  16.997   7.358  0.00  0.00    -0.274 OA
ENDBRANCH   3   4
ENDBRANCH   2   3
ENDBRANCH   1   2
BRANCH   1   9
HETATM    9  N   UNK N   1      34.884  17.141  10.401  0.00  0.00    -0.418 N 
HETATM   10  H   UNK N   1      35.708  17.694  10.637  0.00  0.00     0.150 HD
HETATM   11  H   UNK N   1      34.366  16.659  11.136  0.00  0.00     0.150 HD
ENDBRANCH   1   9
BRANCH   1  12
HETATM   12  C   UNK N   1      34.702  18.231   8.135  0.00  0.00     0.163 C 
HETATM   13  O   UNK N   1      35.267  19.223   8.567  0.00  0.00    -0.648 OA
BRANCH  12  14
HETATM   14  O   UNK N   1      34.301  18.205   6.850  0.00  0.00    -0.775 OA
HETATM   15  H   UNK N   1      34.875  17.876   6.187  0.00  0.00     0.167 HD
ENDBRANCH  12  14
ENDBRANCH   1  12
TORSDOF 6
ENDMDL
MODEL 2
REMARK VINA RESULT:      -4.7     11.569     12.463
REMARK  6 active torsions:
REMARK  status: ('A' for Active; 'I' for Inactive)
REMARK       I    between atoms: N_2  and  C_3 
REMARK    1  A    between atoms: C_3  and  C_5 
REMARK    2  A    between atoms: C_5  and  C_6 
REMARK    3  A    between atoms: C_6  and  C_7 
REMARK    4  A    between atoms: C_7  and  N_8 
REMARK    5  A    between atoms: C_7  and  C_9 
REMARK    6  A    between atoms: C_9  and  O_10 
ROOT
HETATM    1  C   UNK N   1      22.428  12.344  11.324  0.00  0.00     0.173 C 
ENDROOT
BRANCH   1   2
HETATM    2  C   UNK N   1      22.594  13.091  10.006  0.00  0.00     0.044 C 
BRANCH   2   3
HETATM    3  C   UNK N   1      21.385  13.024   9.084  0.00  0.00     0.105 C 
BRANCH   3   4
HETATM    4  C   UNK N   1      20.519  14.240   9.211  0.00  0.00     0.217 C 
HETATM    5  N   UNK N   1      20.901  15.419   8.661  0.00  0.00    -0.365 N 
HETATM    6  C   UNK N   1      20.099  16.609   8.759  0.00  0.00     0.149 C 
HETATM    7  H   UNK N   1      21.758  15.461   8.177  0.00  0.00     0.161 HD
HETATM    8  O   UNK N   1      19.461  14.154   9.819  0.00  0.00    -0.274 OA
ENDBRANCH   3   4
ENDBRANCH   2   3
ENDBRANCH   1   2
BRANCH   1   9
HETATM    9  N   UNK N   1      21.086  11.869  11.613  0.00  0.00    -0.418 N 
HETATM   10  H   UNK N   1      20.305  12.525  11.622  0.00  0.00     0.150 HD
HETATM   11  H   UNK N   1      20.924  10.881  11.806  0.00  0.00     0.150 HD
ENDBRANCH   1   9
BRANCH   1  12
HETATM   12  C   UNK N   1      23.493  12.038  12.342  0.00  0.00     0.163 C 
HETATM   13  O   UNK N   1      23.196  11.693  13.475  0.00  0.00    -0.648 OA
BRANCH  12  14
HETATM   14  O   UNK N   1      24.791  12.144  12.003  0.00  0.00    -0.775 OA
HETATM   15  H   UNK N   1      25.068  11.926  11.135  0.00  0.00     0.167 HD
ENDBRANCH  12  14
ENDBRANCH   1  12
TORSDOF 6
ENDMDL
MODEL 3
REMARK VINA RESULT:      -4.6      3.325      4.769
REMARK  6 active torsions:
REMARK  status: ('A' for Active; 'I' for Inactive)
REMARK       I    between atoms: N_2  and  C_3 
REMARK    1  A    between atoms: C_3  and  C_5 
REMARK    2  A    between atoms: C_5  and  C_6 
REMARK    3  A    between atoms: C_6  and  C_7 
REMARK    4  A    between atoms: C_7  and  N_8 
REMARK    5  A    between atoms: C_7  and  C_9 
REMARK    6  A    between atoms: C_9  and  O_10 
ROOT
HETATM    1  C   UNK N   1      34.508  17.154   9.339  0.00  0.00     0.173 C 
ENDROOT
BRANCH   1   2
HETATM    2  C   UNK N   1      35.358  16.865  10.571  0.00  0.00     0.044 C 
BRANCH   2   3
HETATM    3  C   UNK N   1      35.966  15.470  10.607  0.00  0.00     0.105 C 
BRANCH   3   4
HETATM    4  C   UNK N   1      35.672  14.767  11.896  0.00  0.00     0.217 C 
HETATM    5  N   UNK N   1      36.630  14.645  12.848  0.00  0.00    -0.365 N 
HETATM    6  C   UNK N   1      36.388  13.978  14.100  0.00  0.00     0.149 C 
HETATM    7  H   UNK N   1      37.521  15.027  12.677  0.00  0.00     0.161 HD
HETATM    8  O   UNK N   1      34.555  14.303  12.078  0.00  0.00    -0.274 OA
ENDBRANCH   3   4
ENDBRANCH   2   3
ENDBRANCH   1   2
BRANCH   1   9
HETATM    9  N   UNK N   1      33.307  16.349   9.201  0.00  0.00    -0.418 N 
HETATM   10  H   UNK N   1      33.062  15.951   8.295  0.00  0.00     0.150 HD
HETATM   11  H   UNK N   1      32.708  16.183  10.010  0.00  0.00     0.150 HD
ENDBRANCH   1   9
BRANCH   1  12
HETATM   12  C   UNK N   1      34.770  18.178   8.268  0.00  0.00     0.163 C 
HETATM   13  O   UNK N   1      34.452  17.967   7.109  0.00  0.00    -0.648 OA
BRANCH  12  14
HETATM   14  O   UNK N   1      35.362  19.343   8.589  0.00  0.00    -0.775 OA
HETATM   15  H   UNK N   1      35.752  19.454   9.433  0.00  0.00     0.167 HD
ENDBRANCH  12  14
ENDBRANCH   1  12
TORSDOF 6
ENDMDL
MODEL 4
REMARK VINA RESULT:      -4.6      1.663      1.784
REMARK  6 active torsions:
REMARK  status: ('A' for Active; 'I' for Inactive)
REMARK       I    between atoms: N_2  and  C_3 
REMARK    1  A    between atoms: C_3  and  C_5 
REMARK    2  A    between atoms: C_5  and  C_6 
REMARK    3  A    between atoms: C_6  and  C_7 
REMARK    4  A    between atoms: C_7  and  N_8 
REMARK    5  A    between atoms: C_7  and  C_9 
REMARK    6  A    between atoms: C_9  and  O_10 
ROOT
HETATM    1  C   UNK N   1      33.959  17.258   8.984  0.00  0.00     0.173 C 
ENDROOT
BRANCH   1   2
HETATM    2  C   UNK N   1      32.682  16.461   8.739  0.00  0.00     0.044 C 
BRANCH   2   3
HETATM    3  C   UNK N   1      31.446  17.311   8.484  0.00  0.00     0.105 C 
BRANCH   3   4
HETATM    4  C   UNK N   1      30.988  17.216   7.061  0.00  0.00     0.217 C 
HETATM    5  N   UNK N   1      29.688  17.428   6.740  0.00  0.00    -0.365 N 
HETATM    6  C   UNK N   1      29.207  17.347   5.386  0.00  0.00     0.149 C 
HETATM    7  H   UNK N   1      29.050  17.645   7.459  0.00  0.00     0.161 HD
HETATM    8  O   UNK N   1      31.805  16.945   6.191  0.00  0.00    -0.274 OA
ENDBRANCH   3   4
ENDBRANCH   2   3
ENDBRANCH   1   2
BRANCH   1   9
HETATM    9  N   UNK N   1      34.630  16.996  10.245  0.00  0.00    -0.418 N 
HETATM   10  H   UNK N   1      34.697  16.042  10.598  0.00  0.00     0.150 HD
HETATM   11  H   UNK N   1      35.034  17.767  10.778  0.00  0.00     0.150 HD
ENDBRANCH   1   9
BRANCH   1  12
HETATM   12  C   UNK N   1      34.598  18.266   8.068  0.00  0.00     0.163 C 
HETATM   13  O   UNK N   1      35.251  19.195   8.516  0.00  0.00    -0.648 OA
BRANCH  12  14
HETATM   14  O   UNK N   1      34.450  18.145   6.735  0.00  0.00    -0.775 OA
HETATM   15  H   UNK N   1      33.604  18.247   6.346  0.00  0.00     0.167 HD
ENDBRANCH  12  14
ENDBRANCH   1  12
TORSDOF 6
ENDMDL
MODEL 5
REMARK VINA RESULT:      -4.5     12.019     13.642
REMARK  6 active torsions:
REMARK  status: ('A' for Active; 'I' for Inactive)
REMARK       I    between atoms: N_2  and  C_3 
REMARK    1  A    between atoms: C_3  and  C_5 
REMARK    2  A    between atoms: C_5  and  C_6 
REMARK    3  A    between atoms: C_6  and  C_7 
REMARK    4  A    between atoms: C_7  and  N_8 
REMARK    5  A    between atoms: C_7  and  C_9 
REMARK    6  A    between atoms: C_9  and  O_10 
ROOT
HETATM    1  C   UNK N   1      20.240  19.021   2.388  0.00  0.00     0.173 C 
ENDROOT
BRANCH   1   2
HETATM    2  C   UNK N   1      21.010  18.235   3.444  0.00  0.00     0.044 C 
BRANCH   2   3
HETATM    3  C   UNK N   1      21.388  19.039   4.680  0.00  0.00     0.105 C 
BRANCH   3   4
HETATM    4  C   UNK N   1      21.341  18.205   5.923  0.00  0.00     0.217 C 
HETATM    5  N   UNK N   1      21.641  16.883   5.878  0.00  0.00    -0.365 N 
HETATM    6  C   UNK N   1      21.609  16.047   7.048  0.00  0.00     0.149 C 
HETATM    7  H   UNK N   1      21.889  16.482   5.014  0.00  0.00     0.161 HD
HETATM    8  O   UNK N   1      21.029  18.733   6.982  0.00  0.00    -0.274 OA
ENDBRANCH   3   4
ENDBRANCH   2   3
ENDBRANCH   1   2
BRANCH   1   9
HETATM    9  N   UNK N   1      18.816  18.747   2.315  0.00  0.00    -0.418 N 
HETATM   10  H   UNK N   1      18.150  19.396   2.732  0.00  0.00     0.150 HD
HETATM   11  H   UNK N   1      18.482  17.904   1.846  0.00  0.00     0.150 HD
ENDBRANCH   1   9
BRANCH   1  12
HETATM   12  C   UNK N   1      20.788  20.046   1.433  0.00  0.00     0.163 C 
HETATM   13  O   UNK N   1      21.385  21.029   1.842  0.00  0.00    -0.648 OA
BRANCH  12  14
HETATM   14  O   UNK N   1      20.620  19.880   0.107  0.00  0.00    -0.775 OA
HETATM   15  H   UNK N   1      19.781  20.028  -0.281  0.00  0.00     0.167 HD
ENDBRANCH  12  14
ENDBRANCH   1  12
TORSDOF 6
ENDMDL
MODEL 6
REMARK VINA RESULT:      -4.4      5.566      6.512
REMARK  6 active torsions:
REMARK  status: ('A' for Active; 'I' for Inactive)
REMARK       I    between atoms: N_2  and  C_3 
REMARK    1  A    between atoms: C_3  and  C_5 
REMARK    2  A    between atoms: C_5  and  C_6 
REMARK    3  A    between atoms: C_6  and  C_7 
REMARK    4  A    between atoms: C_7  and  N_8 
REMARK    5  A    between atoms: C_7  and  C_9 
REMARK    6  A    between atoms: C_9  and  O_10 
ROOT
HETATM    1  C   UNK N   1      34.892  15.013  11.328  0.00  0.00     0.173 C 
ENDROOT
BRANCH   1   2
HETATM    2  C   UNK N   1      35.349  13.794  12.121  0.00  0.00     0.044 C 
BRANCH   2   3
HETATM    3  C   UNK N   1      35.991  14.116  13.462  0.00  0.00     0.105 C 
BRANCH   3   4
HETATM    4  C   UNK N   1      35.360  13.347  14.581  0.00  0.00     0.217 C 
HETATM    5  N   UNK N   1      35.869  13.414  15.837  0.00  0.00    -0.365 N 
HETATM    6  C   UNK N   1      35.293  12.691  16.940  0.00  0.00     0.149 C 
HETATM    7  H   UNK N   1      36.661  13.976  15.999  0.00  0.00     0.161 HD
HETATM    8  O   UNK N   1      34.377  12.656  14.348  0.00  0.00    -0.274 OA
ENDBRANCH   3   4
ENDBRANCH   2   3
ENDBRANCH   1   2
BRANCH   1   9
HETATM    9  N   UNK N   1      33.492  15.021  10.939  0.00  0.00    -0.418 N 
HETATM   10  H   UNK N   1      32.809  14.496  11.484  0.00  0.00     0.150 HD
HETATM   11  H   UNK N   1      33.193  15.552  10.121  0.00  0.00     0.150 HD
ENDBRANCH   1   9
BRANCH   1  12
HETATM   12  C   UNK N   1      35.720  16.200  10.919  0.00  0.00     0.163 C 
HETATM   13  O   UNK N   1      35.197  17.276  10.675  0.00  0.00    -0.648 OA
BRANCH  12  14
HETATM   14  O   UNK N   1      37.057  16.079  10.820  0.00  0.00    -0.775 OA
HETATM   15  H   UNK N   1      37.431  15.331  10.397  0.00  0.00     0.167 HD
ENDBRANCH  12  14
ENDBRANCH   1  12
TORSDOF 6
ENDMDL
MODEL 7
REMARK VINA RESULT:      -4.4     13.418     14.692
REMARK  6 active torsions:
REMARK  status: ('A' for Active; 'I' for Inactive)
REMARK       I    between atoms: N_2  and  C_3 
REMARK    1  A    between atoms: C_3  and  C_5 
REMARK    2  A    between atoms: C_5  and  C_6 
REMARK    3  A    between atoms: C_6  and  C_7 
REMARK    4  A    between atoms: C_7  and  N_8 
REMARK    5  A    between atoms: C_7  and  C_9 
REMARK    6  A    between atoms: C_9  and  O_10 
ROOT
HETATM    1  C   UNK N   1      20.767  19.667   2.018  0.00  0.00     0.173 C 
ENDROOT
BRANCH   1   2
HETATM    2  C   UNK N   1      19.968  18.460   2.497  0.00  0.00     0.044 C 
BRANCH   2   3
HETATM    3  C   UNK N   1      20.579  17.114   2.134  0.00  0.00     0.105 C 
BRANCH   3   4
HETATM    4  C   UNK N   1      19.920  16.509   0.933  0.00  0.00     0.217 C 
HETATM    5  N   UNK N   1      19.115  15.425   1.061  0.00  0.00    -0.365 N 
HETATM    6  C   UNK N   1      18.462  14.815  -0.067  0.00  0.00     0.149 C 
HETATM    7  H   UNK N   1      18.972  15.043   1.957  0.00  0.00     0.161 HD
HETATM    8  O   UNK N   1      20.117  17.007  -0.168  0.00  0.00    -0.274 OA
ENDBRANCH   3   4
ENDBRANCH   2   3
ENDBRANCH   1   2
BRANCH   1   9
HETATM    9  N   UNK N   1      20.494  20.103   0.660  0.00  0.00    -0.418 N 
HETATM   10  H   UNK N   1      20.888  20.979   0.318  0.00  0.00     0.150 HD
HETATM   11  H   UNK N   1      19.909  19.533   0.049  0.00  0.00     0.150 HD
ENDBRANCH   1   9
BRANCH   1  12
HETATM   12  C   UNK N   1      21.787  20.454   2.795  0.00  0.00     0.163 C 
HETATM   13  O   UNK N   1      22.551  19.898   3.569  0.00  0.00    -0.648 OA
BRANCH  12  14
HETATM   14  O   UNK N   1      21.864  21.788   2.637  0.00  0.00    -0.775 OA
HETATM   15  H   UNK N   1      22.024  22.151   1.788  0.00  0.00     0.167 HD
ENDBRANCH  12  14
ENDBRANCH   1  12
TORSDOF 6
ENDMDL
MODEL 8
REMARK VINA RESULT:      -4.2      2.238      4.832
REMARK  6 active torsions:
REMARK  status: ('A' for Active; 'I' for Inactive)
REMARK       I    between atoms: N_2  and  C_3 
REMARK    1  A    between atoms: C_3  and  C_5 
REMARK    2  A    between atoms: C_5  and  C_6 
REMARK    3  A    between atoms: C_6  and  C_7 
REMARK    4  A    between atoms: C_7  and  N_8 
REMARK    5  A    between atoms: C_7  and  C_9 
REMARK    6  A    between atoms: C_9  and  O_10 
ROOT
HETATM    1  C   UNK N   1      29.860  17.509   8.353  0.00  0.00     0.173 C 
ENDROOT
BRANCH   1   2
HETATM    2  C   UNK N   1      31.316  17.066   8.446  0.00  0.00     0.044 C 
BRANCH   2   3
HETATM    3  C   UNK N   1      32.319  18.074   7.904  0.00  0.00     0.105 C 
BRANCH   3   4
HETATM    4  C   UNK N   1      33.708  17.792   8.387  0.00  0.00     0.217 C 
HETATM    5  N   UNK N   1      33.912  17.146   9.562  0.00  0.00    -0.365 N 
HETATM    6  C   UNK N   1      35.230  16.855  10.061  0.00  0.00     0.149 C 
HETATM    7  H   UNK N   1      33.131  16.867  10.092  0.00  0.00     0.161 HD
HETATM    8  O   UNK N   1      34.659  18.152   7.705  0.00  0.00    -0.274 OA
ENDBRANCH   3   4
ENDBRANCH   2   3
ENDBRANCH   1   2
BRANCH   1   9
HETATM    9  N   UNK N   1      29.181  17.180   7.112  0.00  0.00    -0.418 N 
HETATM   10  H   UNK N   1      29.721  17.041   6.258  0.00  0.00     0.150 HD
HETATM   11  H   UNK N   1      28.165  17.090   7.094  0.00  0.00     0.150 HD
ENDBRANCH   1   9
BRANCH   1  12
HETATM   12  C   UNK N   1      29.056  18.231   9.399  0.00  0.00     0.163 C 
HETATM   13  O   UNK N   1      29.606  18.871  10.282  0.00  0.00    -0.648 OA
BRANCH  12  14
HETATM   14  O   UNK N   1      27.711  18.176   9.364  0.00  0.00    -0.775 OA
HETATM   15  H   UNK N   1      27.281  17.604   8.760  0.00  0.00     0.167 HD
ENDBRANCH  12  14
ENDBRANCH   1  12
TORSDOF 6
ENDMDL
MODEL 9
REMARK VINA RESULT:      -4.2      9.146     10.036
REMARK  6 active torsions:
REMARK  status: ('A' for Active; 'I' for Inactive)
REMARK       I    between atoms: N_2  and  C_3 
REMARK    1  A    between atoms: C_3  and  C_5 
REMARK    2  A    between atoms: C_5  and  C_6 
REMARK    3  A    between atoms: C_6  and  C_7 
REMARK    4  A    between atoms: C_7  and  N_8 
REMARK    5  A    between atoms: C_7  and  C_9 
REMARK    6  A    between atoms: C_9  and  O_10 
ROOT
HETATM    1  C   UNK N   1      35.220  13.457  18.088  0.00  0.00     0.173 C 
ENDROOT
BRANCH   1   2
HETATM    2  C   UNK N   1      34.995  13.227  16.598  0.00  0.00     0.044 C 
BRANCH   2   3
HETATM    3  C   UNK N   1      36.214  13.494  15.726  0.00  0.00     0.105 C 
BRANCH   3   4
HETATM    4  C   UNK N   1      35.855  13.568  14.274  0.00  0.00     0.217 C 
HETATM    5  N   UNK N   1      36.773  13.959  13.356  0.00  0.00    -0.365 N 
HETATM    6  C   UNK N   1      36.469  14.042  11.952  0.00  0.00     0.149 C 
HETATM    7  H   UNK N   1      37.679  14.193  13.661  0.00  0.00     0.161 HD
HETATM    8  O   UNK N   1      34.720  13.270  13.927  0.00  0.00    -0.274 OA
ENDBRANCH   3   4
ENDBRANCH   2   3
ENDBRANCH   1   2
BRANCH   1   9
HETATM    9  N   UNK N   1      35.344  14.845  18.498  0.00  0.00    -0.418 N 
HETATM   10  H   UNK N   1      34.550  15.323  18.924  0.00  0.00     0.150 HD
HETATM   11  H   UNK N   1      36.224  15.342  18.359  0.00  0.00     0.150 HD
ENDBRANCH   1   9
BRANCH   1  12
HETATM   12  C   UNK N   1      35.317  12.416  19.169  0.00  0.00     0.163 C 
HETATM   13  O   UNK N   1      35.105  11.239  18.926  0.00  0.00    -0.648 OA
BRANCH  12  14
HETATM   14  O   UNK N   1      35.642  12.783  20.423  0.00  0.00    -0.775 OA
HETATM   15  H   UNK N   1      36.032  13.619  20.580  0.00  0.00     0.167 HD
ENDBRANCH  12  14
ENDBRANCH   1  12
TORSDOF 6
ENDMDL
