MODEL 1
REMARK VINA RESULT:      -6.2      0.000      0.000
REMARK  7 active torsions:
REMARK  status: ('A' for Active; 'I' for Inactive)
REMARK    1  A    between atoms: C_4  and  O_13 
REMARK    2  A    between atoms: C_5  and  O_19 
REMARK    3  A    between atoms: C_6  and  O_14 
REMARK    4  A    between atoms: C_7  and  O_15 
REMARK    5  A    between atoms: C_8  and  O_16 
REMARK    6  A    between atoms: O_17  and  C_9 
REMARK    7  A    between atoms: C_10  and  O_19 
ROOT
HETATM    1  C   UNK N   1      29.113  17.723   5.444  0.00  0.00     0.205 C 
HETATM    2  C   UNK N   1      28.239  18.510   6.434  0.00  0.00     0.173 C 
HETATM    3  C   UNK N   1      28.847  18.512   7.846  0.00  0.00     0.182 C 
HETATM    4  C   UNK N   1      29.571  17.177   8.074  0.00  0.00     0.204 C 
HETATM    5  C   UNK N   1      30.761  17.191   7.072  0.00  0.00     0.291 C 
HETATM    6  O   UNK N   1      30.492  17.665   5.752  0.00  0.00    -0.356 OA
ENDROOT
BRANCH   5   7
HETATM    7  O   UNK N   1      31.632  16.071   7.101  0.00  0.00    -0.350 OA
BRANCH   7   8
HETATM    8  C   UNK N   1      32.973  16.239   7.539  0.00  0.00     0.163 C 
HETATM    9  C   UNK N   1      32.943  15.857   9.015  0.00  0.00     0.055 C 
HETATM   10  C   UNK N   1      34.344  15.961   9.603  0.00  0.00     0.124 C 
HETATM   11  N   UNK N   1      34.893  17.283   9.425  0.00  0.00    -0.372 N 
HETATM   12  C   UNK N   1      34.546  18.082   8.462  0.00  0.00     0.143 C 
ATOM     13  HN  UNK N   1      35.592  17.609  10.093  1.00  0.00     0.161 HD
HETATM   14  C   UNK N   1      33.511  17.690   7.425  0.00  0.00     0.221 C 
BRANCH  12  15
HETATM   15  O   UNK N   1      35.091  19.308   8.405  0.00  0.00    -0.348 OA
HETATM   16  H   UNK N   1      34.547  20.059   8.267  0.00  0.00     0.219 HD
ENDBRANCH  12  15
BRANCH  14  17
HETATM   17  O   UNK N   1      34.096  17.861   6.170  0.00  0.00    -0.385 OA
HETATM   18  H   UNK N   1      33.853  17.571   5.277  0.00  0.00     0.210 HD
ENDBRANCH  14  17
ENDBRANCH   7   8
ENDBRANCH   5   7
BRANCH   4  19
HETATM   19  O   UNK N   1      30.056  17.103   9.383  0.00  0.00    -0.388 OA
HETATM   20  H   UNK N   1      30.124  16.242   9.827  0.00  0.00     0.210 HD
ENDBRANCH   4  19
BRANCH   3  21
HETATM   21  O   UNK N   1      27.861  18.749   8.808  0.00  0.00    -0.390 OA
HETATM   22  H   UNK N   1      26.948  18.443   8.934  0.00  0.00     0.210 HD
ENDBRANCH   3  21
BRANCH   2  23
HETATM   23  O   UNK N   1      26.992  17.881   6.456  0.00  0.00    -0.391 OA
HETATM   24  H   UNK N   1      26.293  17.213   6.380  0.00  0.00     0.210 HD
ENDBRANCH   2  23
TORSDOF 7
ENDMDL
MODEL 2
REMARK VINA RESULT:      -6.0     10.351     11.767
REMARK  7 active torsions:
REMARK  status: ('A' for Active; 'I' for Inactive)
REMARK    1  A    between atoms: C_4  and  O_13 
REMARK    2  A    between atoms: C_5  and  O_19 
REMARK    3  A    between atoms: C_6  and  O_14 
REMARK    4  A    between atoms: C_7  and  O_15 
REMARK    5  A    between atoms: C_8  and  O_16 
REMARK    6  A    between atoms: O_17  and  C_9 
REMARK    7  A    between atoms: C_10  and  O_19 
ROOT
HETATM    1  C   UNK N   1      21.790  19.721   2.884  0.00  0.00     0.205 C 
HETATM    2  C   UNK N   1      20.402  19.781   2.226  0.00  0.00     0.173 C 
HETATM    3  C   UNK N   1      19.407  18.835   2.918  0.00  0.00     0.182 C 
HETATM    4  C   UNK N   1      20.167  17.597   3.416  0.00  0.00     0.204 C 
HETATM    5  C   UNK N   1      21.122  18.133   4.521  0.00  0.00     0.291 C 
HETATM    6  O   UNK N   1      21.808  19.356   4.250  0.00  0.00    -0.356 OA
ENDROOT
BRANCH   5   7
HETATM    7  O   UNK N   1      21.928  17.173   5.188  0.00  0.00    -0.350 OA
BRANCH   7   8
HETATM    8  C   UNK N   1      21.737  16.944   6.577  0.00  0.00     0.163 C 
HETATM    9  C   UNK N   1      21.571  15.433   6.696  0.00  0.00     0.055 C 
HETATM   10  C   UNK N   1      21.393  15.047   8.158  0.00  0.00     0.124 C 
HETATM   11  N   UNK N   1      20.273  15.736   8.752  0.00  0.00    -0.372 N 
HETATM   12  C   UNK N   1      19.837  16.888   8.340  0.00  0.00     0.143 C 
ATOM     13  HN  UNK N   1      19.797  15.295   9.539  1.00  0.00     0.161 HD
HETATM   14  C   UNK N   1      20.474  17.619   7.174  0.00  0.00     0.221 C 
BRANCH  12  15
HETATM   15  O   UNK N   1      18.764  17.429   8.938  0.00  0.00    -0.348 OA
HETATM   16  H   UNK N   1      18.008  17.658   8.433  0.00  0.00     0.219 HD
ENDBRANCH  12  15
BRANCH  14  17
HETATM   17  O   UNK N   1      20.810  18.898   7.620  0.00  0.00    -0.385 OA
HETATM   18  H   UNK N   1      21.506  19.527   7.376  0.00  0.00     0.210 HD
ENDBRANCH  14  17
ENDBRANCH   7   8
ENDBRANCH   5   7
BRANCH   4  19
HETATM   19  O   UNK N   1      19.280  16.669   3.967  0.00  0.00    -0.388 OA
HETATM   20  H   UNK N   1      19.356  15.729   3.739  0.00  0.00     0.210 HD
ENDBRANCH   4  19
BRANCH   3  21
HETATM   21  O   UNK N   1      18.361  18.500   2.053  0.00  0.00    -0.390 OA
HETATM   22  H   UNK N   1      18.306  18.268   1.112  0.00  0.00     0.210 HD
ENDBRANCH   3  21
BRANCH   2  23
HETATM   23  O   UNK N   1      20.573  19.397   0.894  0.00  0.00    -0.391 OA
HETATM   24  H   UNK N   1      20.501  18.915   0.055  0.00  0.00     0.210 HD
ENDBRANCH   2  23
TORSDOF 7
ENDMDL
MODEL 3
REMARK VINA RESULT:      -5.8      2.664      6.323
REMARK  7 active torsions:
REMARK  status: ('A' for Active; 'I' for Inactive)
REMARK    1  A    between atoms: C_4  and  O_13 
REMARK    2  A    between atoms: C_5  and  O_19 
REMARK    3  A    between atoms: C_6  and  O_14 
REMARK    4  A    between atoms: C_7  and  O_15 
REMARK    5  A    between atoms: C_8  and  O_16 
REMARK    6  A    between atoms: O_17  and  C_9 
REMARK    7  A    between atoms: C_10  and  O_19 
ROOT
HETATM    1  C   UNK N   1      33.793  14.224   9.613  0.00  0.00     0.205 C 
HETATM    2  C   UNK N   1      35.115  14.503  10.345  0.00  0.00     0.173 C 
HETATM    3  C   UNK N   1      35.363  16.011  10.510  0.00  0.00     0.182 C 
HETATM    4  C   UNK N   1      34.781  16.744   9.292  0.00  0.00     0.204 C 
HETATM    5  C   UNK N   1      33.243  16.525   9.393  0.00  0.00     0.291 C 
HETATM    6  O   UNK N   1      32.795  15.217   9.746  0.00  0.00    -0.356 OA
ENDROOT
BRANCH   5   7
HETATM    7  O   UNK N   1      32.445  17.143   8.393  0.00  0.00    -0.350 OA
BRANCH   7   8
HETATM    8  C   UNK N   1      31.098  16.729   8.220  0.00  0.00     0.163 C 
HETATM    9  C   UNK N   1      30.763  17.107   6.782  0.00  0.00     0.055 C 
HETATM   10  C   UNK N   1      29.339  16.679   6.454  0.00  0.00     0.124 C 
HETATM   11  N   UNK N   1      28.390  17.258   7.372  0.00  0.00    -0.372 N 
HETATM   12  C   UNK N   1      28.686  17.605   8.588  0.00  0.00     0.143 C 
ATOM     13  HN  UNK N   1      27.433  17.404   7.049  1.00  0.00     0.161 HD
HETATM   14  C   UNK N   1      30.081  17.434   9.156  0.00  0.00     0.221 C 
BRANCH  12  15
HETATM   15  O   UNK N   1      27.737  18.170   9.353  0.00  0.00    -0.348 OA
HETATM   16  H   UNK N   1      27.158  17.634   9.858  0.00  0.00     0.219 HD
ENDBRANCH  12  15
BRANCH  14  17
HETATM   17  O   UNK N   1      29.961  16.698  10.336  0.00  0.00    -0.385 OA
HETATM   18  H   UNK N   1      29.928  15.747  10.527  0.00  0.00     0.210 HD
ENDBRANCH  14  17
ENDBRANCH   7   8
ENDBRANCH   5   7
BRANCH   4  19
HETATM   19  O   UNK N   1      35.070  18.109   9.361  0.00  0.00    -0.388 OA
HETATM   20  H   UNK N   1      34.435  18.758   9.015  0.00  0.00     0.210 HD
ENDBRANCH   4  19
BRANCH   3  21
HETATM   21  O   UNK N   1      36.725  16.273  10.682  0.00  0.00    -0.390 OA
HETATM   22  H   UNK N   1      37.238  16.830  11.289  0.00  0.00     0.210 HD
ENDBRANCH   3  21
BRANCH   2  23
HETATM   23  O   UNK N   1      36.130  13.939   9.569  0.00  0.00    -0.391 OA
HETATM   24  H   UNK N   1      37.004  13.671   9.244  0.00  0.00     0.210 HD
ENDBRANCH   2  23
TORSDOF 7
ENDMDL
MODEL 4
REMARK VINA RESULT:      -5.7      4.597      7.699
REMARK  7 active torsions:
REMARK  status: ('A' for Active; 'I' for Inactive)
REMARK    1  A    between atoms: C_4  and  O_13 
REMARK    2  A    between atoms: C_5  and  O_19 
REMARK    3  A    between atoms: C_6  and  O_14 
REMARK    4  A    between atoms: C_7  and  O_15 
REMARK    5  A    between atoms: C_8  and  O_16 
REMARK    6  A    between atoms: O_17  and  C_9 
REMARK    7  A    between atoms: C_10  and  O_19 
ROOT
HETATM    1  C   UNK N   1      35.547  12.102  12.975  0.00  0.00     0.205 C 
HETATM    2  C   UNK N   1      36.258  12.798  14.147  0.00  0.00     0.173 C 
HETATM    3  C   UNK N   1      36.271  14.325  13.974  0.00  0.00     0.182 C 
HETATM    4  C   UNK N   1      36.371  14.652  12.477  0.00  0.00     0.204 C 
HETATM    5  C   UNK N   1      35.034  14.141  11.868  0.00  0.00     0.291 C 
HETATM    6  O   UNK N   1      34.561  12.869  12.311  0.00  0.00    -0.356 OA
ENDROOT
BRANCH   5   7
HETATM    7  O   UNK N   1      34.843  14.358  10.477  0.00  0.00    -0.350 OA
BRANCH   7   8
HETATM    8  C   UNK N   1      34.070  15.467  10.042  0.00  0.00     0.163 C 
HETATM    9  C   UNK N   1      32.995  14.858   9.150  0.00  0.00     0.055 C 
HETATM   10  C   UNK N   1      32.065  15.951   8.641  0.00  0.00     0.124 C 
HETATM   11  N   UNK N   1      32.795  16.978   7.939  0.00  0.00    -0.372 N 
HETATM   12  C   UNK N   1      34.042  17.259   8.168  0.00  0.00     0.143 C 
ATOM     13  HN  UNK N   1      32.305  17.513   7.222  1.00  0.00     0.161 HD
HETATM   14  C   UNK N   1      34.855  16.514   9.209  0.00  0.00     0.221 C 
BRANCH  12  15
HETATM   15  O   UNK N   1      34.640  18.210   7.434  0.00  0.00    -0.348 OA
HETATM   16  H   UNK N   1      35.539  18.427   7.586  0.00  0.00     0.219 HD
ENDBRANCH  12  15
BRANCH  14  17
HETATM   17  O   UNK N   1      35.399  17.468  10.070  0.00  0.00    -0.385 OA
HETATM   18  H   UNK N   1      35.549  18.423   9.996  0.00  0.00     0.210 HD
ENDBRANCH  14  17
ENDBRANCH   7   8
ENDBRANCH   5   7
BRANCH   4  19
HETATM   19  O   UNK N   1      36.481  16.032  12.286  0.00  0.00    -0.388 OA
HETATM   20  H   UNK N   1      35.728  16.536  11.938  0.00  0.00     0.210 HD
ENDBRANCH   4  19
BRANCH   3  21
HETATM   21  O   UNK N   1      37.314  14.897  14.710  0.00  0.00    -0.390 OA
HETATM   22  H   UNK N   1      38.256  15.057  14.540  0.00  0.00     0.210 HD
ENDBRANCH   3  21
BRANCH   2  23
HETATM   23  O   UNK N   1      37.568  12.312  14.167  0.00  0.00    -0.391 OA
HETATM   24  H   UNK N   1      38.336  11.723  14.098  0.00  0.00     0.210 HD
ENDBRANCH   2  23
TORSDOF 7
ENDMDL
MODEL 5
REMARK VINA RESULT:      -5.7      3.526      6.724
REMARK  7 active torsions:
REMARK  status: ('A' for Active; 'I' for Inactive)
REMARK    1  A    between atoms: C_4  and  O_13 
REMARK    2  A    between atoms: C_5  and  O_19 
REMARK    3  A    between atoms: C_6  and  O_14 
REMARK    4  A    between atoms: C_7  and  O_15 
REMARK    5  A    between atoms: C_8  and  O_16 
REMARK    6  A    between atoms: O_17  and  C_9 
REMARK    7  A    between atoms: C_10  and  O_19 
ROOT
HETATM    1  C   UNK N   1      37.047  14.249  10.281  0.00  0.00     0.205 C 
HETATM    2  C   UNK N   1      36.476  13.414  11.439  0.00  0.00     0.173 C 
HETATM    3  C   UNK N   1      34.941  13.485  11.484  0.00  0.00     0.182 C 
HETATM    4  C   UNK N   1      34.496  14.876  11.010  0.00  0.00     0.204 C 
HETATM    5  C   UNK N   1      34.906  14.936   9.510  0.00  0.00     0.291 C 
HETATM    6  O   UNK N   1      36.192  14.419   9.167  0.00  0.00    -0.356 OA
ENDROOT
BRANCH   5   7
HETATM    7  O   UNK N   1      34.569  16.121   8.804  0.00  0.00    -0.350 OA
BRANCH   7   8
HETATM    8  C   UNK N   1      33.857  16.026   7.579  0.00  0.00     0.163 C 
HETATM    9  C   UNK N   1      34.063  17.381   6.911  0.00  0.00     0.055 C 
HETATM   10  C   UNK N   1      33.372  17.398   5.554  0.00  0.00     0.124 C 
HETATM   11  N   UNK N   1      31.967  17.094   5.676  0.00  0.00    -0.372 N 
HETATM   12  C   UNK N   1      31.467  16.377   6.636  0.00  0.00     0.143 C 
ATOM     13  HN  UNK N   1      31.330  17.463   4.969  1.00  0.00     0.161 HD
HETATM   14  C   UNK N   1      32.331  15.792   7.736  0.00  0.00     0.221 C 
BRANCH  12  15
HETATM   15  O   UNK N   1      30.139  16.181   6.679  0.00  0.00    -0.348 OA
HETATM   16  H   UNK N   1      29.725  15.935   7.483  0.00  0.00     0.219 HD
ENDBRANCH  12  15
BRANCH  14  17
HETATM   17  O   UNK N   1      32.083  14.419   7.772  0.00  0.00    -0.385 OA
HETATM   18  H   UNK N   1      32.314  13.717   8.400  0.00  0.00     0.210 HD
ENDBRANCH  14  17
ENDBRANCH   7   8
ENDBRANCH   5   7
BRANCH   4  19
HETATM   19  O   UNK N   1      33.110  15.011  11.127  0.00  0.00    -0.388 OA
HETATM   20  H   UNK N   1      32.555  15.033  10.331  0.00  0.00     0.210 HD
ENDBRANCH   4  19
BRANCH   3  21
HETATM   21  O   UNK N   1      34.471  13.189  12.767  0.00  0.00    -0.390 OA
HETATM   22  H   UNK N   1      33.814  13.591  13.358  0.00  0.00     0.210 HD
ENDBRANCH   3  21
BRANCH   2  23
HETATM   23  O   UNK N   1      37.010  13.945  12.616  0.00  0.00    -0.391 OA
HETATM   24  H   UNK N   1      37.578  14.092  13.388  0.00  0.00     0.210 HD
ENDBRANCH   2  23
TORSDOF 7
ENDMDL
MODEL 6
REMARK VINA RESULT:      -5.7      5.671      8.602
REMARK  7 active torsions:
REMARK  status: ('A' for Active; 'I' for Inactive)
REMARK    1  A    between atoms: C_4  and  O_13 
REMARK    2  A    between atoms: C_5  and  O_19 
REMARK    3  A    between atoms: C_6  and  O_14 
REMARK    4  A    between atoms: C_7  and  O_15 
REMARK    5  A    between atoms: C_8  and  O_16 
REMARK    6  A    between atoms: O_17  and  C_9 
REMARK    7  A    between atoms: C_10  and  O_19 
ROOT
HETATM    1  C   UNK N   1      34.718  11.594  14.606  0.00  0.00     0.205 C 
HETATM    2  C   UNK N   1      35.719  12.405  15.444  0.00  0.00     0.173 C 
HETATM    3  C   UNK N   1      36.418  13.484  14.601  0.00  0.00     0.182 C 
HETATM    4  C   UNK N   1      36.588  12.959  13.168  0.00  0.00     0.204 C 
HETATM    5  C   UNK N   1      35.139  12.825  12.617  0.00  0.00     0.291 C 
HETATM    6  O   UNK N   1      34.160  12.266  13.493  0.00  0.00    -0.356 OA
ENDROOT
BRANCH   5   7
HETATM    7  O   UNK N   1      35.006  12.388  11.272  0.00  0.00    -0.350 OA
BRANCH   7   8
HETATM    8  C   UNK N   1      34.616  13.317  10.271  0.00  0.00     0.163 C 
HETATM    9  C   UNK N   1      35.788  13.343   9.296  0.00  0.00     0.055 C 
HETATM   10  C   UNK N   1      35.477  14.285   8.141  0.00  0.00     0.124 C 
HETATM   11  N   UNK N   1      35.172  15.614   8.613  0.00  0.00    -0.372 N 
HETATM   12  C   UNK N   1      34.679  15.864   9.788  0.00  0.00     0.143 C 
ATOM     13  HN  UNK N   1      35.353  16.400   7.990  1.00  0.00     0.161 HD
HETATM   14  C   UNK N   1      34.383  14.762  10.787  0.00  0.00     0.221 C 
BRANCH  12  15
HETATM   15  O   UNK N   1      34.464  17.140  10.145  0.00  0.00    -0.348 OA
HETATM   16  H   UNK N   1      33.620  17.406  10.454  0.00  0.00     0.219 HD
ENDBRANCH  12  15
BRANCH  14  17
HETATM   17  O   UNK N   1      33.049  14.898  11.171  0.00  0.00    -0.385 OA
HETATM   18  H   UNK N   1      32.349  14.262  11.387  0.00  0.00     0.210 HD
ENDBRANCH  14  17
ENDBRANCH   7   8
ENDBRANCH   5   7
BRANCH   4  19
HETATM   19  O   UNK N   1      37.305  13.876  12.395  0.00  0.00    -0.388 OA
HETATM   20  H   UNK N   1      38.137  14.249  12.730  0.00  0.00     0.210 HD
ENDBRANCH   4  19
BRANCH   3  21
HETATM   21  O   UNK N   1      37.638  13.849  15.178  0.00  0.00    -0.390 OA
HETATM   22  H   UNK N   1      38.379  13.357  15.566  0.00  0.00     0.210 HD
ENDBRANCH   3  21
BRANCH   2  23
HETATM   23  O   UNK N   1      36.664  11.498  15.929  0.00  0.00    -0.391 OA
HETATM   24  H   UNK N   1      37.081  10.773  16.420  0.00  0.00     0.210 HD
ENDBRANCH   2  23
TORSDOF 7
ENDMDL
MODEL 7
REMARK VINA RESULT:      -5.7      9.365     11.227
REMARK  7 active torsions:
REMARK  status: ('A' for Active; 'I' for Inactive)
REMARK    1  A    between atoms: C_4  and  O_13 
REMARK    2  A    between atoms: C_5  and  O_19 
REMARK    3  A    between atoms: C_6  and  O_14 
REMARK    4  A    between atoms: C_7  and  O_15 
REMARK    5  A    between atoms: C_8  and  O_16 
REMARK    6  A    between atoms: O_17  and  C_9 
REMARK    7  A    between atoms: C_10  and  O_19 
ROOT
HETATM    1  C   UNK N   1      24.244  12.494   9.344  0.00  0.00     0.205 C 
HETATM    2  C   UNK N   1      24.332  11.830  10.727  0.00  0.00     0.173 C 
HETATM    3  C   UNK N   1      22.939  11.499  11.286  0.00  0.00     0.182 C 
HETATM    4  C   UNK N   1      21.949  12.573  10.811  0.00  0.00     0.204 C 
HETATM    5  C   UNK N   1      21.871  12.390   9.268  0.00  0.00     0.291 C 
HETATM    6  O   UNK N   1      23.101  12.168   8.577  0.00  0.00    -0.356 OA
ENDROOT
BRANCH   5   7
HETATM    7  O   UNK N   1      20.979  13.246   8.569  0.00  0.00    -0.350 OA
BRANCH   7   8
HETATM    8  C   UNK N   1      21.287  14.627   8.449  0.00  0.00     0.163 C 
HETATM    9  C   UNK N   1      19.964  15.338   8.709  0.00  0.00     0.055 C 
HETATM   10  C   UNK N   1      20.166  16.846   8.646  0.00  0.00     0.124 C 
HETATM   11  N   UNK N   1      20.725  17.248   7.378  0.00  0.00    -0.372 N 
HETATM   12  C   UNK N   1      21.461  16.475   6.639  0.00  0.00     0.143 C 
ATOM     13  HN  UNK N   1      20.531  18.192   7.043  1.00  0.00     0.161 HD
HETATM   14  C   UNK N   1      21.798  15.055   7.048  0.00  0.00     0.221 C 
BRANCH  12  15
HETATM   15  O   UNK N   1      21.903  16.934   5.457  0.00  0.00    -0.348 OA
HETATM   16  H   UNK N   1      21.562  17.732   5.104  0.00  0.00     0.219 HD
ENDBRANCH  12  15
BRANCH  14  17
HETATM   17  O   UNK N   1      23.188  14.933   7.013  0.00  0.00    -0.385 OA
HETATM   18  H   UNK N   1      23.807  14.555   6.370  0.00  0.00     0.210 HD
ENDBRANCH  14  17
ENDBRANCH   7   8
ENDBRANCH   5   7
BRANCH   4  19
HETATM   19  O   UNK N   1      20.689  12.358  11.377  0.00  0.00    -0.388 OA
HETATM   20  H   UNK N   1      20.550  12.512  12.325  0.00  0.00     0.210 HD
ENDBRANCH   4  19
BRANCH   3  21
HETATM   21  O   UNK N   1      22.977  11.395  12.680  0.00  0.00    -0.390 OA
HETATM   22  H   UNK N   1      22.622  10.760  13.322  0.00  0.00     0.210 HD
ENDBRANCH   3  21
BRANCH   2  23
HETATM   23  O   UNK N   1      24.975  12.741  11.569  0.00  0.00    -0.391 OA
HETATM   24  H   UNK N   1      25.244  13.565  12.006  0.00  0.00     0.210 HD
ENDBRANCH   2  23
TORSDOF 7
ENDMDL
MODEL 8
REMARK VINA RESULT:      -5.6      2.360      3.094
REMARK  7 active torsions:
REMARK  status: ('A' for Active; 'I' for Inactive)
REMARK    1  A    between atoms: C_4  and  O_13 
REMARK    2  A    between atoms: C_5  and  O_19 
REMARK    3  A    between atoms: C_6  and  O_14 
REMARK    4  A    between atoms: C_7  and  O_15 
REMARK    5  A    between atoms: C_8  and  O_16 
REMARK    6  A    between atoms: O_17  and  C_9 
REMARK    7  A    between atoms: C_10  and  O_19 
ROOT
HETATM    1  C   UNK N   1      28.070  17.705   7.262  0.00  0.00     0.205 C 
HETATM    2  C   UNK N   1      28.261  18.557   8.526  0.00  0.00     0.173 C 
HETATM    3  C   UNK N   1      29.731  18.579   8.977  0.00  0.00     0.182 C 
HETATM    4  C   UNK N   1      30.371  17.224   8.642  0.00  0.00     0.204 C 
HETATM    5  C   UNK N   1      30.377  17.158   7.087  0.00  0.00     0.291 C 
HETATM    6  O   UNK N   1      29.198  17.600   6.414  0.00  0.00    -0.356 OA
ENDROOT
BRANCH   5   7
HETATM    7  O   UNK N   1      30.961  16.005   6.500  0.00  0.00    -0.350 OA
BRANCH   7   8
HETATM    8  C   UNK N   1      32.065  16.153   5.619  0.00  0.00     0.163 C 
HETATM    9  C   UNK N   1      31.926  14.996   4.635  0.00  0.00     0.055 C 
HETATM   10  C   UNK N   1      33.041  15.061   3.601  0.00  0.00     0.124 C 
HETATM   11  N   UNK N   1      34.341  15.050   4.227  0.00  0.00    -0.372 N 
HETATM   12  C   UNK N   1      34.563  15.484   5.430  0.00  0.00     0.143 C 
ATOM     13  HN  UNK N   1      35.129  14.681   3.695  1.00  0.00     0.161 HD
HETATM   14  C   UNK N   1      33.454  16.044   6.300  0.00  0.00     0.221 C 
BRANCH  12  15
HETATM   15  O   UNK N   1      35.804  15.396   5.935  0.00  0.00    -0.348 OA
HETATM   16  H   UNK N   1      36.548  15.532   5.382  0.00  0.00     0.219 HD
ENDBRANCH  12  15
BRANCH  14  17
HETATM   17  O   UNK N   1      33.857  17.313   6.718  0.00  0.00    -0.385 OA
HETATM   18  H   UNK N   1      34.583  17.901   6.457  0.00  0.00     0.210 HD
ENDBRANCH  14  17
ENDBRANCH   7   8
ENDBRANCH   5   7
BRANCH   4  19
HETATM   19  O   UNK N   1      31.682  17.172   9.123  0.00  0.00    -0.388 OA
HETATM   20  H   UNK N   1      31.984  16.398   9.626  0.00  0.00     0.210 HD
ENDBRANCH   4  19
BRANCH   3  21
HETATM   21  O   UNK N   1      29.826  18.886  10.338  0.00  0.00    -0.390 OA
HETATM   22  H   UNK N   1      30.154  18.413  11.118  0.00  0.00     0.210 HD
ENDBRANCH   3  21
BRANCH   2  23
HETATM   23  O   UNK N   1      27.469  17.980   9.522  0.00  0.00    -0.391 OA
HETATM   24  H   UNK N   1      26.707  17.626  10.007  0.00  0.00     0.210 HD
ENDBRANCH   2  23
TORSDOF 7
ENDMDL
MODEL 9
REMARK VINA RESULT:      -5.6      2.783      5.965
REMARK  7 active torsions:
REMARK  status: ('A' for Active; 'I' for Inactive)
REMARK    1  A    between atoms: C_4  and  O_13 
REMARK    2  A    between atoms: C_5  and  O_19 
REMARK    3  A    between atoms: C_6  and  O_14 
REMARK    4  A    between atoms: C_7  and  O_15 
REMARK    5  A    between atoms: C_8  and  O_16 
REMARK    6  A    between atoms: O_17  and  C_9 
REMARK    7  A    between atoms: C_10  and  O_19 
ROOT
HETATM    1  C   UNK N   1      33.513  15.177   8.345  0.00  0.00     0.205 C 
HETATM    2  C   UNK N   1      34.395  15.558   9.545  0.00  0.00     0.173 C 
HETATM    3  C   UNK N   1      34.563  17.082   9.662  0.00  0.00     0.182 C 
HETATM    4  C   UNK N   1      34.569  17.688   8.251  0.00  0.00     0.204 C 
HETATM    5  C   UNK N   1      33.136  17.433   7.701  0.00  0.00     0.291 C 
HETATM    6  O   UNK N   1      32.565  16.148   7.946  0.00  0.00    -0.356 OA
ENDROOT
BRANCH   5   7
HETATM    7  O   UNK N   1      32.852  17.937   6.404  0.00  0.00    -0.350 OA
BRANCH   7   8
HETATM    8  C   UNK N   1      32.158  17.119   5.473  0.00  0.00     0.163 C 
HETATM    9  C   UNK N   1      32.685  17.560   4.112  0.00  0.00     0.055 C 
HETATM   10  C   UNK N   1      32.040  16.724   3.014  0.00  0.00     0.124 C 
HETATM   11  N   UNK N   1      30.600  16.813   3.062  0.00  0.00    -0.372 N 
HETATM   12  C   UNK N   1      29.932  17.065   4.146  0.00  0.00     0.143 C 
ATOM     13  HN  UNK N   1      30.079  16.669   2.198  1.00  0.00     0.161 HD
HETATM   14  C   UNK N   1      30.618  17.300   5.478  0.00  0.00     0.221 C 
BRANCH  12  15
HETATM   15  O   UNK N   1      28.594  17.162   4.078  0.00  0.00    -0.348 OA
HETATM   16  H   UNK N   1      28.122  16.698   3.414  0.00  0.00     0.219 HD
ENDBRANCH  12  15
BRANCH  14  17
HETATM   17  O   UNK N   1      30.058  16.409   6.395  0.00  0.00    -0.385 OA
HETATM   18  H   UNK N   1      29.145  16.174   6.623  0.00  0.00     0.210 HD
ENDBRANCH  14  17
ENDBRANCH   7   8
ENDBRANCH   5   7
BRANCH   4  19
HETATM   19  O   UNK N   1      34.814  19.062   8.312  0.00  0.00    -0.388 OA
HETATM   20  H   UNK N   1      34.761  19.528   9.163  0.00  0.00     0.210 HD
ENDBRANCH   4  19
BRANCH   3  21
HETATM   21  O   UNK N   1      35.721  17.398  10.378  0.00  0.00    -0.390 OA
HETATM   22  H   UNK N   1      36.636  17.073  10.367  0.00  0.00     0.210 HD
ENDBRANCH   3  21
BRANCH   2  23
HETATM   23  O   UNK N   1      35.639  14.960   9.335  0.00  0.00    -0.391 OA
HETATM   24  H   UNK N   1      36.441  14.621   8.906  0.00  0.00     0.210 HD
ENDBRANCH   2  23
TORSDOF 7
ENDMDL
