REMARK  0 active torsions:
REMARK  status: ('A' for Active; 'I' for Inactive)
ROOT
HETATM    1  C   UNK N   1      -2.186   0.586   0.000  0.00  0.00     0.182 A 
HETATM    2  C   UNK N   1      -0.179  -0.132   0.000  0.00  0.00     0.117 A 
HETATM    3  C   UNK N   1       1.010  -0.851   0.000  0.00  0.00     0.137 A 
HETATM    4  C   UNK N   1      -0.156   1.213  -0.000  0.00  0.00     0.140 A 
HETATM    5  C   UNK N   1       2.178   1.230  -0.000  0.00  0.00     0.268 A 
HETATM    6 Cl   UNK N   1       1.042  -2.604   0.000  0.00  0.00    -0.062 Cl
HETATM    7  F   UNK N   1       3.353   1.903  -0.000  0.00  0.00    -0.165 F 
HETATM    8  N   UNK N   1      -1.449  -0.560   0.000  0.00  0.00    -0.347 N 
ATOM      9  HN  UNK N   1      -1.787  -1.523   0.000  1.00  0.00     0.167 HD
HETATM   10  N   UNK N   1      -1.403   1.699  -0.000  0.00  0.00    -0.337 N 
ATOM     11  HN  UNK N   1      -1.697   2.676  -0.000  1.00  0.00     0.168 HD
HETATM   12  N   UNK N   1       2.179  -0.143  -0.000  0.00  0.00    -0.307 N 
ATOM     13  HN  UNK N   1       3.067  -0.644  -0.000  1.00  0.00     0.170 HD
HETATM   14  N   UNK N   1       0.997   1.922  -0.000  0.00  0.00    -0.302 N 
HETATM   15  H   UNK N   1       0.986   2.907  -0.000  0.00  0.00     0.171 HD
ENDROOT
TORSDOF 0
