MODEL 1
REMARK VINA RESULT:      -4.6      0.000      0.000
REMARK  7 active torsions:
REMARK  status: ('A' for Active; 'I' for Inactive)
REMARK    1  A    between atoms: C_2  and  C_1 
REMARK    2  A    between atoms: O_10  and  C_1 
REMARK    3  A    between atoms: C_3  and  C_2 
REMARK    4  A    between atoms: C_2  and  N_4 
REMARK    5  A    between atoms: O_6  and  C_3 
REMARK    6  A    between atoms: S_11  and  O_7 
REMARK    7  A    between atoms: S_11  and  O_10 
ROOT
HETATM    1  C   UNK N   1      32.834  17.211   8.063  0.00  0.00     0.198 C 
ENDROOT
BRANCH   1   2
HETATM    2  C   UNK N   1      33.410  16.207   9.050  0.00  0.00     0.227 C 
BRANCH   2   3
HETATM    3  O   UNK N   1      34.811  16.217   8.974  0.00  0.00    -0.261 OA
BRANCH   3   4
HETATM    4  S   UNK N   1      35.363  15.834  10.565  0.00  0.00     0.240 S 
HETATM    5  O   UNK N   1      36.265  15.073   9.580  0.00  0.00    -0.579 OA
HETATM    6  O   UNK N   1      35.740  17.314  10.366  0.00  0.00    -0.579 OA
BRANCH   4   7
HETATM    7  O   UNK N   1      36.989  16.049  11.069  0.00  0.00    -0.274 OA
HETATM    8  H   UNK N   1      37.318  16.301  11.946  0.00  0.00     0.234 HD
ENDBRANCH   4   7
ENDBRANCH   3   4
ENDBRANCH   2   3
ENDBRANCH   1   2
BRANCH   1   9
HETATM    9  C   UNK N   1      33.944  18.042   7.482  0.00  0.00     0.165 C 
HETATM   10  O   UNK N   1      34.244  17.948   6.302  0.00  0.00    -0.648 OA
BRANCH   9  11
HETATM   11  O   UNK N   1      34.629  18.885   8.278  0.00  0.00    -0.775 OA
HETATM   12  H   UNK N   1      34.256  19.248   9.057  0.00  0.00     0.167 HD
ENDBRANCH   9  11
ENDBRANCH   1   9
BRANCH   1  13
HETATM   13  N   UNK N   1      31.851  18.044   8.742  0.00  0.00    -0.416 N 
HETATM   14  H   UNK N   1      31.793  19.048   8.574  0.00  0.00     0.150 HD
HETATM   15  H   UNK N   1      31.205  17.610   9.401  0.00  0.00     0.150 HD
ENDBRANCH   1  13
TORSDOF 7
ENDMDL
MODEL 2
REMARK VINA RESULT:      -4.5     15.186     16.075
REMARK  7 active torsions:
REMARK  status: ('A' for Active; 'I' for Inactive)
REMARK    1  A    between atoms: C_2  and  C_1 
REMARK    2  A    between atoms: O_10  and  C_1 
REMARK    3  A    between atoms: C_3  and  C_2 
REMARK    4  A    between atoms: C_2  and  N_4 
REMARK    5  A    between atoms: O_6  and  C_3 
REMARK    6  A    between atoms: S_11  and  O_7 
REMARK    7  A    between atoms: S_11  and  O_10 
ROOT
HETATM    1  C   UNK N   1      20.165  17.320   2.561  0.00  0.00     0.198 C 
ENDROOT
BRANCH   1   2
HETATM    2  C   UNK N   1      19.578  18.712   2.735  0.00  0.00     0.227 C 
BRANCH   2   3
HETATM    3  O   UNK N   1      20.225  19.612   1.876  0.00  0.00    -0.261 OA
BRANCH   3   4
HETATM    4  S   UNK N   1      21.661  20.093   2.705  0.00  0.00     0.240 S 
HETATM    5  O   UNK N   1      21.722  20.718   1.303  0.00  0.00    -0.579 OA
HETATM    6  O   UNK N   1      20.526  20.852   3.417  0.00  0.00    -0.579 OA
BRANCH   4   7
HETATM    7  O   UNK N   1      22.138  21.732   2.882  0.00  0.00    -0.274 OA
HETATM    8  H   UNK N   1      21.683  22.528   2.565  0.00  0.00     0.234 HD
ENDBRANCH   4   7
ENDBRANCH   3   4
ENDBRANCH   2   3
ENDBRANCH   1   2
BRANCH   1   9
HETATM    9  C   UNK N   1      19.961  16.859   1.145  0.00  0.00     0.165 C 
HETATM   10  O   UNK N   1      20.786  16.147   0.593  0.00  0.00    -0.648 OA
BRANCH   9  11
HETATM   11  O   UNK N   1      18.865  17.254   0.470  0.00  0.00    -0.775 OA
HETATM   12  H   UNK N   1      18.201  16.650   0.202  0.00  0.00     0.167 HD
ENDBRANCH   9  11
ENDBRANCH   1   9
BRANCH   1  13
HETATM   13  N   UNK N   1      19.535  16.411   3.508  0.00  0.00    -0.416 N 
HETATM   14  H   UNK N   1      19.505  16.614   4.507  0.00  0.00     0.150 HD
HETATM   15  H   UNK N   1      19.113  15.549   3.162  0.00  0.00     0.150 HD
ENDBRANCH   1  13
TORSDOF 7
ENDMDL
MODEL 3
REMARK VINA RESULT:      -4.5      2.457      4.425
REMARK  7 active torsions:
REMARK  status: ('A' for Active; 'I' for Inactive)
REMARK    1  A    between atoms: C_2  and  C_1 
REMARK    2  A    between atoms: O_10  and  C_1 
REMARK    3  A    between atoms: C_3  and  C_2 
REMARK    4  A    between atoms: C_2  and  N_4 
REMARK    5  A    between atoms: O_6  and  C_3 
REMARK    6  A    between atoms: S_11  and  O_7 
REMARK    7  A    between atoms: S_11  and  O_10 
ROOT
HETATM    1  C   UNK N   1      34.619  15.554  10.987  0.00  0.00     0.198 C 
ENDROOT
BRANCH   1   2
HETATM    2  C   UNK N   1      34.740  16.056   9.557  0.00  0.00     0.227 C 
BRANCH   2   3
HETATM    3  O   UNK N   1      34.767  17.459   9.547  0.00  0.00    -0.261 OA
BRANCH   3   4
HETATM    4  S   UNK N   1      33.782  17.931   8.210  0.00  0.00     0.240 S 
HETATM    5  O   UNK N   1      34.954  18.923   8.277  0.00  0.00    -0.579 OA
HETATM    6  O   UNK N   1      34.425  16.603   7.770  0.00  0.00    -0.579 OA
BRANCH   4   7
HETATM    7  O   UNK N   1      34.392  18.129   6.619  0.00  0.00    -0.274 OA
HETATM    8  H   UNK N   1      35.207  18.573   6.338  0.00  0.00     0.234 HD
ENDBRANCH   4   7
ENDBRANCH   3   4
ENDBRANCH   2   3
ENDBRANCH   1   2
BRANCH   1   9
HETATM    9  C   UNK N   1      35.974  15.550  11.638  0.00  0.00     0.165 C 
HETATM   10  O   UNK N   1      36.123  15.124  12.773  0.00  0.00    -0.648 OA
BRANCH   9  11
HETATM   11  O   UNK N   1      37.034  16.043  10.968  0.00  0.00    -0.775 OA
HETATM   12  H   UNK N   1      37.266  15.739  10.113  0.00  0.00     0.167 HD
ENDBRANCH   9  11
ENDBRANCH   1   9
BRANCH   1  13
HETATM   13  N   UNK N   1      34.033  14.221  10.981  0.00  0.00    -0.416 N 
HETATM   14  H   UNK N   1      33.228  13.993  10.399  0.00  0.00     0.150 HD
HETATM   15  H   UNK N   1      34.439  13.498  11.574  0.00  0.00     0.150 HD
ENDBRANCH   1  13
TORSDOF 7
ENDMDL
MODEL 4
REMARK VINA RESULT:      -4.4      3.336      4.301
REMARK  7 active torsions:
REMARK  status: ('A' for Active; 'I' for Inactive)
REMARK    1  A    between atoms: C_2  and  C_1 
REMARK    2  A    between atoms: O_10  and  C_1 
REMARK    3  A    between atoms: C_3  and  C_2 
REMARK    4  A    between atoms: C_2  and  N_4 
REMARK    5  A    between atoms: O_6  and  C_3 
REMARK    6  A    between atoms: S_11  and  O_7 
REMARK    7  A    between atoms: S_11  and  O_10 
ROOT
HETATM    1  C   UNK N   1      34.772  15.002  10.404  0.00  0.00     0.198 C 
ENDROOT
BRANCH   1   2
HETATM    2  C   UNK N   1      35.243  13.892  11.331  0.00  0.00     0.227 C 
BRANCH   2   3
HETATM    3  O   UNK N   1      34.950  14.228  12.661  0.00  0.00    -0.261 OA
BRANCH   3   4
HETATM    4  S   UNK N   1      36.109  13.379  13.619  0.00  0.00     0.240 S 
HETATM    5  O   UNK N   1      36.431  14.877  13.747  0.00  0.00    -0.579 OA
HETATM    6  O   UNK N   1      34.778  13.206  14.373  0.00  0.00    -0.579 OA
BRANCH   4   7
HETATM    7  O   UNK N   1      36.382  13.718  15.279  0.00  0.00    -0.274 OA
HETATM    8  H   UNK N   1      35.854  14.273  15.874  0.00  0.00     0.234 HD
ENDBRANCH   4   7
ENDBRANCH   3   4
ENDBRANCH   2   3
ENDBRANCH   1   2
BRANCH   1   9
HETATM    9  C   UNK N   1      35.670  16.198  10.551  0.00  0.00     0.165 C 
HETATM   10  O   UNK N   1      35.297  17.309  10.204  0.00  0.00    -0.648 OA
BRANCH   9  11
HETATM   11  O   UNK N   1      36.909  16.040  11.054  0.00  0.00    -0.775 OA
HETATM   12  H   UNK N   1      37.546  15.489  10.643  0.00  0.00     0.167 HD
ENDBRANCH   9  11
ENDBRANCH   1   9
BRANCH   1  13
HETATM   13  N   UNK N   1      33.390  15.337  10.719  0.00  0.00    -0.416 N 
HETATM   14  H   UNK N   1      33.071  16.304  10.767  0.00  0.00     0.150 HD
HETATM   15  H   UNK N   1      32.725  14.584  10.893  0.00  0.00     0.150 HD
ENDBRANCH   1  13
TORSDOF 7
ENDMDL
MODEL 5
REMARK VINA RESULT:      -4.4     14.271     15.055
REMARK  7 active torsions:
REMARK  status: ('A' for Active; 'I' for Inactive)
REMARK    1  A    between atoms: C_2  and  C_1 
REMARK    2  A    between atoms: O_10  and  C_1 
REMARK    3  A    between atoms: C_3  and  C_2 
REMARK    4  A    between atoms: C_2  and  N_4 
REMARK    5  A    between atoms: O_6  and  C_3 
REMARK    6  A    between atoms: S_11  and  O_7 
REMARK    7  A    between atoms: S_11  and  O_10 
ROOT
HETATM    1  C   UNK N   1      20.499  19.057   1.950  0.00  0.00     0.198 C 
ENDROOT
BRANCH   1   2
HETATM    2  C   UNK N   1      21.412  18.832   3.146  0.00  0.00     0.227 C 
BRANCH   2   3
HETATM    3  O   UNK N   1      20.770  18.010   4.084  0.00  0.00    -0.261 OA
BRANCH   3   4
HETATM    4  S   UNK N   1      21.743  18.087   5.509  0.00  0.00     0.240 S 
HETATM    5  O   UNK N   1      21.087  19.466   5.338  0.00  0.00    -0.579 OA
HETATM    6  O   UNK N   1      20.578  17.151   5.881  0.00  0.00    -0.579 OA
BRANCH   4   7
HETATM    7  O   UNK N   1      21.131  18.570   7.037  0.00  0.00    -0.274 OA
HETATM    8  H   UNK N   1      20.550  18.076   7.636  0.00  0.00     0.234 HD
ENDBRANCH   4   7
ENDBRANCH   3   4
ENDBRANCH   2   3
ENDBRANCH   1   2
BRANCH   1   9
HETATM    9  C   UNK N   1      20.873  20.341   1.264  0.00  0.00     0.165 C 
HETATM   10  O   UNK N   1      21.384  21.259   1.887  0.00  0.00    -0.648 OA
BRANCH   9  11
HETATM   11  O   UNK N   1      20.621  20.490  -0.051  0.00  0.00    -0.775 OA
HETATM   12  H   UNK N   1      21.281  20.357  -0.702  0.00  0.00     0.167 HD
ENDBRANCH   9  11
ENDBRANCH   1   9
BRANCH   1  13
HETATM   13  N   UNK N   1      19.115  19.081   2.399  0.00  0.00    -0.416 N 
HETATM   14  H   UNK N   1      18.871  19.028   3.387  0.00  0.00     0.150 HD
HETATM   15  H   UNK N   1      18.370  19.154   1.705  0.00  0.00     0.150 HD
ENDBRANCH   1  13
TORSDOF 7
ENDMDL
MODEL 6
REMARK VINA RESULT:      -4.3     13.245     14.091
REMARK  7 active torsions:
REMARK  status: ('A' for Active; 'I' for Inactive)
REMARK    1  A    between atoms: C_2  and  C_1 
REMARK    2  A    between atoms: O_10  and  C_1 
REMARK    3  A    between atoms: C_3  and  C_2 
REMARK    4  A    between atoms: C_2  and  N_4 
REMARK    5  A    between atoms: O_6  and  C_3 
REMARK    6  A    between atoms: S_11  and  O_7 
REMARK    7  A    between atoms: S_11  and  O_10 
ROOT
HETATM    1  C   UNK N   1      22.428  12.630  10.727  0.00  0.00     0.198 C 
ENDROOT
BRANCH   1   2
HETATM    2  C   UNK N   1      22.076  12.465   9.257  0.00  0.00     0.227 C 
BRANCH   2   3
HETATM    3  O   UNK N   1      20.718  12.759   9.058  0.00  0.00    -0.261 OA
BRANCH   3   4
HETATM    4  S   UNK N   1      20.586  14.472   9.223  0.00  0.00     0.240 S 
HETATM    5  O   UNK N   1      20.214  14.130   7.771  0.00  0.00    -0.579 OA
HETATM    6  O   UNK N   1      19.424  13.908  10.061  0.00  0.00    -0.579 OA
BRANCH   4   7
HETATM    7  O   UNK N   1      19.163  15.345   8.826  0.00  0.00    -0.274 OA
HETATM    8  H   UNK N   1      18.491  15.704   9.426  0.00  0.00     0.234 HD
ENDBRANCH   4   7
ENDBRANCH   3   4
ENDBRANCH   2   3
ENDBRANCH   1   2
BRANCH   1   9
HETATM    9  C   UNK N   1      23.861  12.235  10.951  0.00  0.00     0.165 C 
HETATM   10  O   UNK N   1      24.577  11.918  10.013  0.00  0.00    -0.648 OA
BRANCH   9  11
HETATM   11  O   UNK N   1      24.355  12.209  12.204  0.00  0.00    -0.775 OA
HETATM   12  H   UNK N   1      23.828  11.973  12.941  0.00  0.00     0.167 HD
ENDBRANCH   9  11
ENDBRANCH   1   9
BRANCH   1  13
HETATM   13  N   UNK N   1      21.525  11.820  11.532  0.00  0.00    -0.416 N 
HETATM   14  H   UNK N   1      21.073  10.987  11.155  0.00  0.00     0.150 HD
HETATM   15  H   UNK N   1      21.341  12.093  12.497  0.00  0.00     0.150 HD
ENDBRANCH   1  13
TORSDOF 7
ENDMDL
MODEL 7
REMARK VINA RESULT:      -4.1      2.980      4.018
REMARK  7 active torsions:
REMARK  status: ('A' for Active; 'I' for Inactive)
REMARK    1  A    between atoms: C_2  and  C_1 
REMARK    2  A    between atoms: O_10  and  C_1 
REMARK    3  A    between atoms: C_3  and  C_2 
REMARK    4  A    between atoms: C_2  and  N_4 
REMARK    5  A    between atoms: O_6  and  C_3 
REMARK    6  A    between atoms: S_11  and  O_7 
REMARK    7  A    between atoms: S_11  and  O_10 
ROOT
HETATM    1  C   UNK N   1      33.725  17.387   8.967  0.00  0.00     0.198 C 
ENDROOT
BRANCH   1   2
HETATM    2  C   UNK N   1      33.236  16.151   8.228  0.00  0.00     0.227 C 
BRANCH   2   3
HETATM    3  O   UNK N   1      31.949  16.380   7.718  0.00  0.00    -0.261 OA
BRANCH   3   4
HETATM    4  S   UNK N   1      31.892  15.541   6.210  0.00  0.00     0.240 S 
HETATM    5  O   UNK N   1      31.884  17.044   5.889  0.00  0.00    -0.579 OA
HETATM    6  O   UNK N   1      33.308  15.272   6.754  0.00  0.00    -0.579 OA
BRANCH   4   7
HETATM    7  O   UNK N   1      33.017  15.813   4.943  0.00  0.00    -0.274 OA
HETATM    8  H   UNK N   1      33.384  15.171   4.317  0.00  0.00     0.234 HD
ENDBRANCH   4   7
ENDBRANCH   3   4
ENDBRANCH   2   3
ENDBRANCH   1   2
BRANCH   1   9
HETATM    9  C   UNK N   1      34.483  18.275   8.021  0.00  0.00     0.165 C 
HETATM   10  O   UNK N   1      35.131  19.224   8.435  0.00  0.00    -0.648 OA
BRANCH   9  11
HETATM   11  O   UNK N   1      34.429  18.033   6.697  0.00  0.00    -0.775 OA
HETATM   12  H   UNK N   1      35.030  17.453   6.273  0.00  0.00     0.167 HD
ENDBRANCH   9  11
ENDBRANCH   1   9
BRANCH   1  13
HETATM   13  N   UNK N   1      34.558  16.979  10.090  0.00  0.00    -0.416 N 
HETATM   14  H   UNK N   1      34.724  15.996  10.303  0.00  0.00     0.150 HD
HETATM   15  H   UNK N   1      34.986  17.695  10.675  0.00  0.00     0.150 HD
ENDBRANCH   1  13
TORSDOF 7
ENDMDL
MODEL 8
REMARK VINA RESULT:      -4.0      3.835      4.888
REMARK  7 active torsions:
REMARK  status: ('A' for Active; 'I' for Inactive)
REMARK    1  A    between atoms: C_2  and  C_1 
REMARK    2  A    between atoms: O_10  and  C_1 
REMARK    3  A    between atoms: C_3  and  C_2 
REMARK    4  A    between atoms: C_2  and  N_4 
REMARK    5  A    between atoms: O_6  and  C_3 
REMARK    6  A    between atoms: S_11  and  O_7 
REMARK    7  A    between atoms: S_11  and  O_10 
ROOT
HETATM    1  C   UNK N   1      33.100  17.755   8.747  0.00  0.00     0.198 C 
ENDROOT
BRANCH   1   2
HETATM    2  C   UNK N   1      31.866  17.584   7.874  0.00  0.00     0.227 C 
BRANCH   2   3
HETATM    3  O   UNK N   1      30.801  17.097   8.647  0.00  0.00    -0.261 OA
BRANCH   3   4
HETATM    4  S   UNK N   1      29.961  18.496   9.212  0.00  0.00     0.240 S 
HETATM    5  O   UNK N   1      29.424  18.186   7.806  0.00  0.00    -0.579 OA
HETATM    6  O   UNK N   1      29.434  17.344  10.088  0.00  0.00    -0.579 OA
BRANCH   4   7
HETATM    7  O   UNK N   1      28.249  18.602   9.269  0.00  0.00    -0.274 OA
HETATM    8  H   UNK N   1      27.696  19.049   9.928  0.00  0.00     0.234 HD
ENDBRANCH   4   7
ENDBRANCH   3   4
ENDBRANCH   2   3
ENDBRANCH   1   2
BRANCH   1   9
HETATM    9  C   UNK N   1      34.238  18.278   7.917  0.00  0.00     0.165 C 
HETATM   10  O   UNK N   1      35.018  19.102   8.370  0.00  0.00    -0.648 OA
BRANCH   9  11
HETATM   11  O   UNK N   1      34.387  17.849   6.648  0.00  0.00    -0.775 OA
HETATM   12  H   UNK N   1      34.144  16.984   6.384  0.00  0.00     0.167 HD
ENDBRANCH   9  11
ENDBRANCH   1   9
BRANCH   1  13
HETATM   13  N   UNK N   1      33.437  16.477   9.359  0.00  0.00    -0.416 N 
HETATM   14  H   UNK N   1      33.063  16.203  10.267  0.00  0.00     0.150 HD
HETATM   15  H   UNK N   1      34.062  15.840   8.865  0.00  0.00     0.150 HD
ENDBRANCH   1  13
TORSDOF 7
ENDMDL
MODEL 9
REMARK VINA RESULT:      -4.0     15.090     16.360
REMARK  7 active torsions:
REMARK  status: ('A' for Active; 'I' for Inactive)
REMARK    1  A    between atoms: C_2  and  C_1 
REMARK    2  A    between atoms: O_10  and  C_1 
REMARK    3  A    between atoms: C_3  and  C_2 
REMARK    4  A    between atoms: C_2  and  N_4 
REMARK    5  A    between atoms: O_6  and  C_3 
REMARK    6  A    between atoms: S_11  and  O_7 
REMARK    7  A    between atoms: S_11  and  O_10 
ROOT
HETATM    1  C   UNK N   1      21.100  20.162   1.437  0.00  0.00     0.198 C 
ENDROOT
BRANCH   1   2
HETATM    2  C   UNK N   1      20.296  18.912   1.760  0.00  0.00     0.227 C 
BRANCH   2   3
HETATM    3  O   UNK N   1      21.101  17.774   1.598  0.00  0.00    -0.261 OA
BRANCH   3   4
HETATM    4  S   UNK N   1      20.036  16.525   1.065  0.00  0.00     0.240 S 
HETATM    5  O   UNK N   1      19.200  17.496   1.913  0.00  0.00    -0.579 OA
HETATM    6  O   UNK N   1      20.374  17.319  -0.210  0.00  0.00    -0.579 OA
BRANCH   4   7
HETATM    7  O   UNK N   1      18.575  16.835   0.220  0.00  0.00    -0.274 OA
HETATM    8  H   UNK N   1      18.337  17.615  -0.304  0.00  0.00     0.234 HD
ENDBRANCH   4   7
ENDBRANCH   3   4
ENDBRANCH   2   3
ENDBRANCH   1   2
BRANCH   1   9
HETATM    9  C   UNK N   1      21.365  20.932   2.700  0.00  0.00     0.165 C 
HETATM   10  O   UNK N   1      22.445  21.469   2.892  0.00  0.00    -0.648 OA
BRANCH   9  11
HETATM   11  O   UNK N   1      20.405  21.013   3.642  0.00  0.00    -0.775 OA
HETATM   12  H   UNK N   1      20.545  20.722   4.521  0.00  0.00     0.167 HD
ENDBRANCH   9  11
ENDBRANCH   1   9
BRANCH   1  13
HETATM   13  N   UNK N   1      20.368  20.968   0.471  0.00  0.00    -0.416 N 
HETATM   14  H   UNK N   1      19.495  20.646   0.056  0.00  0.00     0.150 HD
HETATM   15  H   UNK N   1      20.740  21.880   0.204  0.00  0.00     0.150 HD
ENDBRANCH   1  13
TORSDOF 7
ENDMDL
