MODEL 1
REMARK VINA RESULT:      -4.6      0.000      0.000
REMARK  4 active torsions:
REMARK  status: ('A' for Active; 'I' for Inactive)
REMARK    1  A    between atoms: C_2  and  N_3 
REMARK    2  A    between atoms: N_3  and  C_5 
REMARK    3  A    between atoms: C_5  and  C_6 
REMARK    4  A    between atoms: C_14  and  N_15 
ROOT
HETATM    1  C   UNK N   1      33.055  16.525   8.748  0.00  0.00     0.029 A 
HETATM    2  C   UNK N   1      32.787  15.369   9.482  0.00  0.00     0.102 A 
HETATM    3  N   UNK N   1      33.596  15.006  10.513  0.00  0.00    -0.355 N 
ATOM      4  HN  UNK N   1      33.392  14.157  11.040  1.00  0.00     0.166 HD
HETATM    5  C   UNK N   1      34.673  15.763  10.849  0.00  0.00     0.078 A 
HETATM    6  C   UNK N   1      35.523  15.372  12.005  0.00  0.00     0.089 C 
HETATM    7  N   UNK N   1      34.962  16.887  10.148  0.00  0.00    -0.332 N 
ATOM      8  HN  UNK N   1      35.778  17.442  10.406  1.00  0.00     0.168 HD
HETATM    9  C   UNK N   1      34.182  17.288   9.108  0.00  0.00     0.109 A 
ENDROOT
BRANCH   1  10
HETATM   10  C   UNK N   1      32.075  16.945   7.681  0.00  0.00     0.315 C 
BRANCH  10  11
HETATM   11  N   UNK N   1      30.699  17.085   8.144  0.00  0.00     0.088 N 
HETATM   12  C   UNK N   1      29.869  17.171   6.949  0.00  0.00     0.310 C 
BRANCH  11  13
HETATM   13  C   UNK N   1      30.642  18.393   8.794  0.00  0.00     0.268 C 
HETATM   14  C   UNK N   1      29.515  18.474   9.818  0.00  0.00     0.037 C 
ENDBRANCH  11  13
ENDBRANCH  10  11
ENDBRANCH   1  10
BRANCH   9  15
HETATM   15  N   UNK N   1      34.501  18.483   8.436  0.00  0.00    -0.385 N 
HETATM   16  H   UNK N   1      34.155  19.345   8.760  0.00  0.00     0.157 HD
HETATM   17  H   UNK N   1      35.075  18.456   7.635  0.00  0.00     0.157 HD
ENDBRANCH   9  15
TORSDOF 4
ENDMDL
MODEL 2
REMARK VINA RESULT:      -4.6      2.569      6.019
REMARK  4 active torsions:
REMARK  status: ('A' for Active; 'I' for Inactive)
REMARK    1  A    between atoms: C_2  and  N_3 
REMARK    2  A    between atoms: N_3  and  C_5 
REMARK    3  A    between atoms: C_5  and  C_6 
REMARK    4  A    between atoms: C_14  and  N_15 
ROOT
HETATM    1  C   UNK N   1      34.816  15.059  11.061  0.00  0.00     0.029 A 
HETATM    2  C   UNK N   1      35.345  16.342  11.211  0.00  0.00     0.102 A 
HETATM    3  N   UNK N   1      35.086  17.304  10.285  0.00  0.00    -0.355 N 
ATOM      4  HN  UNK N   1      35.481  18.236  10.403  1.00  0.00     0.166 HD
HETATM    5  C   UNK N   1      34.306  17.036   9.205  0.00  0.00     0.078 A 
HETATM    6  C   UNK N   1      34.001  18.112   8.225  0.00  0.00     0.089 C 
HETATM    7  N   UNK N   1      33.786  15.797   9.031  0.00  0.00    -0.332 N 
ATOM      8  HN  UNK N   1      33.208  15.606   8.212  1.00  0.00     0.168 HD
HETATM    9  C   UNK N   1      34.019  14.801   9.929  0.00  0.00     0.109 A 
ENDROOT
BRANCH   1  10
HETATM   10  C   UNK N   1      35.043  14.053  12.162  0.00  0.00     0.315 C 
BRANCH  10  11
HETATM   11  N   UNK N   1      36.415  13.994  12.656  0.00  0.00     0.088 N 
HETATM   12  C   UNK N   1      37.119  13.047  11.801  0.00  0.00     0.310 C 
BRANCH  11  13
HETATM   13  C   UNK N   1      36.323  13.383  13.980  0.00  0.00     0.268 C 
HETATM   14  C   UNK N   1      36.839  14.309  15.074  0.00  0.00     0.037 C 
ENDBRANCH  11  13
ENDBRANCH  10  11
ENDBRANCH   1  10
BRANCH   9  15
HETATM   15  N   UNK N   1      33.424  13.542   9.725  0.00  0.00    -0.385 N 
HETATM   16  H   UNK N   1      33.981  12.734   9.648  0.00  0.00     0.157 HD
HETATM   17  H   UNK N   1      32.444  13.469   9.658  0.00  0.00     0.157 HD
ENDBRANCH   9  15
TORSDOF 4
ENDMDL
MODEL 3
REMARK VINA RESULT:      -4.5      3.036      6.737
REMARK  4 active torsions:
REMARK  status: ('A' for Active; 'I' for Inactive)
REMARK    1  A    between atoms: C_2  and  N_3 
REMARK    2  A    between atoms: N_3  and  C_5 
REMARK    3  A    between atoms: C_5  and  C_6 
REMARK    4  A    between atoms: C_14  and  N_15 
ROOT
HETATM    1  C   UNK N   1      29.065  17.871   6.798  0.00  0.00     0.029 A 
HETATM    2  C   UNK N   1      29.319  17.862   5.425  0.00  0.00     0.102 A 
HETATM    3  N   UNK N   1      28.586  18.643   4.586  0.00  0.00    -0.355 N 
ATOM      4  HN  UNK N   1      28.778  18.625   3.585  1.00  0.00     0.166 HD
HETATM    5  C   UNK N   1      27.603  19.446   5.068  0.00  0.00     0.078 A 
HETATM    6  C   UNK N   1      26.839  20.323   4.140  0.00  0.00     0.089 C 
HETATM    7  N   UNK N   1      27.329  19.469   6.396  0.00  0.00    -0.332 N 
ATOM      8  HN  UNK N   1      26.583  20.071   6.744  1.00  0.00     0.168 HD
HETATM    9  C   UNK N   1      28.034  18.704   7.273  0.00  0.00     0.109 A 
ENDROOT
BRANCH   1  10
HETATM   10  C   UNK N   1      29.968  17.069   7.702  0.00  0.00     0.315 C 
BRANCH  10  11
HETATM   11  N   UNK N   1      31.376  17.085   7.322  0.00  0.00     0.088 N 
HETATM   12  C   UNK N   1      31.847  15.710   7.429  0.00  0.00     0.310 C 
BRANCH  11  13
HETATM   13  C   UNK N   1      32.051  17.847   8.370  0.00  0.00     0.268 C 
HETATM   14  C   UNK N   1      33.485  18.197   7.991  0.00  0.00     0.037 C 
ENDBRANCH  11  13
ENDBRANCH  10  11
ENDBRANCH   1  10
BRANCH   9  15
HETATM   15  N   UNK N   1      27.740  18.792   8.646  0.00  0.00    -0.385 N 
HETATM   16  H   UNK N   1      26.904  18.416   9.003  0.00  0.00     0.157 HD
HETATM   17  H   UNK N   1      28.376  19.233   9.256  0.00  0.00     0.157 HD
ENDBRANCH   9  15
TORSDOF 4
ENDMDL
MODEL 4
REMARK VINA RESULT:      -4.4      9.700     11.029
REMARK  4 active torsions:
REMARK  status: ('A' for Active; 'I' for Inactive)
REMARK    1  A    between atoms: C_2  and  N_3 
REMARK    2  A    between atoms: N_3  and  C_5 
REMARK    3  A    between atoms: C_5  and  C_6 
REMARK    4  A    between atoms: C_14  and  N_15 
ROOT
HETATM    1  C   UNK N   1      22.585  12.842   9.172  0.00  0.00     0.029 A 
HETATM    2  C   UNK N   1      21.550  12.382   9.987  0.00  0.00     0.102 A 
HETATM    3  N   UNK N   1      21.795  12.041  11.281  0.00  0.00    -0.355 N 
ATOM      4  HN  UNK N   1      21.031  11.702  11.866  1.00  0.00     0.166 HD
HETATM    5  C   UNK N   1      23.045  12.146  11.802  0.00  0.00     0.078 A 
HETATM    6  C   UNK N   1      23.285  11.807  13.230  0.00  0.00     0.089 C 
HETATM    7  N   UNK N   1      24.071  12.583  11.031  0.00  0.00    -0.332 N 
ATOM      8  HN  UNK N   1      25.006  12.650  11.432  1.00  0.00     0.168 HD
HETATM    9  C   UNK N   1      23.875  12.934   9.731  0.00  0.00     0.109 A 
ENDROOT
BRANCH   1  10
HETATM   10  C   UNK N   1      22.251  13.307   7.776  0.00  0.00     0.315 C 
BRANCH  10  11
HETATM   11  N   UNK N   1      20.972  13.999   7.658  0.00  0.00     0.088 N 
HETATM   12  C   UNK N   1      20.471  13.713   6.320  0.00  0.00     0.310 C 
BRANCH  11  13
HETATM   13  C   UNK N   1      21.299  15.422   7.694  0.00  0.00     0.268 C 
HETATM   14  C   UNK N   1      22.375  15.787   6.677  0.00  0.00     0.037 C 
ENDBRANCH  11  13
ENDBRANCH  10  11
ENDBRANCH   1  10
BRANCH   9  15
HETATM   15  N   UNK N   1      24.963  13.418   8.982  0.00  0.00    -0.385 N 
HETATM   16  H   UNK N   1      25.171  14.380   8.969  0.00  0.00     0.157 HD
HETATM   17  H   UNK N   1      25.521  12.790   8.467  0.00  0.00     0.157 HD
ENDBRANCH   9  15
TORSDOF 4
ENDMDL
MODEL 5
REMARK VINA RESULT:      -4.4      4.858      8.391
REMARK  4 active torsions:
REMARK  status: ('A' for Active; 'I' for Inactive)
REMARK    1  A    between atoms: C_2  and  N_3 
REMARK    2  A    between atoms: N_3  and  C_5 
REMARK    3  A    between atoms: C_5  and  C_6 
REMARK    4  A    between atoms: C_14  and  N_15 
ROOT
HETATM    1  C   UNK N   1      35.731  12.991  14.587  0.00  0.00     0.029 A 
HETATM    2  C   UNK N   1      34.882  12.218  13.793  0.00  0.00     0.102 A 
HETATM    3  N   UNK N   1      34.575  12.614  12.529  0.00  0.00    -0.355 N 
ATOM      4  HN  UNK N   1      33.950  12.043  11.959  1.00  0.00     0.166 HD
HETATM    5  C   UNK N   1      35.091  13.761  12.016  0.00  0.00     0.078 A 
HETATM    6  C   UNK N   1      34.776  14.157  10.617  0.00  0.00     0.089 C 
HETATM    7  N   UNK N   1      35.912  14.535  12.768  0.00  0.00    -0.332 N 
ATOM      8  HN  UNK N   1      36.287  15.398  12.374  1.00  0.00     0.168 HD
HETATM    9  C   UNK N   1      36.246  14.181  14.039  0.00  0.00     0.109 A 
ENDROOT
BRANCH   1  10
HETATM   10  C   UNK N   1      36.127  12.463  15.944  0.00  0.00     0.315 C 
BRANCH  10  11
HETATM   11  N   UNK N   1      35.055  12.473  16.934  0.00  0.00     0.088 N 
HETATM   12  C   UNK N   1      35.197  13.716  17.681  0.00  0.00     0.310 C 
BRANCH  11  13
HETATM   13  C   UNK N   1      35.372  11.385  17.857  0.00  0.00     0.268 C 
HETATM   14  C   UNK N   1      36.242  10.317  17.205  0.00  0.00     0.037 C 
ENDBRANCH  11  13
ENDBRANCH  10  11
ENDBRANCH   1  10
BRANCH   9  15
HETATM   15  N   UNK N   1      37.133  14.997  14.765  0.00  0.00    -0.385 N 
HETATM   16  H   UNK N   1      37.986  14.635  15.096  0.00  0.00     0.157 HD
HETATM   17  H   UNK N   1      36.898  15.936  14.944  0.00  0.00     0.157 HD
ENDBRANCH   9  15
TORSDOF 4
ENDMDL
MODEL 6
REMARK VINA RESULT:      -4.2     16.945     18.680
REMARK  4 active torsions:
REMARK  status: ('A' for Active; 'I' for Inactive)
REMARK    1  A    between atoms: C_2  and  N_3 
REMARK    2  A    between atoms: N_3  and  C_5 
REMARK    3  A    between atoms: C_5  and  C_6 
REMARK    4  A    between atoms: C_14  and  N_15 
ROOT
HETATM    1  C   UNK N   1      26.054  26.416  -4.197  0.00  0.00     0.029 A 
HETATM    2  C   UNK N   1      26.868  25.339  -3.841  0.00  0.00     0.102 A 
HETATM    3  N   UNK N   1      26.854  24.196  -4.577  0.00  0.00    -0.355 N 
ATOM      4  HN  UNK N   1      27.449  23.414  -4.305  1.00  0.00     0.166 HD
HETATM    5  C   UNK N   1      26.054  24.082  -5.669  0.00  0.00     0.078 A 
HETATM    6  C   UNK N   1      26.082  22.838  -6.484  0.00  0.00     0.089 C 
HETATM    7  N   UNK N   1      25.247  25.109  -6.033  0.00  0.00    -0.332 N 
ATOM      8  HN  UNK N   1      24.646  25.009  -6.851  1.00  0.00     0.168 HD
HETATM    9  C   UNK N   1      25.226  26.273  -5.327  0.00  0.00     0.109 A 
ENDROOT
BRANCH   1  10
HETATM   10  C   UNK N   1      26.177  27.701  -3.416  0.00  0.00     0.315 C 
BRANCH  10  11
HETATM   11  N   UNK N   1      27.407  28.445  -3.663  0.00  0.00     0.088 N 
HETATM   12  C   UNK N   1      27.698  29.178  -2.438  0.00  0.00     0.310 C 
BRANCH  11  13
HETATM   13  C   UNK N   1      27.060  29.438  -4.678  0.00  0.00     0.268 C 
HETATM   14  C   UNK N   1      27.760  29.168  -6.005  0.00  0.00     0.037 C 
ENDBRANCH  11  13
ENDBRANCH  10  11
ENDBRANCH   1  10
BRANCH   9  15
HETATM   15  N   UNK N   1      24.401  27.325  -5.767  0.00  0.00    -0.385 N 
HETATM   16  H   UNK N   1      24.343  27.547  -6.724  0.00  0.00     0.157 HD
HETATM   17  H   UNK N   1      23.878  27.842  -5.112  0.00  0.00     0.157 HD
ENDBRANCH   9  15
TORSDOF 4
ENDMDL
MODEL 7
REMARK VINA RESULT:      -4.2      5.316      8.080
REMARK  4 active torsions:
REMARK  status: ('A' for Active; 'I' for Inactive)
REMARK    1  A    between atoms: C_2  and  N_3 
REMARK    2  A    between atoms: N_3  and  C_5 
REMARK    3  A    between atoms: C_5  and  C_6 
REMARK    4  A    between atoms: C_14  and  N_15 
ROOT
HETATM    1  C   UNK N   1      35.362  13.021  13.990  0.00  0.00     0.029 A 
HETATM    2  C   UNK N   1      36.130  14.185  14.029  0.00  0.00     0.102 A 
HETATM    3  N   UNK N   1      36.522  14.788  12.875  0.00  0.00    -0.355 N 
ATOM      4  HN  UNK N   1      37.087  15.636  12.916  1.00  0.00     0.166 HD
HETATM    5  C   UNK N   1      36.171  14.272  11.669  0.00  0.00     0.078 A 
HETATM    6  C   UNK N   1      36.576  14.967  10.417  0.00  0.00     0.089 C 
HETATM    7  N   UNK N   1      35.432  13.137  11.601  0.00  0.00    -0.332 N 
ATOM      8  HN  UNK N   1      35.181  12.756  10.689  1.00  0.00     0.168 HD
HETATM    9  C   UNK N   1      35.018  12.498  12.729  0.00  0.00     0.109 A 
ENDROOT
BRANCH   1  10
HETATM   10  C   UNK N   1      34.862  12.444  15.292  0.00  0.00     0.315 C 
BRANCH  10  11
HETATM   11  N   UNK N   1      35.895  12.239  16.300  0.00  0.00     0.088 N 
HETATM   12  C   UNK N   1      36.293  10.840  16.204  0.00  0.00     0.310 C 
BRANCH  11  13
HETATM   13  C   UNK N   1      35.218  12.399  17.585  0.00  0.00     0.268 C 
HETATM   14  C   UNK N   1      35.209  13.851  18.049  0.00  0.00     0.037 C 
ENDBRANCH  11  13
ENDBRANCH  10  11
ENDBRANCH   1  10
BRANCH   9  15
HETATM   15  N   UNK N   1      34.219  11.346  12.608  0.00  0.00    -0.385 N 
HETATM   16  H   UNK N   1      34.439  10.531  13.113  0.00  0.00     0.157 HD
HETATM   17  H   UNK N   1      33.435  11.355  12.012  0.00  0.00     0.157 HD
ENDBRANCH   9  15
TORSDOF 4
ENDMDL
MODEL 8
REMARK VINA RESULT:      -4.2      2.482      4.239
REMARK  4 active torsions:
REMARK  status: ('A' for Active; 'I' for Inactive)
REMARK    1  A    between atoms: C_2  and  N_3 
REMARK    2  A    between atoms: N_3  and  C_5 
REMARK    3  A    between atoms: C_5  and  C_6 
REMARK    4  A    between atoms: C_14  and  N_15 
ROOT
HETATM    1  C   UNK N   1      35.235  14.626  10.842  0.00  0.00     0.029 A 
HETATM    2  C   UNK N   1      35.965  15.548  11.594  0.00  0.00     0.102 A 
HETATM    3  N   UNK N   1      36.371  15.238  12.854  0.00  0.00    -0.355 N 
ATOM      4  HN  UNK N   1      36.901  15.921  13.395  1.00  0.00     0.166 HD
HETATM    5  C   UNK N   1      36.078  14.030  13.401  0.00  0.00     0.078 A 
HETATM    6  C   UNK N   1      36.565  13.695  14.766  0.00  0.00     0.089 C 
HETATM    7  N   UNK N   1      35.363  13.118  12.697  0.00  0.00    -0.332 N 
ATOM      8  HN  UNK N   1      35.143  12.218  13.121  1.00  0.00     0.168 HD
HETATM    9  C   UNK N   1      34.934  13.383  11.432  0.00  0.00     0.109 A 
ENDROOT
BRANCH   1  10
HETATM   10  C   UNK N   1      34.895  14.970   9.413  0.00  0.00     0.315 C 
BRANCH  10  11
HETATM   11  N   UNK N   1      33.992  16.106   9.262  0.00  0.00     0.088 N 
HETATM   12  C   UNK N   1      32.666  15.549   9.028  0.00  0.00     0.310 C 
BRANCH  11  13
HETATM   13  C   UNK N   1      34.401  16.761   8.021  0.00  0.00     0.268 C 
HETATM   14  C   UNK N   1      34.253  18.276   8.099  0.00  0.00     0.037 C 
ENDBRANCH  11  13
ENDBRANCH  10  11
ENDBRANCH   1  10
BRANCH   9  15
HETATM   15  N   UNK N   1      34.229  12.391  10.727  0.00  0.00    -0.385 N 
HETATM   16  H   UNK N   1      33.614  11.784  11.200  0.00  0.00     0.157 HD
HETATM   17  H   UNK N   1      34.352  12.301   9.754  0.00  0.00     0.157 HD
ENDBRANCH   9  15
TORSDOF 4
ENDMDL
MODEL 9
REMARK VINA RESULT:      -4.2     12.592     14.493
REMARK  4 active torsions:
REMARK  status: ('A' for Active; 'I' for Inactive)
REMARK    1  A    between atoms: C_2  and  N_3 
REMARK    2  A    between atoms: N_3  and  C_5 
REMARK    3  A    between atoms: C_5  and  C_6 
REMARK    4  A    between atoms: C_14  and  N_15 
ROOT
HETATM    1  C   UNK N   1      43.613  22.469   2.869  0.00  0.00     0.029 A 
HETATM    2  C   UNK N   1      42.990  23.236   1.883  0.00  0.00     0.102 A 
HETATM    3  N   UNK N   1      43.641  24.288   1.319  0.00  0.00    -0.355 N 
ATOM      4  HN  UNK N   1      43.174  24.844   0.603  1.00  0.00     0.166 HD
HETATM    5  C   UNK N   1      44.905  24.607   1.700  0.00  0.00     0.078 A 
HETATM    6  C   UNK N   1      45.616  25.737   1.043  0.00  0.00     0.089 C 
HETATM    7  N   UNK N   1      45.531  23.884   2.660  0.00  0.00    -0.332 N 
ATOM      8  HN  UNK N   1      46.478  24.139   2.943  1.00  0.00     0.168 HD
HETATM    9  C   UNK N   1      44.920  22.823   3.255  0.00  0.00     0.109 A 
ENDROOT
BRANCH   1  10
HETATM   10  C   UNK N   1      42.895  21.249   3.393  0.00  0.00     0.315 C 
BRANCH  10  11
HETATM   11  N   UNK N   1      41.935  20.664   2.463  0.00  0.00     0.088 N 
HETATM   12  C   UNK N   1      40.845  20.138   3.274  0.00  0.00     0.310 C 
BRANCH  11  13
HETATM   13  C   UNK N   1      42.619  19.515   1.875  0.00  0.00     0.268 C 
HETATM   14  C   UNK N   1      43.562  18.841   2.866  0.00  0.00     0.037 C 
ENDBRANCH  11  13
ENDBRANCH  10  11
ENDBRANCH   1  10
BRANCH   9  15
HETATM   15  N   UNK N   1      45.625  22.080   4.219  0.00  0.00    -0.385 N 
HETATM   16  H   UNK N   1      46.590  22.221   4.350  0.00  0.00     0.157 HD
HETATM   17  H   UNK N   1      45.149  21.413   4.766  0.00  0.00     0.157 HD
ENDBRANCH   9  15
TORSDOF 4
ENDMDL
