MODEL 1
REMARK VINA RESULT:      -7.3      0.000      0.000
REMARK  3 active torsions:
REMARK  status: ('A' for Active; 'I' for Inactive)
REMARK    1  A    between atoms: C_15  and  N_16 
REMARK    2  A    between atoms: N_16  and  C_17 
REMARK    3  A    between atoms: C_17  and  C_18 
ROOT
HETATM    1  C   UNK N   1      29.474  18.482   9.696  0.00  0.00     0.006 C 
HETATM    2  C   UNK N   1      28.174  17.966   9.113  0.00  0.00     0.005 C 
HETATM    3  C   UNK N   1      28.172  18.120   7.594  0.00  0.00     0.043 C 
HETATM    4  C   UNK N   1      29.479  17.735   6.937  0.00  0.00    -0.008 A 
HETATM    5  C   UNK N   1      30.637  17.483   7.707  0.00  0.00     0.018 A 
HETATM    6  C   UNK N   1      30.626  17.613   9.203  0.00  0.00     0.057 C 
HETATM    7  N   UNK N   1      31.802  17.145   7.093  0.00  0.00    -0.358 N 
ATOM      8  HN  UNK N   1      32.627  16.964   7.665  1.00  0.00     0.166 HD
HETATM    9  C   UNK N   1      31.901  17.040   5.746  0.00  0.00     0.044 A 
HETATM   10  C   UNK N   1      33.124  16.679   5.169  0.00  0.00     0.030 A 
HETATM   11  C   UNK N   1      33.241  16.565   3.782  0.00  0.00     0.002 A 
HETATM   12  C   UNK N   1      32.136  16.807   2.965  0.00  0.00     0.001 A 
HETATM   13  C   UNK N   1      30.914  17.175   3.533  0.00  0.00     0.016 A 
HETATM   14  C   UNK N   1      30.779  17.301   4.925  0.00  0.00     0.018 A 
HETATM   15  C   UNK N   1      29.552  17.669   5.535  0.00  0.00     0.049 A 
ENDROOT
BRANCH  15  16
HETATM   16  N   UNK N   1      28.397  18.009   4.772  0.00  0.00    -0.384 N 
HETATM   17  H   UNK N   1      27.794  17.292   4.467  0.00  0.00     0.160 HD
BRANCH  16  18
HETATM   18  C   UNK N   1      28.086  19.376   4.434  0.00  0.00     0.158 C 
BRANCH  18  19
HETATM   19  C   UNK N   1      26.647  19.561   4.121  0.00  0.00    -0.041 A 
HETATM   20  C   UNK N   1      25.700  18.794   4.803  0.00  0.00     0.009 A 
HETATM   21  C   UNK N   1      24.345  18.913   4.489  0.00  0.00     0.001 A 
HETATM   22  C   UNK N   1      23.936  19.793   3.484  0.00  0.00     0.000 A 
HETATM   23  C   UNK N   1      24.883  20.558   2.795  0.00  0.00     0.001 A 
HETATM   24  C   UNK N   1      26.240  20.442   3.111  0.00  0.00     0.009 A 
ENDBRANCH  18  19
ENDBRANCH  16  18
ENDBRANCH  15  16
TORSDOF 3
ENDMDL
MODEL 2
REMARK VINA RESULT:      -7.2      1.200      4.196
REMARK  3 active torsions:
REMARK  status: ('A' for Active; 'I' for Inactive)
REMARK    1  A    between atoms: C_15  and  N_16 
REMARK    2  A    between atoms: N_16  and  C_17 
REMARK    3  A    between atoms: C_17  and  C_18 
ROOT
HETATM    1  C   UNK N   1      34.076  15.913   5.004  0.00  0.00     0.006 C 
HETATM    2  C   UNK N   1      33.248  16.336   3.806  0.00  0.00     0.005 C 
HETATM    3  C   UNK N   1      31.759  16.251   4.131  0.00  0.00     0.043 C 
HETATM    4  C   UNK N   1      31.398  16.782   5.501  0.00  0.00    -0.008 A 
HETATM    5  C   UNK N   1      32.399  17.102   6.446  0.00  0.00     0.018 A 
HETATM    6  C   UNK N   1      33.856  16.905   6.141  0.00  0.00     0.057 C 
HETATM    7  N   UNK N   1      32.050  17.572   7.673  0.00  0.00    -0.358 N 
ATOM      8  HN  UNK N   1      32.786  17.801   8.342  1.00  0.00     0.166 HD
HETATM    9  C   UNK N   1      30.756  17.747   8.036  0.00  0.00     0.044 A 
HETATM   10  C   UNK N   1      30.456  18.242   9.309  0.00  0.00     0.030 A 
HETATM   11  C   UNK N   1      29.128  18.429   9.697  0.00  0.00     0.002 A 
HETATM   12  C   UNK N   1      28.093  18.125   8.811  0.00  0.00     0.001 A 
HETATM   13  C   UNK N   1      28.384  17.623   7.541  0.00  0.00     0.016 A 
HETATM   14  C   UNK N   1      29.714  17.422   7.137  0.00  0.00     0.018 A 
HETATM   15  C   UNK N   1      30.045  16.918   5.853  0.00  0.00     0.049 A 
ENDROOT
BRANCH  15  16
HETATM   16  N   UNK N   1      29.049  16.509   4.917  0.00  0.00    -0.384 N 
HETATM   17  H   UNK N   1      28.627  15.626   5.022  0.00  0.00     0.160 HD
BRANCH  16  18
HETATM   18  C   UNK N   1      28.645  17.355   3.822  0.00  0.00     0.158 C 
BRANCH  18  19
HETATM   19  C   UNK N   1      27.668  18.389   4.247  0.00  0.00    -0.041 A 
HETATM   20  C   UNK N   1      28.127  19.674   4.548  0.00  0.00     0.009 A 
HETATM   21  C   UNK N   1      27.235  20.649   4.999  0.00  0.00     0.001 A 
HETATM   22  C   UNK N   1      25.883  20.336   5.159  0.00  0.00     0.000 A 
HETATM   23  C   UNK N   1      25.422  19.049   4.863  0.00  0.00     0.001 A 
HETATM   24  C   UNK N   1      26.314  18.073   4.408  0.00  0.00     0.009 A 
ENDBRANCH  18  19
ENDBRANCH  16  18
ENDBRANCH  15  16
TORSDOF 3
ENDMDL
MODEL 3
REMARK VINA RESULT:      -7.2      2.032      6.822
REMARK  3 active torsions:
REMARK  status: ('A' for Active; 'I' for Inactive)
REMARK    1  A    between atoms: C_15  and  N_16 
REMARK    2  A    between atoms: N_16  and  C_17 
REMARK    3  A    between atoms: C_17  and  C_18 
ROOT
HETATM    1  C   UNK N   1      31.020  15.352   3.357  0.00  0.00     0.006 C 
HETATM    2  C   UNK N   1      30.644  14.533   4.576  0.00  0.00     0.005 C 
HETATM    3  C   UNK N   1      30.390  15.446   5.773  0.00  0.00     0.043 C 
HETATM    4  C   UNK N   1      29.588  16.685   5.440  0.00  0.00    -0.008 A 
HETATM    5  C   UNK N   1      29.318  17.042   4.100  0.00  0.00     0.018 A 
HETATM    6  C   UNK N   1      29.836  16.223   2.953  0.00  0.00     0.057 C 
HETATM    7  N   UNK N   1      28.600  18.164   3.826  0.00  0.00    -0.358 N 
ATOM      8  HN  UNK N   1      28.413  18.405   2.852  1.00  0.00     0.166 HD
HETATM    9  C   UNK N   1      28.127  18.972   4.805  0.00  0.00     0.044 A 
HETATM   10  C   UNK N   1      27.386  20.109   4.464  0.00  0.00     0.030 A 
HETATM   11  C   UNK N   1      26.890  20.951   5.462  0.00  0.00     0.002 A 
HETATM   12  C   UNK N   1      27.128  20.657   6.805  0.00  0.00     0.001 A 
HETATM   13  C   UNK N   1      27.872  19.528   7.153  0.00  0.00     0.016 A 
HETATM   14  C   UNK N   1      28.385  18.674   6.163  0.00  0.00     0.018 A 
HETATM   15  C   UNK N   1      29.142  17.517   6.481  0.00  0.00     0.049 A 
ENDROOT
BRANCH  15  16
HETATM   16  N   UNK N   1      29.497  17.187   7.823  0.00  0.00    -0.384 N 
HETATM   17  H   UNK N   1      29.070  16.412   8.255  0.00  0.00     0.160 HD
BRANCH  16  18
HETATM   18  C   UNK N   1      30.465  17.958   8.563  0.00  0.00     0.158 C 
BRANCH  18  19
HETATM   19  C   UNK N   1      31.831  17.389   8.457  0.00  0.00    -0.041 A 
HETATM   20  C   UNK N   1      32.864  18.189   7.961  0.00  0.00     0.009 A 
HETATM   21  C   UNK N   1      34.146  17.660   7.804  0.00  0.00     0.001 A 
HETATM   22  C   UNK N   1      34.396  16.325   8.133  0.00  0.00     0.000 A 
HETATM   23  C   UNK N   1      33.363  15.520   8.624  0.00  0.00     0.001 A 
HETATM   24  C   UNK N   1      32.079  16.051   8.785  0.00  0.00     0.009 A 
ENDBRANCH  18  19
ENDBRANCH  16  18
ENDBRANCH  15  16
TORSDOF 3
ENDMDL
MODEL 4
REMARK VINA RESULT:      -7.1     12.204     13.799
REMARK  3 active torsions:
REMARK  status: ('A' for Active; 'I' for Inactive)
REMARK    1  A    between atoms: C_15  and  N_16 
REMARK    2  A    between atoms: N_16  and  C_17 
REMARK    3  A    between atoms: C_17  and  C_18 
ROOT
HETATM    1  C   UNK N   1      30.956  24.977  -4.826  0.00  0.00     0.006 C 
HETATM    2  C   UNK N   1      30.014  25.161  -3.652  0.00  0.00     0.005 C 
HETATM    3  C   UNK N   1      28.564  25.172  -4.129  0.00  0.00     0.043 C 
HETATM    4  C   UNK N   1      28.252  24.116  -5.168  0.00  0.00    -0.008 A 
HETATM    5  C   UNK N   1      29.282  23.366  -5.778  0.00  0.00     0.018 A 
HETATM    6  C   UNK N   1      30.727  23.602  -5.443  0.00  0.00     0.057 C 
HETATM    7  N   UNK N   1      28.977  22.427  -6.713  0.00  0.00    -0.358 N 
ATOM      8  HN  UNK N   1      29.733  21.894  -7.143  1.00  0.00     0.166 HD
HETATM    9  C   UNK N   1      27.700  22.179  -7.094  0.00  0.00     0.044 A 
HETATM   10  C   UNK N   1      27.445  21.195  -8.055  0.00  0.00     0.030 A 
HETATM   11  C   UNK N   1      26.135  20.926  -8.456  0.00  0.00     0.002 A 
HETATM   12  C   UNK N   1      25.073  21.638  -7.895  0.00  0.00     0.001 A 
HETATM   13  C   UNK N   1      25.321  22.626  -6.941  0.00  0.00     0.016 A 
HETATM   14  C   UNK N   1      26.632  22.915  -6.531  0.00  0.00     0.018 A 
HETATM   15  C   UNK N   1      26.919  23.911  -5.562  0.00  0.00     0.049 A 
ENDROOT
BRANCH  15  16
HETATM   16  N   UNK N   1      25.902  24.736  -4.996  0.00  0.00    -0.384 N 
HETATM   17  H   UNK N   1      25.616  24.576  -4.067  0.00  0.00     0.160 HD
BRANCH  16  18
HETATM   18  C   UNK N   1      25.282  25.798  -5.749  0.00  0.00     0.158 C 
BRANCH  18  19
HETATM   19  C   UNK N   1      25.896  27.118  -5.461  0.00  0.00    -0.041 A 
HETATM   20  C   UNK N   1      26.861  27.624  -6.336  0.00  0.00     0.009 A 
HETATM   21  C   UNK N   1      27.490  28.839  -6.059  0.00  0.00     0.001 A 
HETATM   22  C   UNK N   1      27.161  29.546  -4.899  0.00  0.00     0.000 A 
HETATM   23  C   UNK N   1      26.199  29.040  -4.019  0.00  0.00     0.001 A 
HETATM   24  C   UNK N   1      25.566  27.824  -4.298  0.00  0.00     0.009 A 
ENDBRANCH  18  19
ENDBRANCH  16  18
ENDBRANCH  15  16
TORSDOF 3
ENDMDL
MODEL 5
REMARK VINA RESULT:      -7.1      1.973      6.017
REMARK  3 active torsions:
REMARK  status: ('A' for Active; 'I' for Inactive)
REMARK    1  A    between atoms: C_15  and  N_16 
REMARK    2  A    between atoms: N_16  and  C_17 
REMARK    3  A    between atoms: C_17  and  C_18 
ROOT
HETATM    1  C   UNK N   1      26.441  20.390   5.451  0.00  0.00     0.006 C 
HETATM    2  C   UNK N   1      27.294  20.717   6.661  0.00  0.00     0.005 C 
HETATM    3  C   UNK N   1      27.961  19.455   7.200  0.00  0.00     0.043 C 
HETATM    4  C   UNK N   1      28.522  18.550   6.125  0.00  0.00    -0.008 A 
HETATM    5  C   UNK N   1      28.234  18.773   4.760  0.00  0.00     0.018 A 
HETATM    6  C   UNK N   1      27.339  19.897   4.322  0.00  0.00     0.057 C 
HETATM    7  N   UNK N   1      28.745  17.943   3.813  0.00  0.00    -0.358 N 
ATOM      8  HN  UNK N   1      28.528  18.120   2.831  1.00  0.00     0.166 HD
HETATM    9  C   UNK N   1      29.534  16.888   4.130  0.00  0.00     0.044 A 
HETATM   10  C   UNK N   1      30.039  16.071   3.112  0.00  0.00     0.030 A 
HETATM   11  C   UNK N   1      30.854  14.981   3.423  0.00  0.00     0.002 A 
HETATM   12  C   UNK N   1      31.171  14.704   4.754  0.00  0.00     0.001 A 
HETATM   13  C   UNK N   1      30.664  15.509   5.776  0.00  0.00     0.016 A 
HETATM   14  C   UNK N   1      29.837  16.605   5.482  0.00  0.00     0.018 A 
HETATM   15  C   UNK N   1      29.308  17.446   6.496  0.00  0.00     0.049 A 
ENDROOT
BRANCH  15  16
HETATM   16  N   UNK N   1      29.518  17.188   7.883  0.00  0.00    -0.384 N 
HETATM   17  H   UNK N   1      28.946  16.529   8.340  0.00  0.00     0.160 HD
BRANCH  16  18
HETATM   18  C   UNK N   1      30.544  17.867   8.633  0.00  0.00     0.158 C 
BRANCH  18  19
HETATM   19  C   UNK N   1      31.880  17.250   8.437  0.00  0.00    -0.041 A 
HETATM   20  C   UNK N   1      32.842  17.937   7.693  0.00  0.00     0.009 A 
HETATM   21  C   UNK N   1      34.088  17.355   7.450  0.00  0.00     0.001 A 
HETATM   22  C   UNK N   1      34.369  16.078   7.944  0.00  0.00     0.000 A 
HETATM   23  C   UNK N   1      33.406  15.386   8.684  0.00  0.00     0.001 A 
HETATM   24  C   UNK N   1      32.159  15.970   8.930  0.00  0.00     0.009 A 
ENDBRANCH  18  19
ENDBRANCH  16  18
ENDBRANCH  15  16
TORSDOF 3
ENDMDL
MODEL 6
REMARK VINA RESULT:      -7.0     12.121     13.870
REMARK  3 active torsions:
REMARK  status: ('A' for Active; 'I' for Inactive)
REMARK    1  A    between atoms: C_15  and  N_16 
REMARK    2  A    between atoms: N_16  and  C_17 
REMARK    3  A    between atoms: C_17  and  C_18 
ROOT
HETATM    1  C   UNK N   1      25.998  20.673  -8.187  0.00  0.00     0.006 C 
HETATM    2  C   UNK N   1      25.126  21.896  -8.389  0.00  0.00     0.005 C 
HETATM    3  C   UNK N   1      25.207  22.815  -7.173  0.00  0.00     0.043 C 
HETATM    4  C   UNK N   1      26.609  22.990  -6.629  0.00  0.00    -0.008 A 
HETATM    5  C   UNK N   1      27.675  22.184  -7.087  0.00  0.00     0.018 A 
HETATM    6  C   UNK N   1      27.458  21.105  -8.109  0.00  0.00     0.057 C 
HETATM    7  N   UNK N   1      28.924  22.356  -6.578  0.00  0.00    -0.358 N 
ATOM      8  HN  UNK N   1      29.683  21.766  -6.922  1.00  0.00     0.166 HD
HETATM    9  C   UNK N   1      29.193  23.285  -5.630  0.00  0.00     0.044 A 
HETATM   10  C   UNK N   1      30.500  23.423  -5.149  0.00  0.00     0.030 A 
HETATM   11  C   UNK N   1      30.794  24.377  -4.173  0.00  0.00     0.002 A 
HETATM   12  C   UNK N   1      29.783  25.201  -3.675  0.00  0.00     0.001 A 
HETATM   13  C   UNK N   1      28.475  25.063  -4.144  0.00  0.00     0.016 A 
HETATM   14  C   UNK N   1      28.160  24.105  -5.120  0.00  0.00     0.018 A 
HETATM   15  C   UNK N   1      26.843  23.941  -5.621  0.00  0.00     0.049 A 
ENDROOT
BRANCH  15  16
HETATM   16  N   UNK N   1      25.738  24.686  -5.112  0.00  0.00    -0.384 N 
HETATM   17  H   UNK N   1      25.341  24.425  -4.249  0.00  0.00     0.160 HD
BRANCH  16  18
HETATM   18  C   UNK N   1      25.187  25.810  -5.827  0.00  0.00     0.158 C 
BRANCH  18  19
HETATM   19  C   UNK N   1      25.836  27.089  -5.442  0.00  0.00    -0.041 A 
HETATM   20  C   UNK N   1      26.777  27.659  -6.302  0.00  0.00     0.009 A 
HETATM   21  C   UNK N   1      27.438  28.834  -5.938  0.00  0.00     0.001 A 
HETATM   22  C   UNK N   1      27.165  29.434  -4.706  0.00  0.00     0.000 A 
HETATM   23  C   UNK N   1      26.228  28.862  -3.840  0.00  0.00     0.001 A 
HETATM   24  C   UNK N   1      25.563  27.687  -4.206  0.00  0.00     0.009 A 
ENDBRANCH  18  19
ENDBRANCH  16  18
ENDBRANCH  15  16
TORSDOF 3
ENDMDL
MODEL 7
REMARK VINA RESULT:      -7.0      1.495      5.707
REMARK  3 active torsions:
REMARK  status: ('A' for Active; 'I' for Inactive)
REMARK    1  A    between atoms: C_15  and  N_16 
REMARK    2  A    between atoms: N_16  and  C_17 
REMARK    3  A    between atoms: C_17  and  C_18 
ROOT
HETATM    1  C   UNK N   1      29.638  17.350   9.620  0.00  0.00     0.006 C 
HETATM    2  C   UNK N   1      30.698  16.900   8.635  0.00  0.00     0.005 C 
HETATM    3  C   UNK N   1      30.073  16.610   7.273  0.00  0.00     0.043 C 
HETATM    4  C   UNK N   1      29.048  17.635   6.838  0.00  0.00    -0.008 A 
HETATM    5  C   UNK N   1      28.578  18.622   7.733  0.00  0.00     0.018 A 
HETATM    6  C   UNK N   1      29.052  18.679   9.156  0.00  0.00     0.057 C 
HETATM    7  N   UNK N   1      27.652  19.529   7.320  0.00  0.00    -0.358 N 
ATOM      8  HN  UNK N   1      27.325  20.236   7.979  1.00  0.00     0.166 HD
HETATM    9  C   UNK N   1      27.150  19.523   6.061  0.00  0.00     0.044 A 
HETATM   10  C   UNK N   1      26.206  20.485   5.689  0.00  0.00     0.030 A 
HETATM   11  C   UNK N   1      25.681  20.493   4.395  0.00  0.00     0.002 A 
HETATM   12  C   UNK N   1      26.100  19.540   3.466  0.00  0.00     0.001 A 
HETATM   13  C   UNK N   1      27.037  18.571   3.832  0.00  0.00     0.016 A 
HETATM   14  C   UNK N   1      27.570  18.544   5.131  0.00  0.00     0.018 A 
HETATM   15  C   UNK N   1      28.526  17.576   5.535  0.00  0.00     0.049 A 
ENDROOT
BRANCH  15  16
HETATM   16  N   UNK N   1      28.950  16.521   4.673  0.00  0.00    -0.384 N 
HETATM   17  H   UNK N   1      28.576  15.619   4.800  0.00  0.00     0.160 HD
BRANCH  16  18
HETATM   18  C   UNK N   1      29.911  16.741   3.622  0.00  0.00     0.158 C 
BRANCH  18  19
HETATM   19  C   UNK N   1      31.306  16.556   4.094  0.00  0.00    -0.041 A 
HETATM   20  C   UNK N   1      31.792  15.261   4.289  0.00  0.00     0.009 A 
HETATM   21  C   UNK N   1      33.083  15.064   4.782  0.00  0.00     0.001 A 
HETATM   22  C   UNK N   1      33.888  16.163   5.091  0.00  0.00     0.000 A 
HETATM   23  C   UNK N   1      33.402  17.461   4.902  0.00  0.00     0.001 A 
HETATM   24  C   UNK N   1      32.110  17.660   4.406  0.00  0.00     0.009 A 
ENDBRANCH  18  19
ENDBRANCH  16  18
ENDBRANCH  15  16
TORSDOF 3
ENDMDL
MODEL 8
REMARK VINA RESULT:      -6.9     13.604     15.950
REMARK  3 active torsions:
REMARK  status: ('A' for Active; 'I' for Inactive)
REMARK    1  A    between atoms: C_15  and  N_16 
REMARK    2  A    between atoms: N_16  and  C_17 
REMARK    3  A    between atoms: C_17  and  C_18 
ROOT
HETATM    1  C   UNK N   1      28.855  26.384 -10.102  0.00  0.00     0.006 C 
HETATM    2  C   UNK N   1      27.502  25.753 -10.368  0.00  0.00     0.005 C 
HETATM    3  C   UNK N   1      26.812  25.397  -9.054  0.00  0.00     0.043 C 
HETATM    4  C   UNK N   1      26.932  26.465  -7.989  0.00  0.00    -0.008 A 
HETATM    5  C   UNK N   1      27.799  27.567  -8.155  0.00  0.00     0.018 A 
HETATM    6  C   UNK N   1      28.656  27.712  -9.380  0.00  0.00     0.057 C 
HETATM    7  N   UNK N   1      27.894  28.511  -7.181  0.00  0.00    -0.358 N 
ATOM      8  HN  UNK N   1      28.524  29.302  -7.319  1.00  0.00     0.166 HD
HETATM    9  C   UNK N   1      27.178  28.435  -6.033  0.00  0.00     0.044 A 
HETATM   10  C   UNK N   1      27.310  29.440  -5.069  0.00  0.00     0.030 A 
HETATM   11  C   UNK N   1      26.578  29.376  -3.881  0.00  0.00     0.002 A 
HETATM   12  C   UNK N   1      25.708  28.309  -3.654  0.00  0.00     0.001 A 
HETATM   13  C   UNK N   1      25.577  27.298  -4.608  0.00  0.00     0.016 A 
HETATM   14  C   UNK N   1      26.311  27.342  -5.805  0.00  0.00     0.018 A 
HETATM   15  C   UNK N   1      26.199  26.334  -6.797  0.00  0.00     0.049 A 
ENDROOT
BRANCH  15  16
HETATM   16  N   UNK N   1      25.395  25.171  -6.611  0.00  0.00    -0.384 N 
HETATM   17  H   UNK N   1      24.508  25.128  -7.039  0.00  0.00     0.160 HD
BRANCH  16  18
HETATM   18  C   UNK N   1      25.844  24.057  -5.814  0.00  0.00     0.158 C 
BRANCH  18  19
HETATM   19  C   UNK N   1      26.275  22.909  -6.650  0.00  0.00    -0.041 A 
HETATM   20  C   UNK N   1      27.640  22.654  -6.801  0.00  0.00     0.009 A 
HETATM   21  C   UNK N   1      28.071  21.612  -7.625  0.00  0.00     0.001 A 
HETATM   22  C   UNK N   1      27.136  20.830  -8.308  0.00  0.00     0.000 A 
HETATM   23  C   UNK N   1      25.768  21.087  -8.163  0.00  0.00     0.001 A 
HETATM   24  C   UNK N   1      25.336  22.128  -7.336  0.00  0.00     0.009 A 
ENDBRANCH  18  19
ENDBRANCH  16  18
ENDBRANCH  15  16
TORSDOF 3
ENDMDL
MODEL 9
REMARK VINA RESULT:      -6.9      2.455      5.855
REMARK  3 active torsions:
REMARK  status: ('A' for Active; 'I' for Inactive)
REMARK    1  A    between atoms: C_15  and  N_16 
REMARK    2  A    between atoms: N_16  and  C_17 
REMARK    3  A    between atoms: C_17  and  C_18 
ROOT
HETATM    1  C   UNK N   1      25.963  20.681   5.469  0.00  0.00     0.006 C 
HETATM    2  C   UNK N   1      27.459  20.878   5.328  0.00  0.00     0.005 C 
HETATM    3  C   UNK N   1      28.178  19.531   5.337  0.00  0.00     0.043 C 
HETATM    4  C   UNK N   1      27.494  18.466   4.509  0.00  0.00    -0.008 A 
HETATM    5  C   UNK N   1      26.198  18.670   3.983  0.00  0.00     0.018 A 
HETATM    6  C   UNK N   1      25.438  19.938   4.245  0.00  0.00     0.057 C 
HETATM    7  N   UNK N   1      25.602  17.695   3.247  0.00  0.00    -0.358 N 
ATOM      8  HN  UNK N   1      24.667  17.860   2.873  1.00  0.00     0.166 HD
HETATM    9  C   UNK N   1      26.209  16.510   2.995  0.00  0.00     0.044 A 
HETATM   10  C   UNK N   1      25.550  15.546   2.224  0.00  0.00     0.030 A 
HETATM   11  C   UNK N   1      26.164  14.322   1.954  0.00  0.00     0.002 A 
HETATM   12  C   UNK N   1      27.441  14.055   2.450  0.00  0.00     0.001 A 
HETATM   13  C   UNK N   1      28.101  15.010   3.227  0.00  0.00     0.016 A 
HETATM   14  C   UNK N   1      27.497  16.244   3.514  0.00  0.00     0.018 A 
HETATM   15  C   UNK N   1      28.141  17.237   4.297  0.00  0.00     0.049 A 
ENDROOT
BRANCH  15  16
HETATM   16  N   UNK N   1      29.412  17.017   4.907  0.00  0.00    -0.384 N 
HETATM   17  H   UNK N   1      30.214  17.419   4.501  0.00  0.00     0.160 HD
BRANCH  16  18
HETATM   18  C   UNK N   1      29.552  16.222   6.101  0.00  0.00     0.158 C 
BRANCH  18  19
HETATM   19  C   UNK N   1      29.493  17.049   7.333  0.00  0.00    -0.041 A 
HETATM   20  C   UNK N   1      30.669  17.622   7.824  0.00  0.00     0.009 A 
HETATM   21  C   UNK N   1      30.648  18.360   9.008  0.00  0.00     0.001 A 
HETATM   22  C   UNK N   1      29.450  18.518   9.710  0.00  0.00     0.000 A 
HETATM   23  C   UNK N   1      28.272  17.942   9.224  0.00  0.00     0.001 A 
HETATM   24  C   UNK N   1      28.292  17.205   8.035  0.00  0.00     0.009 A 
ENDBRANCH  18  19
ENDBRANCH  16  18
ENDBRANCH  15  16
TORSDOF 3
ENDMDL
