MODEL 1
REMARK VINA RESULT:      -6.7      0.000      0.000
REMARK  18 active torsions:
REMARK  status: ('A' for Active; 'I' for Inactive)
REMARK    1  A    between atoms: C_2  and  C_3 
REMARK    2  A    between atoms: C_3  and  C_4 
REMARK       I    between atoms: C_4  and  N_5 
REMARK    3  A    between atoms: C_23  and  O_24 
REMARK    4  A    between atoms: C_27  and  C_28 
REMARK    5  A    between atoms: C_28  and  O_29 
REMARK    6  A    between atoms: C_60  and  C_62 
REMARK    7  A    between atoms: C_62  and  C_63 
REMARK       I    between atoms: C_63  and  N_64 
REMARK    8  A    between atoms: C_66  and  C_67 
REMARK    9  A    between atoms: C_67  and  C_68 
REMARK   10  A    between atoms: C_68  and  C_69 
REMARK       I    between atoms: C_69  and  N_70 
REMARK   11  A    between atoms: C_72  and  C_74 
REMARK   12  A    between atoms: C_74  and  C_75 
REMARK       I    between atoms: C_75  and  N_76 
REMARK   13  A    between atoms: C_78  and  C_79 
REMARK   14  A    between atoms: C_79  and  C_80 
REMARK   15  A    between atoms: C_80  and  C_81 
REMARK       I    between atoms: C_81  and  N_82 
REMARK   16  A    between atoms: C_87  and  C_88 
REMARK   17  A    between atoms: C_88  and  C_89 
REMARK   18  A    between atoms: C_89  and  C_90 
REMARK       I    between atoms: C_90  and  N_91 
ROOT
HETATM    1  C   UNK N   1      38.225  10.134   8.695  0.00  0.00     0.111 A 
HETATM    2  C   UNK N   1      38.555  11.570   8.196  0.00  0.00     0.026 C 
HETATM    3  C   UNK N   1      37.709  12.571   9.212  0.00  0.00    -0.020 C 
HETATM    4  C   UNK N   1      38.443  12.663  10.548  0.00  0.00     0.017 C 
HETATM    5  C   UNK N   1      37.313  14.054   9.000  0.00  0.00     0.020 C 
HETATM    6  C   UNK N   1      35.970  14.269   8.301  0.00  0.00     0.103 C 
HETATM    7  C   UNK N   1      36.208  13.635   7.044  0.00  0.00     0.217 C 
HETATM    8  O   UNK N   1      37.176  14.037   6.417  0.00  0.00    -0.274 OA
HETATM    9  N   UNK N   1      35.558  12.513   6.655  0.00  0.00    -0.359 N 
HETATM   10  C   UNK N   1      34.651  11.632   7.349  0.00  0.00     0.154 C 
HETATM   11  C   UNK N   1      33.602  10.993   6.587  0.00  0.00     0.148 C 
HETATM   12  C   UNK N   1      33.009   9.872   7.443  0.00  0.00     0.042 C 
HETATM   13  O   UNK N   1      32.725  12.029   6.570  0.00  0.00    -0.283 OA
HETATM   14  P   UNK N   1      33.029  12.850   5.085  0.00  0.00     0.409 P 
HETATM   15  O   UNK N   1      31.968  12.289   3.844  0.00  0.00    -0.624 OA
HETATM   16  O   UNK N   1      32.023  13.904   5.560  0.00  0.00    -0.624 OA
HETATM   17  O   UNK N   1      34.253  14.153   4.831  0.00  0.00    -0.279 OA
HETATM   18  C   UNK N   1      35.273  14.009   3.807  0.00  0.00     0.198 C 
HETATM   19  C   UNK N   1      36.441  13.192   4.279  0.00  0.00     0.199 C 
HETATM   20  C   UNK N   1      35.814  11.853   4.258  0.00  0.00     0.261 C 
HETATM   21  O   UNK N   1      34.920  11.821   3.093  0.00  0.00    -0.353 OA
HETATM   22  C   UNK N   1      34.861  13.194   2.627  0.00  0.00     0.180 C 
HETATM   23  N   UNK N   1      36.377  10.594   5.055  0.00  0.00    -0.309 N 
HETATM   24  C   UNK N   1      36.643  10.237   6.436  0.00  0.00     0.213 A 
HETATM   25  N   UNK N   1      37.150   8.965   6.913  0.00  0.00    -0.242 N 
HETATM   26  C   UNK N   1      37.156   8.520   5.243  0.00  0.00     0.085 A 
HETATM   27  C   UNK N   1      37.436   7.483   4.023  0.00  0.00     0.041 A 
HETATM   28  C   UNK N   1      37.165   7.704   2.420  0.00  0.00    -0.054 A 
HETATM   29  C   UNK N   1      37.414   6.755   1.230  0.00  0.00     0.049 C 
HETATM   30  C   UNK N   1      36.631   8.902   1.947  0.00  0.00    -0.054 A 
HETATM   31  C   UNK N   1      36.273   9.331   0.482  0.00  0.00     0.049 C 
HETATM   32  C   UNK N   1      36.437   9.755   2.926  0.00  0.00     0.039 A 
HETATM   33  C   UNK N   1      36.666   9.595   4.369  0.00  0.00     0.067 A 
HETATM   34 Co   UNK N   1      37.275   9.459  10.130  0.00  0.00     0.000 Co
HETATM   35  C   UNK N   1      35.722   8.214  10.252  0.00  0.00     0.000 C 
HETATM   36  N   UNK N   1      36.787  10.435   9.083  0.00  0.00    -0.235 NA
HETATM   37  C   UNK N   1      36.423  11.746   9.201  0.00  0.00     0.093 C 
HETATM   38  C   UNK N   1      35.253  12.036   9.879  0.00  0.00     0.050 C 
HETATM   39  C   UNK N   1      33.986  11.208   9.880  0.00  0.00     0.018 C 
HETATM   40  C   UNK N   1      35.579  12.044  11.119  0.00  0.00     0.023 C 
HETATM   41  N   UNK N   1      36.341  11.102  11.471  0.00  0.00    -0.261 N 
HETATM   42  C   UNK N   1      36.609  11.522  12.789  0.00  0.00     0.045 C 
HETATM   43  C   UNK N   1      37.323  11.027  13.544  0.00  0.00     0.055 C 
HETATM   44  C   UNK N   1      37.442   9.795  13.448  0.00  0.00     0.042 C 
HETATM   45  N   UNK N   1      37.673   9.060  12.405  0.00  0.00    -0.256 N 
HETATM   46  C   UNK N   1      38.433   8.113  13.146  0.00  0.00     0.052 C 
HETATM   47  C   UNK N   1      39.359   7.593  12.500  0.00  0.00    -0.012 C 
HETATM   48  C   UNK N   1      40.690   7.804  13.172  0.00  0.00     0.052 C 
HETATM   49  C   UNK N   1      39.264   7.482  11.036  0.00  0.00     0.043 C 
HETATM   50  N   UNK N   1      38.503   8.192  10.182  0.00  0.00    -0.280 N 
HETATM   51  C   UNK N   1      38.989   8.395   8.939  0.00  0.00     0.076 C 
HETATM   52  C   UNK N   1      40.440   8.941   9.132  0.00  0.00     0.043 C 
HETATM   53  C   UNK N   1      39.480   6.809   8.925  0.00  0.00     0.002 C 
HETATM   54  C   UNK N   1      38.249   5.858   8.911  0.00  0.00     0.019 C 
HETATM   55  C   UNK N   1      40.107   6.487  10.389  0.00  0.00     0.049 C 
HETATM   56  C   UNK N   1      38.675   8.501  14.747  0.00  0.00     0.018 C 
HETATM   57  C   UNK N   1      39.771   9.568  15.069  0.00  0.00     0.023 C 
HETATM   58  C   UNK N   1      37.463   9.226  14.837  0.00  0.00     0.053 C 
HETATM   59  C   UNK N   1      35.770  12.534  13.424  0.00  0.00     0.006 C 
HETATM   60  C   UNK N   1      36.522  13.521  14.368  0.00  0.00     0.022 C 
HETATM   61  C   UNK N   1      34.774  11.752  14.289  0.00  0.00     0.022 C 
HETATM   62  C   UNK N   1      35.133  13.061  12.180  0.00  0.00     0.048 C 
HETATM   63  H   UNK N   1      35.738  12.250   5.724  0.00  0.00     0.162 HD
ENDROOT
BRANCH  53  64
HETATM   64  C   UNK N   1      40.370   6.467   7.747  0.00  0.00     0.115 C 
BRANCH  64  65
HETATM   65  C   UNK N   1      40.564   5.030   7.347  0.00  0.00     0.216 C 
HETATM   66  N   UNK N   1      41.412   4.213   7.988  0.00  0.00    -0.370 N 
HETATM   67  H   UNK N   1      41.686   3.357   7.587  0.00  0.00     0.159 HD
HETATM   68  H   UNK N   1      41.764   4.471   8.870  0.00  0.00     0.159 HD
HETATM   69  O   UNK N   1      40.122   4.674   6.277  0.00  0.00    -0.274 OA
ENDBRANCH  64  65
ENDBRANCH  53  64
BRANCH  55  70
HETATM   70  C   UNK N   1      41.614   6.327  10.952  0.00  0.00     0.021 C 
BRANCH  70  71
HETATM   71  C   UNK N   1      42.861   7.156  10.387  0.00  0.00     0.103 C 
BRANCH  71  72
HETATM   72  C   UNK N   1      43.726   7.028   9.164  0.00  0.00     0.215 C 
HETATM   73  N   UNK N   1      44.241   8.116   8.570  0.00  0.00    -0.370 N 
HETATM   74  H   UNK N   1      44.279   9.039   8.230  0.00  0.00     0.159 HD
HETATM   75  H   UNK N   1      45.136   7.787   8.321  0.00  0.00     0.159 HD
HETATM   76  O   UNK N   1      43.822   5.937   8.613  0.00  0.00    -0.274 OA
ENDBRANCH  71  72
ENDBRANCH  70  71
ENDBRANCH  55  70
BRANCH   2  77
HETATM   77  C   UNK N   1      40.033  11.674   7.823  0.00  0.00     0.109 C 
BRANCH  77  78
HETATM   78  C   UNK N   1      40.173  11.467   6.313  0.00  0.00     0.215 C 
HETATM   79  N   UNK N   1      39.699  12.387   5.450  0.00  0.00    -0.370 N 
HETATM   80  H   UNK N   1      39.170  12.200   4.640  0.00  0.00     0.159 HD
HETATM   81  H   UNK N   1      39.899  13.331   5.645  0.00  0.00     0.159 HD
HETATM   82  O   UNK N   1      40.836  10.542   5.877  0.00  0.00    -0.274 OA
ENDBRANCH  77  78
ENDBRANCH   2  77
BRANCH  56  83
HETATM   83  C   UNK N   1      38.584   7.426  15.877  0.00  0.00     0.118 C 
BRANCH  83  84
HETATM   84  C   UNK N   1      37.849   6.120  15.568  0.00  0.00     0.216 C 
HETATM   85  N   UNK N   1      38.501   5.046  15.068  0.00  0.00    -0.370 N 
HETATM   86  H   UNK N   1      38.220   4.138  15.323  0.00  0.00     0.159 HD
HETATM   87  H   UNK N   1      39.256   5.174  14.449  0.00  0.00     0.159 HD
HETATM   88  O   UNK N   1      36.674   6.012  15.866  0.00  0.00    -0.274 OA
ENDBRANCH  83  84
ENDBRANCH  56  83
BRANCH  62  89
HETATM   89  C   UNK N   1      35.707  14.437  11.913  0.00  0.00     0.021 C 
BRANCH  89  90
HETATM   90  C   UNK N   1      34.566  15.280  11.390  0.00  0.00     0.103 C 
BRANCH  90  91
HETATM   91  C   UNK N   1      35.139  16.473  10.696  0.00  0.00     0.215 C 
HETATM   92  N   UNK N   1      34.394  17.188   9.828  0.00  0.00    -0.370 N 
HETATM   93  H   UNK N   1      34.832  17.722   9.126  0.00  0.00     0.159 HD
HETATM   94  H   UNK N   1      33.412  17.176   9.896  0.00  0.00     0.159 HD
HETATM   95  O   UNK N   1      36.293  16.796  10.905  0.00  0.00    -0.274 OA
ENDBRANCH  90  91
ENDBRANCH  89  90
ENDBRANCH  62  89
BRANCH  58  96
HETATM   96  C   UNK N   1      36.992   9.970  16.189  0.00  0.00     0.021 C 
BRANCH  96  97
HETATM   97  C   UNK N   1      35.836   9.453  17.103  0.00  0.00     0.103 C 
BRANCH  97  98
HETATM   98  C   UNK N   1      35.276  10.469  18.094  0.00  0.00     0.215 C 
HETATM   99  N   UNK N   1      34.618  10.063  19.202  0.00  0.00    -0.370 N 
HETATM  100  H   UNK N   1      34.084  10.631  19.803  0.00  0.00     0.159 HD
HETATM  101  H   UNK N   1      34.679   9.107  19.432  0.00  0.00     0.159 HD
HETATM  102  O   UNK N   1      35.307  11.657  17.831  0.00  0.00    -0.274 OA
ENDBRANCH  97  98
ENDBRANCH  96  97
ENDBRANCH  58  96
BRANCH  19 103
HETATM  103  O   UNK N   1      37.608  13.332   3.526  0.00  0.00    -0.388 OA
HETATM  104  H   UNK N   1      38.394  13.888   3.408  0.00  0.00     0.210 HD
ENDBRANCH  19 103
BRANCH  22 105
HETATM  105  C   UNK N   1      33.509  13.779   2.146  0.00  0.00     0.198 C 
BRANCH 105 106
HETATM  106  O   UNK N   1      33.402  15.158   2.310  0.00  0.00    -0.398 OA
HETATM  107  H   UNK N   1      32.753  15.659   1.793  0.00  0.00     0.209 HD
ENDBRANCH 105 106
ENDBRANCH  22 105
TORSDOF 18
ENDMDL
MODEL 2
REMARK VINA RESULT:      -6.6      9.456     14.131
REMARK  18 active torsions:
REMARK  status: ('A' for Active; 'I' for Inactive)
REMARK    1  A    between atoms: C_2  and  C_3 
REMARK    2  A    between atoms: C_3  and  C_4 
REMARK       I    between atoms: C_4  and  N_5 
REMARK    3  A    between atoms: C_23  and  O_24 
REMARK    4  A    between atoms: C_27  and  C_28 
REMARK    5  A    between atoms: C_28  and  O_29 
REMARK    6  A    between atoms: C_60  and  C_62 
REMARK    7  A    between atoms: C_62  and  C_63 
REMARK       I    between atoms: C_63  and  N_64 
REMARK    8  A    between atoms: C_66  and  C_67 
REMARK    9  A    between atoms: C_67  and  C_68 
REMARK   10  A    between atoms: C_68  and  C_69 
REMARK       I    between atoms: C_69  and  N_70 
REMARK   11  A    between atoms: C_72  and  C_74 
REMARK   12  A    between atoms: C_74  and  C_75 
REMARK       I    between atoms: C_75  and  N_76 
REMARK   13  A    between atoms: C_78  and  C_79 
REMARK   14  A    between atoms: C_79  and  C_80 
REMARK   15  A    between atoms: C_80  and  C_81 
REMARK       I    between atoms: C_81  and  N_82 
REMARK   16  A    between atoms: C_87  and  C_88 
REMARK   17  A    between atoms: C_88  and  C_89 
REMARK   18  A    between atoms: C_89  and  C_90 
REMARK       I    between atoms: C_90  and  N_91 
ROOT
HETATM    1  C   UNK N   1      25.834  13.323   2.814  0.00  0.00     0.111 A 
HETATM    2  C   UNK N   1      25.206  14.631   2.255  0.00  0.00     0.026 C 
HETATM    3  C   UNK N   1      25.913  15.845   3.134  0.00  0.00    -0.020 C 
HETATM    4  C   UNK N   1      27.329  16.079   2.612  0.00  0.00     0.017 C 
HETATM    5  C   UNK N   1      25.434  17.306   3.326  0.00  0.00     0.020 C 
HETATM    6  C   UNK N   1      24.493  17.525   4.510  0.00  0.00     0.103 C 
HETATM    7  C   UNK N   1      23.395  16.687   4.149  0.00  0.00     0.217 C 
HETATM    8  O   UNK N   1      22.894  16.903   3.057  0.00  0.00    -0.274 OA
HETATM    9  N   UNK N   1      23.058  15.578   4.850  0.00  0.00    -0.359 N 
HETATM   10  C   UNK N   1      23.701  14.895   5.946  0.00  0.00     0.154 C 
HETATM   11  C   UNK N   1      22.866  14.239   6.927  0.00  0.00     0.148 C 
HETATM   12  C   UNK N   1      23.754  13.318   7.766  0.00  0.00     0.042 C 
HETATM   13  O   UNK N   1      22.556  15.331   7.670  0.00  0.00    -0.283 OA
HETATM   14  P   UNK N   1      21.046  15.885   7.048  0.00  0.00     0.409 P 
HETATM   15  O   UNK N   1      19.731  15.232   7.957  0.00  0.00    -0.624 OA
HETATM   16  O   UNK N   1      21.193  17.082   7.994  0.00  0.00    -0.624 OA
HETATM   17  O   UNK N   1      20.829  17.023   5.664  0.00  0.00    -0.279 OA
HETATM   18  C   UNK N   1      20.024  16.636   4.518  0.00  0.00     0.198 C 
HETATM   19  C   UNK N   1      20.798  15.805   3.536  0.00  0.00     0.199 C 
HETATM   20  C   UNK N   1      20.855  14.537   4.296  0.00  0.00     0.261 C 
HETATM   21  O   UNK N   1      19.569  14.403   4.993  0.00  0.00    -0.353 OA
HETATM   22  C   UNK N   1      18.915  15.687   4.827  0.00  0.00     0.180 C 
HETATM   23  N   UNK N   1      21.903  13.372   4.007  0.00  0.00    -0.309 N 
HETATM   24  C   UNK N   1      23.344  13.211   4.001  0.00  0.00     0.213 A 
HETATM   25  N   UNK N   1      24.072  11.989   3.718  0.00  0.00    -0.242 N 
HETATM   26  C   UNK N   1      22.505  11.293   3.500  0.00  0.00     0.085 A 
HETATM   27  C   UNK N   1      21.506  10.060   3.147  0.00  0.00     0.041 A 
HETATM   28  C   UNK N   1      19.866  10.053   3.138  0.00  0.00    -0.054 A 
HETATM   29  C   UNK N   1      18.878   8.915   2.811  0.00  0.00     0.049 C 
HETATM   30  C   UNK N   1      19.148  11.206   3.455  0.00  0.00    -0.054 A 
HETATM   31  C   UNK N   1      17.598  11.433   3.530  0.00  0.00     0.049 C 
HETATM   32  C   UNK N   1      19.952  12.213   3.706  0.00  0.00     0.039 A 
HETATM   33  C   UNK N   1      21.421  12.259   3.725  0.00  0.00     0.067 A 
HETATM   34 Co   UNK N   1      27.163  12.960   4.046  0.00  0.00     0.000 Co
HETATM   35  C   UNK N   1      27.188  11.887   5.727  0.00  0.00     0.000 C 
HETATM   36  N   UNK N   1      25.924  13.802   4.253  0.00  0.00    -0.235 NA
HETATM   37  C   UNK N   1      25.796  15.142   4.485  0.00  0.00     0.093 C 
HETATM   38  C   UNK N   1      26.217  15.632   5.708  0.00  0.00     0.050 C 
HETATM   39  C   UNK N   1      26.115  14.925   7.043  0.00  0.00     0.018 C 
HETATM   40  C   UNK N   1      27.481  15.803   5.581  0.00  0.00     0.023 C 
HETATM   41  N   UNK N   1      28.085  14.864   4.992  0.00  0.00    -0.261 N 
HETATM   42  C   UNK N   1      29.358  15.458   4.890  0.00  0.00     0.045 C 
HETATM   43  C   UNK N   1      30.285  15.026   4.363  0.00  0.00     0.055 C 
HETATM   44  C   UNK N   1      30.383  13.789   4.366  0.00  0.00     0.042 C 
HETATM   45  N   UNK N   1      29.506  12.885   4.056  0.00  0.00    -0.256 N 
HETATM   46  C   UNK N   1      30.489  12.002   3.531  0.00  0.00     0.052 C 
HETATM   47  C   UNK N   1      30.090  11.310   2.578  0.00  0.00    -0.012 C 
HETATM   48  C   UNK N   1      30.944  11.508   1.354  0.00  0.00     0.052 C 
HETATM   49  C   UNK N   1      28.661  10.984   2.454  0.00  0.00     0.043 C 
HETATM   50  N   UNK N   1      27.599  11.617   2.989  0.00  0.00    -0.280 N 
HETATM   51  C   UNK N   1      26.442  11.583   2.294  0.00  0.00     0.076 C 
HETATM   52  C   UNK N   1      26.804  12.026   0.841  0.00  0.00     0.043 C 
HETATM   53  C   UNK N   1      26.732   9.977   1.985  0.00  0.00     0.002 C 
HETATM   54  C   UNK N   1      26.638   9.145   3.296  0.00  0.00     0.019 C 
HETATM   55  C   UNK N   1      28.311   9.832   1.634  0.00  0.00     0.049 C 
HETATM   56  C   UNK N   1      32.039  12.609   3.502  0.00  0.00     0.018 C 
HETATM   57  C   UNK N   1      32.395  13.616   2.359  0.00  0.00     0.023 C 
HETATM   58  C   UNK N   1      31.820  13.441   4.626  0.00  0.00     0.053 C 
HETATM   59  C   UNK N   1      29.695  16.624   5.702  0.00  0.00     0.006 C 
HETATM   60  C   UNK N   1      30.609  17.677   5.003  0.00  0.00     0.022 C 
HETATM   61  C   UNK N   1      30.476  16.074   6.902  0.00  0.00     0.022 C 
HETATM   62  C   UNK N   1      28.299  17.006   6.074  0.00  0.00     0.048 C 
HETATM   63  H   UNK N   1      22.217  15.160   4.556  0.00  0.00     0.162 HD
ENDROOT
BRANCH  53  64
HETATM   64  C   UNK N   1      25.782   9.383   0.964  0.00  0.00     0.115 C 
BRANCH  64  65
HETATM   65  C   UNK N   1      25.471   7.912   0.998  0.00  0.00     0.216 C 
HETATM   66  N   UNK N   1      26.282   6.992   0.456  0.00  0.00    -0.370 N 
HETATM   67  H   UNK N   1      25.964   6.074   0.295  0.00  0.00     0.159 HD
HETATM   68  H   UNK N   1      27.204   7.236   0.216  0.00  0.00     0.159 HD
HETATM   69  O   UNK N   1      24.350   7.576   1.312  0.00  0.00    -0.274 OA
ENDBRANCH  64  65
ENDBRANCH  53  64
BRANCH  55  70
HETATM   70  C   UNK N   1      29.140   9.633   0.261  0.00  0.00     0.021 C 
BRANCH  70  71
HETATM   71  C   UNK N   1      29.565   8.202  -0.315  0.00  0.00     0.103 C 
BRANCH  71  72
HETATM   72  C   UNK N   1      30.012   7.717  -1.666  0.00  0.00     0.215 C 
HETATM   73  N   UNK N   1      29.866   6.429  -2.017  0.00  0.00    -0.370 N 
HETATM   74  H   UNK N   1      29.856   5.450  -1.914  0.00  0.00     0.159 HD
HETATM   75  H   UNK N   1      29.611   6.521  -2.964  0.00  0.00     0.159 HD
HETATM   76  O   UNK N   1      30.663   8.468  -2.384  0.00  0.00    -0.274 OA
ENDBRANCH  71  72
ENDBRANCH  70  71
ENDBRANCH  55  70
BRANCH   2  77
HETATM   77  C   UNK N   1      25.081  14.549   0.734  0.00  0.00     0.109 C 
BRANCH  77  78
HETATM   78  C   UNK N   1      23.736  13.905   0.386  0.00  0.00     0.215 C 
HETATM   79  N   UNK N   1      22.581  14.476   0.783  0.00  0.00    -0.370 N 
HETATM   80  H   UNK N   1      21.817  14.008   1.191  0.00  0.00     0.159 HD
HETATM   81  H   UNK N   1      22.493  15.447   0.652  0.00  0.00     0.159 HD
HETATM   82  O   UNK N   1      23.687  12.949  -0.370  0.00  0.00    -0.274 OA
ENDBRANCH  77  78
ENDBRANCH   2  77
BRANCH  56  83
HETATM   83  C   UNK N   1      33.274  11.733   3.887  0.00  0.00     0.118 C 
BRANCH  83  84
HETATM   84  C   UNK N   1      33.027  10.461   4.701  0.00  0.00     0.216 C 
HETATM   85  N   UNK N   1      32.992  10.484   6.051  0.00  0.00    -0.370 N 
HETATM   86  H   UNK N   1      32.386   9.881   6.538  0.00  0.00     0.159 HD
HETATM   87  H   UNK N   1      33.574  11.105   6.548  0.00  0.00     0.159 HD
HETATM   88  O   UNK N   1      32.761   9.424   4.120  0.00  0.00    -0.274 OA
ENDBRANCH  83  84
ENDBRANCH  56  83
BRANCH  62  89
HETATM   89  C   UNK N   1      27.948  18.270   5.317  0.00  0.00     0.021 C 
BRANCH  89  90
HETATM   90  C   UNK N   1      27.586  19.303   6.359  0.00  0.00     0.103 C 
BRANCH  90  91
HETATM   91  C   UNK N   1      27.127  20.541   5.659  0.00  0.00     0.215 C 
HETATM   92  N   UNK N   1      26.803  21.648   6.359  0.00  0.00    -0.370 N 
HETATM   93  H   UNK N   1      26.187  22.312   5.974  0.00  0.00     0.159 HD
HETATM   94  H   UNK N   1      27.181  21.791   7.257  0.00  0.00     0.159 HD
HETATM   95  O   UNK N   1      27.033  20.549   4.447  0.00  0.00    -0.274 OA
ENDBRANCH  90  91
ENDBRANCH  89  90
ENDBRANCH  62  89
BRANCH  58  96
HETATM   96  C   UNK N   1      32.955  14.422   5.219  0.00  0.00     0.021 C 
BRANCH  96  97
HETATM   97  C   UNK N   1      33.609  14.238   6.624  0.00  0.00     0.103 C 
BRANCH  97  98
HETATM   98  C   UNK N   1      34.425  15.424   7.131  0.00  0.00     0.215 C 
HETATM   99  N   UNK N   1      34.475  15.714   8.450  0.00  0.00    -0.370 N 
HETATM  100  H   UNK N   1      34.829  16.541   8.851  0.00  0.00     0.159 HD
HETATM  101  H   UNK N   1      34.126  15.033   9.070  0.00  0.00     0.159 HD
HETATM  102  O   UNK N   1      34.935  16.194   6.339  0.00  0.00    -0.274 OA
ENDBRANCH  97  98
ENDBRANCH  96  97
ENDBRANCH  58  96
BRANCH  19 103
HETATM  103  O   UNK N   1      20.244  15.726   2.257  0.00  0.00    -0.388 OA
HETATM  104  H   UNK N   1      20.463  15.763   1.313  0.00  0.00     0.210 HD
ENDBRANCH  19 103
BRANCH  22 105
HETATM  105  C   UNK N   1      18.134  16.305   6.015  0.00  0.00     0.198 C 
BRANCH 105 106
HETATM  106  O   UNK N   1      16.943  15.645   6.310  0.00  0.00    -0.398 OA
HETATM  107  H   UNK N   1      16.097  16.109   6.221  0.00  0.00     0.209 HD
ENDBRANCH 105 106
ENDBRANCH  22 105
TORSDOF 18
ENDMDL
MODEL 3
REMARK VINA RESULT:      -6.4      9.238     15.177
REMARK  18 active torsions:
REMARK  status: ('A' for Active; 'I' for Inactive)
REMARK    1  A    between atoms: C_2  and  C_3 
REMARK    2  A    between atoms: C_3  and  C_4 
REMARK       I    between atoms: C_4  and  N_5 
REMARK    3  A    between atoms: C_23  and  O_24 
REMARK    4  A    between atoms: C_27  and  C_28 
REMARK    5  A    between atoms: C_28  and  O_29 
REMARK    6  A    between atoms: C_60  and  C_62 
REMARK    7  A    between atoms: C_62  and  C_63 
REMARK       I    between atoms: C_63  and  N_64 
REMARK    8  A    between atoms: C_66  and  C_67 
REMARK    9  A    between atoms: C_67  and  C_68 
REMARK   10  A    between atoms: C_68  and  C_69 
REMARK       I    between atoms: C_69  and  N_70 
REMARK   11  A    between atoms: C_72  and  C_74 
REMARK   12  A    between atoms: C_74  and  C_75 
REMARK       I    between atoms: C_75  and  N_76 
REMARK   13  A    between atoms: C_78  and  C_79 
REMARK   14  A    between atoms: C_79  and  C_80 
REMARK   15  A    between atoms: C_80  and  C_81 
REMARK       I    between atoms: C_81  and  N_82 
REMARK   16  A    between atoms: C_87  and  C_88 
REMARK   17  A    between atoms: C_88  and  C_89 
REMARK   18  A    between atoms: C_89  and  C_90 
REMARK       I    between atoms: C_90  and  N_91 
ROOT
HETATM    1  C   UNK N   1      26.141  14.384   4.940  0.00  0.00     0.111 A 
HETATM    2  C   UNK N   1      25.149  13.465   5.708  0.00  0.00     0.026 C 
HETATM    3  C   UNK N   1      25.505  11.933   5.183  0.00  0.00    -0.020 C 
HETATM    4  C   UNK N   1      26.780  11.452   5.874  0.00  0.00     0.017 C 
HETATM    5  C   UNK N   1      24.634  10.654   5.269  0.00  0.00     0.020 C 
HETATM    6  C   UNK N   1      23.704  10.428   4.077  0.00  0.00     0.103 C 
HETATM    7  C   UNK N   1      22.881  11.593   4.143  0.00  0.00     0.217 C 
HETATM    8  O   UNK N   1      22.308  11.783   5.205  0.00  0.00    -0.274 OA
HETATM    9  N   UNK N   1      22.896  12.554   3.190  0.00  0.00    -0.359 N 
HETATM   10  C   UNK N   1      23.738  12.760   2.038  0.00  0.00     0.154 C 
HETATM   11  C   UNK N   1      23.154  13.370   0.864  0.00  0.00     0.148 C 
HETATM   12  C   UNK N   1      24.292  13.791  -0.068  0.00  0.00     0.042 C 
HETATM   13  O   UNK N   1      22.567  12.260   0.350  0.00  0.00    -0.283 OA
HETATM   14  P   UNK N   1      20.944  12.299   0.932  0.00  0.00     0.409 P 
HETATM   15  O   UNK N   1      19.897  13.052  -0.216  0.00  0.00    -0.624 OA
HETATM   16  O   UNK N   1      20.769  10.920   0.286  0.00  0.00    -0.624 OA
HETATM   17  O   UNK N   1      20.371  11.620   2.504  0.00  0.00    -0.279 OA
HETATM   18  C   UNK N   1      19.678  12.468   3.458  0.00  0.00     0.198 C 
HETATM   19  C   UNK N   1      20.628  13.265   4.304  0.00  0.00     0.199 C 
HETATM   20  C   UNK N   1      21.067  14.254   3.297  0.00  0.00     0.261 C 
HETATM   21  O   UNK N   1      19.894  14.565   2.469  0.00  0.00    -0.353 OA
HETATM   22  C   UNK N   1      18.896  13.583   2.848  0.00  0.00     0.180 C 
HETATM   23  N   UNK N   1      22.395  15.125   3.423  0.00  0.00    -0.309 N 
HETATM   24  C   UNK N   1      23.822  14.885   3.528  0.00  0.00     0.213 A 
HETATM   25  N   UNK N   1      24.861  15.895   3.607  0.00  0.00    -0.242 N 
HETATM   26  C   UNK N   1      23.552  17.021   3.522  0.00  0.00     0.085 A 
HETATM   27  C   UNK N   1      22.938  18.526   3.502  0.00  0.00     0.041 A 
HETATM   28  C   UNK N   1      21.368  18.980   3.356  0.00  0.00    -0.054 A 
HETATM   29  C   UNK N   1      20.738  20.387   3.335  0.00  0.00     0.049 C 
HETATM   30  C   UNK N   1      20.359  18.024   3.230  0.00  0.00    -0.054 A 
HETATM   31  C   UNK N   1      18.812  18.216   3.062  0.00  0.00     0.049 C 
HETATM   32  C   UNK N   1      20.849  16.807   3.280  0.00  0.00     0.039 A 
HETATM   33  C   UNK N   1      22.244  16.361   3.410  0.00  0.00     0.067 A 
HETATM   34 Co   UNK N   1      27.553  14.072   3.789  0.00  0.00     0.000 Co
HETATM   35  C   UNK N   1      27.932  14.673   1.926  0.00  0.00     0.000 C 
HETATM   36  N   UNK N   1      26.132  13.575   3.654  0.00  0.00    -0.235 NA
HETATM   37  C   UNK N   1      25.633  12.304   3.707  0.00  0.00     0.093 C 
HETATM   38  C   UNK N   1      25.931  11.446   2.665  0.00  0.00     0.050 C 
HETATM   39  C   UNK N   1      26.073  11.820   1.205  0.00  0.00     0.018 C 
HETATM   40  C   UNK N   1      27.089  10.973   2.944  0.00  0.00     0.023 C 
HETATM   41  N   UNK N   1      27.919  11.823   3.369  0.00  0.00    -0.261 N 
HETATM   42  C   UNK N   1      28.966  10.946   3.717  0.00  0.00     0.045 C 
HETATM   43  C   UNK N   1      29.962  11.222   4.222  0.00  0.00     0.055 C 
HETATM   44  C   UNK N   1      30.409  12.350   3.960  0.00  0.00     0.042 C 
HETATM   45  N   UNK N   1      29.819  13.504   3.983  0.00  0.00    -0.256 N 
HETATM   46  C   UNK N   1      30.998  14.185   4.393  0.00  0.00     0.052 C 
HETATM   47  C   UNK N   1      30.786  15.162   5.132  0.00  0.00    -0.012 C 
HETATM   48  C   UNK N   1      31.512  15.032   6.445  0.00  0.00     0.052 C 
HETATM   49  C   UNK N   1      29.507  15.884   5.048  0.00  0.00     0.043 C 
HETATM   50  N   UNK N   1      28.324  15.456   4.566  0.00  0.00    -0.280 N 
HETATM   51  C   UNK N   1      27.205  15.964   5.125  0.00  0.00     0.076 C 
HETATM   52  C   UNK N   1      27.384  15.794   6.667  0.00  0.00     0.043 C 
HETATM   53  C   UNK N   1      27.933  17.458   5.105  0.00  0.00     0.002 C 
HETATM   54  C   UNK N   1      28.119  17.953   3.642  0.00  0.00     0.019 C 
HETATM   55  C   UNK N   1      29.477  17.246   5.562  0.00  0.00     0.049 C 
HETATM   56  C   UNK N   1      32.308  13.204   4.699  0.00  0.00     0.018 C 
HETATM   57  C   UNK N   1      32.328  12.436   6.061  0.00  0.00     0.023 C 
HETATM   58  C   UNK N   1      31.893  12.224   3.767  0.00  0.00     0.053 C 
HETATM   59  C   UNK N   1      28.978   9.577   3.212  0.00  0.00     0.006 C 
HETATM   60  C   UNK N   1      29.533   8.510   4.205  0.00  0.00     0.022 C 
HETATM   61  C   UNK N   1      29.918   9.597   2.000  0.00  0.00     0.022 C 
HETATM   62  C   UNK N   1      27.543   9.512   2.802  0.00  0.00     0.048 C 
HETATM   63  H   UNK N   1      22.202  13.242   3.306  0.00  0.00     0.162 HD
ENDROOT
BRANCH  53  64
HETATM   64  C   UNK N   1      27.164  18.510   5.879  0.00  0.00     0.115 C 
BRANCH  64  65
HETATM   65  C   UNK N   1      27.145  19.932   5.392  0.00  0.00     0.216 C 
HETATM   66  N   UNK N   1      26.124  20.437   4.684  0.00  0.00    -0.370 N 
HETATM   67  H   UNK N   1      26.223  21.286   4.195  0.00  0.00     0.159 HD
HETATM   68  H   UNK N   1      25.267  19.954   4.654  0.00  0.00     0.159 HD
HETATM   69  O   UNK N   1      28.179  20.562   5.438  0.00  0.00    -0.274 OA
ENDBRANCH  64  65
ENDBRANCH  53  64
BRANCH  55  70
HETATM   70  C   UNK N   1      30.289  17.529   6.931  0.00  0.00     0.021 C 
BRANCH  70  71
HETATM   71  C   UNK N   1      29.649  18.254   8.205  0.00  0.00     0.103 C 
BRANCH  71  72
HETATM   72  C   UNK N   1      28.956  17.759   9.444  0.00  0.00     0.215 C 
HETATM   73  N   UNK N   1      29.655  17.200  10.445  0.00  0.00    -0.370 N 
HETATM   74  H   UNK N   1      30.347  16.652  10.880  0.00  0.00     0.159 HD
HETATM   75  H   UNK N   1      29.180  17.562  11.229  0.00  0.00     0.159 HD
HETATM   76  O   UNK N   1      27.731  17.717   9.466  0.00  0.00    -0.274 OA
ENDBRANCH  71  72
ENDBRANCH  70  71
ENDBRANCH  55  70
BRANCH   2  77
HETATM   77  C   UNK N   1      25.009  13.932   7.157  0.00  0.00     0.109 C 
BRANCH  77  78
HETATM   78  C   UNK N   1      23.541  13.806   7.573  0.00  0.00     0.215 C 
HETATM   79  N   UNK N   1      22.586  14.513   6.937  0.00  0.00    -0.370 N 
HETATM   80  H   UNK N   1      21.857  15.015   7.368  0.00  0.00     0.159 HD
HETATM   81  H   UNK N   1      22.621  14.530   5.954  0.00  0.00     0.159 HD
HETATM   82  O   UNK N   1      23.202  12.963   8.387  0.00  0.00    -0.274 OA
ENDBRANCH  77  78
ENDBRANCH   2  77
BRANCH  56  83
HETATM   83  C   UNK N   1      33.753  13.596   4.251  0.00  0.00     0.118 C 
BRANCH  83  84
HETATM   84  C   UNK N   1      33.963  14.982   3.638  0.00  0.00     0.216 C 
HETATM   85  N   UNK N   1      33.813  15.196   2.313  0.00  0.00    -0.370 N 
HETATM   86  H   UNK N   1      33.457  16.056   1.990  0.00  0.00     0.159 HD
HETATM   87  H   UNK N   1      34.060  14.493   1.669  0.00  0.00     0.159 HD
HETATM   88  O   UNK N   1      34.177  15.931   4.371  0.00  0.00    -0.274 OA
ENDBRANCH  83  84
ENDBRANCH  56  83
BRANCH  62  89
HETATM   89  C   UNK N   1      26.824   8.605   3.779  0.00  0.00     0.021 C 
BRANCH  89  90
HETATM   90  C   UNK N   1      25.969   7.677   2.947  0.00  0.00     0.103 C 
BRANCH  90  91
HETATM   91  C   UNK N   1      25.053   6.930   3.861  0.00  0.00     0.215 C 
HETATM   92  N   UNK N   1      25.190   7.023   5.201  0.00  0.00    -0.370 N 
HETATM   93  H   UNK N   1      24.857   6.302   5.781  0.00  0.00     0.159 HD
HETATM   94  H   UNK N   1      25.623   7.813   5.597  0.00  0.00     0.159 HD
HETATM   95  O   UNK N   1      24.182   6.220   3.395  0.00  0.00    -0.274 OA
ENDBRANCH  90  91
ENDBRANCH  89  90
ENDBRANCH  62  89
BRANCH  58  96
HETATM   96  C   UNK N   1      32.717  10.861   3.510  0.00  0.00     0.021 C 
BRANCH  96  97
HETATM   97  C   UNK N   1      33.470  10.542   2.180  0.00  0.00     0.103 C 
BRANCH  97  98
HETATM   98  C   UNK N   1      33.366  11.608   1.093  0.00  0.00     0.215 C 
HETATM   99  N   UNK N   1      32.379  11.559   0.171  0.00  0.00    -0.370 N 
HETATM  100  H   UNK N   1      32.326  12.094  -0.655  0.00  0.00     0.159 HD
HETATM  101  H   UNK N   1      31.641  10.929   0.340  0.00  0.00     0.159 HD
HETATM  102  O   UNK N   1      34.244  12.441   0.971  0.00  0.00    -0.274 OA
ENDBRANCH  97  98
ENDBRANCH  96  97
ENDBRANCH  58  96
BRANCH  19 103
HETATM  103  O   UNK N   1      20.083  13.788   5.478  0.00  0.00    -0.388 OA
HETATM  104  H   UNK N   1      19.339  14.304   5.825  0.00  0.00     0.210 HD
ENDBRANCH  19 103
BRANCH  22 105
HETATM  105  C   UNK N   1      18.004  12.940   1.754  0.00  0.00     0.198 C 
BRANCH 105 106
HETATM  106  O   UNK N   1      17.526  13.847   0.812  0.00  0.00    -0.398 OA
HETATM  107  H   UNK N   1      17.336  13.552  -0.092  0.00  0.00     0.209 HD
ENDBRANCH 105 106
ENDBRANCH  22 105
TORSDOF 18
ENDMDL
MODEL 4
REMARK VINA RESULT:      -6.4      3.346     10.514
REMARK  18 active torsions:
REMARK  status: ('A' for Active; 'I' for Inactive)
REMARK    1  A    between atoms: C_2  and  C_3 
REMARK    2  A    between atoms: C_3  and  C_4 
REMARK       I    between atoms: C_4  and  N_5 
REMARK    3  A    between atoms: C_23  and  O_24 
REMARK    4  A    between atoms: C_27  and  C_28 
REMARK    5  A    between atoms: C_28  and  O_29 
REMARK    6  A    between atoms: C_60  and  C_62 
REMARK    7  A    between atoms: C_62  and  C_63 
REMARK       I    between atoms: C_63  and  N_64 
REMARK    8  A    between atoms: C_66  and  C_67 
REMARK    9  A    between atoms: C_67  and  C_68 
REMARK   10  A    between atoms: C_68  and  C_69 
REMARK       I    between atoms: C_69  and  N_70 
REMARK   11  A    between atoms: C_72  and  C_74 
REMARK   12  A    between atoms: C_74  and  C_75 
REMARK       I    between atoms: C_75  and  N_76 
REMARK   13  A    between atoms: C_78  and  C_79 
REMARK   14  A    between atoms: C_79  and  C_80 
REMARK   15  A    between atoms: C_80  and  C_81 
REMARK       I    between atoms: C_81  and  N_82 
REMARK   16  A    between atoms: C_87  and  C_88 
REMARK   17  A    between atoms: C_88  and  C_89 
REMARK   18  A    between atoms: C_89  and  C_90 
REMARK       I    between atoms: C_90  and  N_91 
ROOT
HETATM    1  C   UNK N   1      36.708   9.073  12.060  0.00  0.00     0.111 A 
HETATM    2  C   UNK N   1      37.955   8.287  11.564  0.00  0.00     0.026 C 
HETATM    3  C   UNK N   1      37.728   8.129   9.930  0.00  0.00    -0.020 C 
HETATM    4  C   UNK N   1      38.060   9.456   9.249  0.00  0.00     0.017 C 
HETATM    5  C   UNK N   1      38.398   7.131   8.951  0.00  0.00     0.020 C 
HETATM    6  C   UNK N   1      37.666   5.799   8.789  0.00  0.00     0.103 C 
HETATM    7  C   UNK N   1      37.714   5.293  10.123  0.00  0.00     0.217 C 
HETATM    8  O   UNK N   1      38.826   5.204  10.622  0.00  0.00    -0.274 OA
HETATM    9  N   UNK N   1      36.606   5.130  10.885  0.00  0.00    -0.359 N 
HETATM   10  C   UNK N   1      35.229   5.504  10.680  0.00  0.00     0.154 C 
HETATM   11  C   UNK N   1      34.199   4.649  11.226  0.00  0.00     0.148 C 
HETATM   12  C   UNK N   1      32.875   5.414  11.184  0.00  0.00     0.042 C 
HETATM   13  O   UNK N   1      34.188   3.717  10.241  0.00  0.00    -0.283 OA
HETATM   14  P   UNK N   1      35.239   2.466  10.792  0.00  0.00     0.409 P 
HETATM   15  O   UNK N   1      34.350   1.227  11.600  0.00  0.00    -0.624 OA
HETATM   16  O   UNK N   1      35.038   1.810   9.422  0.00  0.00    -0.624 OA
HETATM   17  O   UNK N   1      37.026   2.406  10.544  0.00  0.00    -0.279 OA
HETATM   18  C   UNK N   1      37.920   2.289  11.682  0.00  0.00     0.198 C 
HETATM   19  C   UNK N   1      38.193   3.617  12.328  0.00  0.00     0.199 C 
HETATM   20  C   UNK N   1      36.890   3.824  12.997  0.00  0.00     0.261 C 
HETATM   21  O   UNK N   1      36.441   2.507  13.467  0.00  0.00    -0.353 OA
HETATM   22  C   UNK N   1      37.349   1.558  12.851  0.00  0.00     0.180 C 
HETATM   23  N   UNK N   1      36.363   5.241  13.501  0.00  0.00    -0.309 N 
HETATM   24  C   UNK N   1      36.052   6.533  12.918  0.00  0.00     0.213 A 
HETATM   25  N   UNK N   1      35.542   7.694  13.621  0.00  0.00    -0.242 N 
HETATM   26  C   UNK N   1      35.620   6.682  15.021  0.00  0.00     0.085 A 
HETATM   27  C   UNK N   1      35.440   6.397  16.612  0.00  0.00     0.041 A 
HETATM   28  C   UNK N   1      35.709   5.000  17.429  0.00  0.00    -0.054 A 
HETATM   29  C   UNK N   1      35.555   4.682  18.930  0.00  0.00     0.049 C 
HETATM   30  C   UNK N   1      36.152   3.859  16.761  0.00  0.00    -0.054 A 
HETATM   31  C   UNK N   1      36.457   2.426  17.319  0.00  0.00     0.049 C 
HETATM   32  C   UNK N   1      36.332   4.096  15.483  0.00  0.00     0.039 A 
HETATM   33  C   UNK N   1      36.103   5.329  14.716  0.00  0.00     0.067 A 
HETATM   34 Co   UNK N   1      35.271   9.869  11.214  0.00  0.00     0.000 Co
HETATM   35  C   UNK N   1      33.299   9.631  11.393  0.00  0.00     0.000 C 
HETATM   36  N   UNK N   1      35.730   8.435  11.088  0.00  0.00    -0.235 NA
HETATM   37  C   UNK N   1      36.248   7.764  10.016  0.00  0.00     0.093 C 
HETATM   38  C   UNK N   1      35.404   7.486   8.956  0.00  0.00     0.050 C 
HETATM   39  C   UNK N   1      33.933   7.141   9.045  0.00  0.00     0.018 C 
HETATM   40  C   UNK N   1      35.395   8.555   8.248  0.00  0.00     0.023 C 
HETATM   41  N   UNK N   1      35.309   9.626   8.909  0.00  0.00    -0.261 N 
HETATM   42  C   UNK N   1      35.497  10.544   7.857  0.00  0.00     0.045 C 
HETATM   43  C   UNK N   1      35.568  11.690   7.940  0.00  0.00     0.055 C 
HETATM   44  C   UNK N   1      34.912  12.208   8.857  0.00  0.00     0.042 C 
HETATM   45  N   UNK N   1      34.846  11.895  10.114  0.00  0.00    -0.256 N 
HETATM   46  C   UNK N   1      34.674  13.247  10.520  0.00  0.00     0.052 C 
HETATM   47  C   UNK N   1      35.183  13.512  11.623  0.00  0.00    -0.012 C 
HETATM   48  C   UNK N   1      36.177  14.638  11.518  0.00  0.00     0.052 C 
HETATM   49  C   UNK N   1      35.349  12.453  12.630  0.00  0.00     0.043 C 
HETATM   50  N   UNK N   1      35.397  11.118  12.454  0.00  0.00    -0.280 N 
HETATM   51  C   UNK N   1      36.150  10.405  13.318  0.00  0.00     0.076 C 
HETATM   52  C   UNK N   1      37.543  11.110  13.353  0.00  0.00     0.043 C 
HETATM   53  C   UNK N   1      35.534  11.336  14.548  0.00  0.00     0.002 C 
HETATM   54  C   UNK N   1      34.017  11.052  14.739  0.00  0.00     0.019 C 
HETATM   55  C   UNK N   1      35.500  12.871  14.016  0.00  0.00     0.049 C 
HETATM   56  C   UNK N   1      34.763  14.369   9.293  0.00  0.00     0.018 C 
HETATM   57  C   UNK N   1      36.186  14.752   8.772  0.00  0.00     0.023 C 
HETATM   58  C   UNK N   1      34.282  13.461   8.320  0.00  0.00     0.053 C 
HETATM   59  C   UNK N   1      35.362  10.112   6.470  0.00  0.00     0.006 C 
HETATM   60  C   UNK N   1      36.346  10.788   5.466  0.00  0.00     0.022 C 
HETATM   61  C   UNK N   1      33.943  10.518   6.053  0.00  0.00     0.022 C 
HETATM   62  C   UNK N   1      35.470   8.642   6.716  0.00  0.00     0.048 C 
HETATM   63  H   UNK N   1      36.773   4.671  11.739  0.00  0.00     0.162 HD
ENDROOT
BRANCH  53  64
HETATM   64  C   UNK N   1      36.239  11.122  15.872  0.00  0.00     0.115 C 
BRANCH  64  65
HETATM   65  C   UNK N   1      35.454  11.166  17.154  0.00  0.00     0.216 C 
HETATM   66  N   UNK N   1      35.148  12.315  17.772  0.00  0.00    -0.370 N 
HETATM   67  H   UNK N   1      34.831  12.316  18.704  0.00  0.00     0.159 HD
HETATM   68  H   UNK N   1      35.241  13.168  17.289  0.00  0.00     0.159 HD
HETATM   69  O   UNK N   1      35.301  10.128  17.761  0.00  0.00    -0.274 OA
ENDBRANCH  64  65
ENDBRANCH  53  64
BRANCH  55  70
HETATM   70  C   UNK N   1      36.419  14.172  14.291  0.00  0.00     0.021 C 
BRANCH  70  71
HETATM   71  C   UNK N   1      37.118  14.480  15.697  0.00  0.00     0.103 C 
BRANCH  71  72
HETATM   72  C   UNK N   1      37.122  15.668  16.619  0.00  0.00     0.215 C 
HETATM   73  N   UNK N   1      36.582  15.587  17.845  0.00  0.00    -0.370 N 
HETATM   74  H   UNK N   1      35.942  15.325  18.545  0.00  0.00     0.159 HD
HETATM   75  H   UNK N   1      37.222  16.124  18.367  0.00  0.00     0.159 HD
HETATM   76  O   UNK N   1      37.472  16.759  16.183  0.00  0.00    -0.274 OA
ENDBRANCH  71  72
ENDBRANCH  70  71
ENDBRANCH  55  70
BRANCH   2  77
HETATM   77  C   UNK N   1      39.212   8.787  12.274  0.00  0.00     0.109 C 
BRANCH  77  78
HETATM   78  C   UNK N   1      39.458   7.915  13.509  0.00  0.00     0.215 C 
HETATM   79  N   UNK N   1      39.708   6.598  13.376  0.00  0.00    -0.370 N 
HETATM   80  H   UNK N   1      39.301   5.877  13.910  0.00  0.00     0.159 HD
HETATM   81  H   UNK N   1      40.356   6.331  12.685  0.00  0.00     0.159 HD
HETATM   82  O   UNK N   1      39.569   8.425  14.611  0.00  0.00    -0.274 OA
ENDBRANCH  77  78
ENDBRANCH   2  77
BRANCH  56  83
HETATM   83  C   UNK N   1      33.788  15.588   9.220  0.00  0.00     0.118 C 
BRANCH  83  84
HETATM   84  C   UNK N   1      34.393  16.982   9.042  0.00  0.00     0.216 C 
HETATM   85  N   UNK N   1      34.193  17.698   7.914  0.00  0.00    -0.370 N 
HETATM   86  H   UNK N   1      34.119  18.679   7.960  0.00  0.00     0.159 HD
HETATM   87  H   UNK N   1      34.121  17.239   7.046  0.00  0.00     0.159 HD
HETATM   88  O   UNK N   1      34.987  17.496   9.972  0.00  0.00    -0.274 OA
ENDBRANCH  83  84
ENDBRANCH  56  83
BRANCH  62  89
HETATM   89  C   UNK N   1      36.816   8.184   6.194  0.00  0.00     0.021 C 
BRANCH  89  90
HETATM   90  C   UNK N   1      36.573   6.869   5.491  0.00  0.00     0.103 C 
BRANCH  90  91
HETATM   91  C   UNK N   1      36.160   7.154   4.083  0.00  0.00     0.215 C 
HETATM   92  N   UNK N   1      35.160   6.457   3.504  0.00  0.00    -0.370 N 
HETATM   93  H   UNK N   1      35.118   6.378   2.524  0.00  0.00     0.159 HD
HETATM   94  H   UNK N   1      34.473   6.026   4.061  0.00  0.00     0.159 HD
HETATM   95  O   UNK N   1      36.738   8.015   3.447  0.00  0.00    -0.274 OA
ENDBRANCH  90  91
ENDBRANCH  89  90
ENDBRANCH  62  89
BRANCH  58  96
HETATM   96  C   UNK N   1      34.106  13.860   6.767  0.00  0.00     0.021 C 
BRANCH  96  97
HETATM   97  C   UNK N   1      32.723  13.960   6.050  0.00  0.00     0.103 C 
BRANCH  97  98
HETATM   98  C   UNK N   1      32.167  15.371   5.886  0.00  0.00     0.215 C 
HETATM   99  N   UNK N   1      30.839  15.605   5.979  0.00  0.00    -0.370 N 
HETATM  100  H   UNK N   1      30.375  16.436   5.726  0.00  0.00     0.159 HD
HETATM  101  H   UNK N   1      30.282  14.876   6.335  0.00  0.00     0.159 HD
HETATM  102  O   UNK N   1      32.902  16.279   5.544  0.00  0.00    -0.274 OA
ENDBRANCH  97  98
ENDBRANCH  96  97
ENDBRANCH  58  96
BRANCH  19 103
HETATM  103  O   UNK N   1      39.317   3.657  13.154  0.00  0.00    -0.388 OA
HETATM  104  H   UNK N   1      39.974   4.256  13.542  0.00  0.00     0.210 HD
ENDBRANCH  19 103
BRANCH  22 105
HETATM  105  C   UNK N   1      36.795   0.221  12.297  0.00  0.00     0.198 C 
BRANCH 105 106
HETATM  106  O   UNK N   1      37.608  -0.369  11.333  0.00  0.00    -0.398 OA
HETATM  107  H   UNK N   1      38.412   0.084  11.034  0.00  0.00     0.209 HD
ENDBRANCH 105 106
ENDBRANCH  22 105
TORSDOF 18
ENDMDL
MODEL 5
REMARK VINA RESULT:      -6.3      2.565      7.629
REMARK  18 active torsions:
REMARK  status: ('A' for Active; 'I' for Inactive)
REMARK    1  A    between atoms: C_2  and  C_3 
REMARK    2  A    between atoms: C_3  and  C_4 
REMARK       I    between atoms: C_4  and  N_5 
REMARK    3  A    between atoms: C_23  and  O_24 
REMARK    4  A    between atoms: C_27  and  C_28 
REMARK    5  A    between atoms: C_28  and  O_29 
REMARK    6  A    between atoms: C_60  and  C_62 
REMARK    7  A    between atoms: C_62  and  C_63 
REMARK       I    between atoms: C_63  and  N_64 
REMARK    8  A    between atoms: C_66  and  C_67 
REMARK    9  A    between atoms: C_67  and  C_68 
REMARK   10  A    between atoms: C_68  and  C_69 
REMARK       I    between atoms: C_69  and  N_70 
REMARK   11  A    between atoms: C_72  and  C_74 
REMARK   12  A    between atoms: C_74  and  C_75 
REMARK       I    between atoms: C_75  and  N_76 
REMARK   13  A    between atoms: C_78  and  C_79 
REMARK   14  A    between atoms: C_79  and  C_80 
REMARK   15  A    between atoms: C_80  and  C_81 
REMARK       I    between atoms: C_81  and  N_82 
REMARK   16  A    between atoms: C_87  and  C_88 
REMARK   17  A    between atoms: C_88  and  C_89 
REMARK   18  A    between atoms: C_89  and  C_90 
REMARK       I    between atoms: C_90  and  N_91 
ROOT
HETATM    1  C   UNK N   1      35.733   9.752   9.759  0.00  0.00     0.111 A 
HETATM    2  C   UNK N   1      34.476   9.069   9.149  0.00  0.00     0.026 C 
HETATM    3  C   UNK N   1      35.046   7.661   8.485  0.00  0.00    -0.020 C 
HETATM    4  C   UNK N   1      35.289   6.646   9.599  0.00  0.00     0.017 C 
HETATM    5  C   UNK N   1      34.381   6.758   7.415  0.00  0.00     0.020 C 
HETATM    6  C   UNK N   1      34.716   7.121   5.968  0.00  0.00     0.103 C 
HETATM    7  C   UNK N   1      34.196   8.448   5.888  0.00  0.00     0.217 C 
HETATM    8  O   UNK N   1      33.018   8.579   6.185  0.00  0.00    -0.274 OA
HETATM    9  N   UNK N   1      34.985   9.535   5.718  0.00  0.00    -0.359 N 
HETATM   10  C   UNK N   1      36.418   9.698   5.715  0.00  0.00     0.154 C 
HETATM   11  C   UNK N   1      36.989  10.708   4.853  0.00  0.00     0.148 C 
HETATM   12  C   UNK N   1      38.445  10.922   5.273  0.00  0.00     0.042 C 
HETATM   13  O   UNK N   1      36.976   9.998   3.697  0.00  0.00    -0.283 OA
HETATM   14  P   UNK N   1      35.507  10.444   2.912  0.00  0.00     0.409 P 
HETATM   15  O   UNK N   1      35.773  11.734   1.796  0.00  0.00    -0.624 OA
HETATM   16  O   UNK N   1      35.844   9.378   1.863  0.00  0.00    -0.624 OA
HETATM   17  O   UNK N   1      33.898   9.666   3.165  0.00  0.00    -0.279 OA
HETATM   18  C   UNK N   1      32.755  10.464   3.574  0.00  0.00     0.198 C 
HETATM   19  C   UNK N   1      32.724  10.693   5.057  0.00  0.00     0.199 C 
HETATM   20  C   UNK N   1      33.823  11.677   5.165  0.00  0.00     0.261 C 
HETATM   21  O   UNK N   1      33.744  12.533   3.974  0.00  0.00    -0.353 OA
HETATM   22  C   UNK N   1      32.784  11.880   3.105  0.00  0.00     0.180 C 
HETATM   23  N   UNK N   1      34.593  12.008   6.520  0.00  0.00    -0.309 N 
HETATM   24  C   UNK N   1      35.397  11.292   7.493  0.00  0.00     0.213 A 
HETATM   25  N   UNK N   1      36.028  11.856   8.670  0.00  0.00    -0.242 N 
HETATM   26  C   UNK N   1      35.318  13.342   8.143  0.00  0.00     0.085 A 
HETATM   27  C   UNK N   1      35.009  14.931   8.295  0.00  0.00     0.041 A 
HETATM   28  C   UNK N   1      34.156  15.900   7.282  0.00  0.00    -0.054 A 
HETATM   29  C   UNK N   1      33.835  17.404   7.382  0.00  0.00     0.049 C 
HETATM   30  C   UNK N   1      33.583  15.385   6.119  0.00  0.00    -0.054 A 
HETATM   31  C   UNK N   1      32.751  16.111   5.006  0.00  0.00     0.049 C 
HETATM   32  C   UNK N   1      33.802  14.095   6.012  0.00  0.00     0.039 A 
HETATM   33  C   UNK N   1      34.558  13.195   6.895  0.00  0.00     0.067 A 
HETATM   34 Co   UNK N   1      37.501   9.251   9.953  0.00  0.00     0.000 Co
HETATM   35  C   UNK N   1      39.212  10.086   9.361  0.00  0.00     0.000 C 
HETATM   36  N   UNK N   1      36.695   9.296   8.676  0.00  0.00    -0.235 NA
HETATM   37  C   UNK N   1      36.289   8.284   7.852  0.00  0.00     0.093 C 
HETATM   38  C   UNK N   1      37.252   7.627   7.109  0.00  0.00     0.050 C 
HETATM   39  C   UNK N   1      38.492   8.244   6.498  0.00  0.00     0.018 C 
HETATM   40  C   UNK N   1      37.743   6.747   7.902  0.00  0.00     0.023 C 
HETATM   41  N   UNK N   1      37.966   7.158   9.074  0.00  0.00    -0.261 N 
HETATM   42  C   UNK N   1      38.317   5.931   9.670  0.00  0.00     0.045 C 
HETATM   43  C   UNK N   1      38.560   5.742  10.779  0.00  0.00     0.055 C 
HETATM   44  C   UNK N   1      39.090   6.686  11.386  0.00  0.00     0.042 C 
HETATM   45  N   UNK N   1      38.749   7.937  11.440  0.00  0.00    -0.256 N 
HETATM   46  C   UNK N   1      39.196   8.079  12.782  0.00  0.00     0.052 C 
HETATM   47  C   UNK N   1      38.528   8.884  13.454  0.00  0.00    -0.012 C 
HETATM   48  C   UNK N   1      37.957   8.236  14.688  0.00  0.00     0.052 C 
HETATM   49  C   UNK N   1      37.821   9.989  12.789  0.00  0.00     0.043 C 
HETATM   50  N   UNK N   1      37.436  10.094  11.503  0.00  0.00    -0.280 N 
HETATM   51  C   UNK N   1      36.320  10.809  11.244  0.00  0.00     0.076 C 
HETATM   52  C   UNK N   1      35.226  10.254  12.211  0.00  0.00     0.043 C 
HETATM   53  C   UNK N   1      36.853  11.942  12.336  0.00  0.00     0.002 C 
HETATM   54  C   UNK N   1      38.127  12.656  11.801  0.00  0.00     0.019 C 
HETATM   55  C   UNK N   1      37.457  11.135  13.610  0.00  0.00     0.049 C 
HETATM   56  C   UNK N   1      39.740   6.678  13.497  0.00  0.00     0.018 C 
HETATM   57  C   UNK N   1      38.663   5.667  14.009  0.00  0.00     0.023 C 
HETATM   58  C   UNK N   1      40.165   6.121  12.268  0.00  0.00     0.053 C 
HETATM   59  C   UNK N   1      38.662   4.781   8.840  0.00  0.00     0.006 C 
HETATM   60  C   UNK N   1      38.195   3.400   9.392  0.00  0.00     0.022 C 
HETATM   61  C   UNK N   1      40.195   4.754   8.796  0.00  0.00     0.022 C 
HETATM   62  C   UNK N   1      38.078   5.287   7.561  0.00  0.00     0.048 C 
HETATM   63  H   UNK N   1      34.487  10.370   5.570  0.00  0.00     0.162 HD
ENDROOT
BRANCH  53  64
HETATM   64  C   UNK N   1      35.811  12.992  12.666  0.00  0.00     0.115 C 
BRANCH  64  65
HETATM   65  C   UNK N   1      36.242  14.385  13.032  0.00  0.00     0.216 C 
HETATM   66  N   UNK N   1      36.761  14.686  14.231  0.00  0.00    -0.370 N 
HETATM   67  H   UNK N   1      36.832  15.622  14.528  0.00  0.00     0.159 HD
HETATM   68  H   UNK N   1      37.076  13.964  14.821  0.00  0.00     0.159 HD
HETATM   69  O   UNK N   1      35.891  15.295  12.313  0.00  0.00    -0.274 OA
ENDBRANCH  64  65
ENDBRANCH  53  64
BRANCH  55  70
HETATM   70  C   UNK N   1      36.913  10.825  15.100  0.00  0.00     0.021 C 
BRANCH  70  71
HETATM   71  C   UNK N   1      35.469  11.271  15.625  0.00  0.00     0.103 C 
BRANCH  71  72
HETATM   72  C   UNK N   1      34.953  12.489  16.339  0.00  0.00     0.215 C 
HETATM   73  N   UNK N   1      35.162  12.654  17.655  0.00  0.00    -0.370 N 
HETATM   74  H   UNK N   1      35.248  12.406  18.604  0.00  0.00     0.159 HD
HETATM   75  H   UNK N   1      35.336  13.623  17.697  0.00  0.00     0.159 HD
HETATM   76  O   UNK N   1      34.198  13.252  15.747  0.00  0.00    -0.274 OA
ENDBRANCH  71  72
ENDBRANCH  70  71
ENDBRANCH  55  70
BRANCH   2  77
HETATM   77  C   UNK N   1      33.281   9.226  10.088  0.00  0.00     0.109 C 
BRANCH  77  78
HETATM   78  C   UNK N   1      32.244  10.131   9.417  0.00  0.00     0.215 C 
HETATM   79  N   UNK N   1      32.408  11.469   9.409  0.00  0.00    -0.370 N 
HETATM   80  H   UNK N   1      31.714  12.136   9.613  0.00  0.00     0.159 HD
HETATM   81  H   UNK N   1      33.302  11.810   9.178  0.00  0.00     0.159 HD
HETATM   82  O   UNK N   1      31.336   9.648   8.762  0.00  0.00    -0.274 OA
ENDBRANCH  77  78
ENDBRANCH   2  77
BRANCH  56  83
HETATM   83  C   UNK N   1      41.011   6.657  14.406  0.00  0.00     0.118 C 
BRANCH  83  84
HETATM   84  C   UNK N   1      41.835   7.942  14.519  0.00  0.00     0.216 C 
HETATM   85  N   UNK N   1      41.764   8.730  15.614  0.00  0.00    -0.370 N 
HETATM   86  H   UNK N   1      42.563   9.214  15.924  0.00  0.00     0.159 HD
HETATM   87  H   UNK N   1      40.913   8.821  16.100  0.00  0.00     0.159 HD
HETATM   88  O   UNK N   1      42.641   8.211  13.646  0.00  0.00    -0.274 OA
ENDBRANCH  83  84
ENDBRANCH  56  83
BRANCH  62  89
HETATM   89  C   UNK N   1      36.831   4.479   7.270  0.00  0.00     0.021 C 
BRANCH  89  90
HETATM   90  C   UNK N   1      36.995   3.935   5.870  0.00  0.00     0.103 C 
BRANCH  90  91
HETATM   91  C   UNK N   1      35.638   3.655   5.309  0.00  0.00     0.215 C 
HETATM   92  N   UNK N   1      34.658   3.158   6.093  0.00  0.00    -0.370 N 
HETATM   93  H   UNK N   1      33.915   2.652   5.692  0.00  0.00     0.159 HD
HETATM   94  H   UNK N   1      34.686   3.300   7.066  0.00  0.00     0.159 HD
HETATM   95  O   UNK N   1      35.416   3.865   4.132  0.00  0.00    -0.274 OA
ENDBRANCH  90  91
ENDBRANCH  89  90
ENDBRANCH  62  89
BRANCH  58  96
HETATM   96  C   UNK N   1      40.827   4.654  12.157  0.00  0.00     0.021 C 
BRANCH  96  97
HETATM   97  C   UNK N   1      42.254   4.389  11.582  0.00  0.00     0.103 C 
BRANCH  97  98
HETATM   98  C   UNK N   1      43.365   5.271  12.144  0.00  0.00     0.215 C 
HETATM   99  N   UNK N   1      43.770   6.378  11.482  0.00  0.00    -0.370 N 
HETATM  100  H   UNK N   1      44.577   6.908  11.673  0.00  0.00     0.159 HD
HETATM  101  H   UNK N   1      43.203   6.684  10.737  0.00  0.00     0.159 HD
HETATM  102  O   UNK N   1      43.983   4.917  13.130  0.00  0.00    -0.274 OA
ENDBRANCH  97  98
ENDBRANCH  96  97
ENDBRANCH  58  96
BRANCH  19 103
HETATM  103  O   UNK N   1      31.491  11.096   5.571  0.00  0.00    -0.388 OA
HETATM  104  H   UNK N   1      30.680  10.768   5.989  0.00  0.00     0.210 HD
ENDBRANCH  19 103
BRANCH  22 105
HETATM  105  C   UNK N   1      33.049  11.825   1.578  0.00  0.00     0.198 C 
BRANCH 105 106
HETATM  106  O   UNK N   1      33.397  13.054   1.023  0.00  0.00    -0.398 OA
HETATM  107  H   UNK N   1      32.705  13.672   0.739  0.00  0.00     0.209 HD
ENDBRANCH 105 106
ENDBRANCH  22 105
TORSDOF 18
ENDMDL
MODEL 6
REMARK VINA RESULT:      -6.2      4.675     10.162
REMARK  18 active torsions:
REMARK  status: ('A' for Active; 'I' for Inactive)
REMARK    1  A    between atoms: C_2  and  C_3 
REMARK    2  A    between atoms: C_3  and  C_4 
REMARK       I    between atoms: C_4  and  N_5 
REMARK    3  A    between atoms: C_23  and  O_24 
REMARK    4  A    between atoms: C_27  and  C_28 
REMARK    5  A    between atoms: C_28  and  O_29 
REMARK    6  A    between atoms: C_60  and  C_62 
REMARK    7  A    between atoms: C_62  and  C_63 
REMARK       I    between atoms: C_63  and  N_64 
REMARK    8  A    between atoms: C_66  and  C_67 
REMARK    9  A    between atoms: C_67  and  C_68 
REMARK   10  A    between atoms: C_68  and  C_69 
REMARK       I    between atoms: C_69  and  N_70 
REMARK   11  A    between atoms: C_72  and  C_74 
REMARK   12  A    between atoms: C_74  and  C_75 
REMARK       I    between atoms: C_75  and  N_76 
REMARK   13  A    between atoms: C_78  and  C_79 
REMARK   14  A    between atoms: C_79  and  C_80 
REMARK   15  A    between atoms: C_80  and  C_81 
REMARK       I    between atoms: C_81  and  N_82 
REMARK   16  A    between atoms: C_87  and  C_88 
REMARK   17  A    between atoms: C_88  and  C_89 
REMARK   18  A    between atoms: C_89  and  C_90 
REMARK       I    between atoms: C_90  and  N_91 
ROOT
HETATM    1  C   UNK N   1      34.006  11.215   4.390  0.00  0.00     0.111 A 
HETATM    2  C   UNK N   1      34.303  10.394   5.677  0.00  0.00     0.026 C 
HETATM    3  C   UNK N   1      34.452  11.531   6.874  0.00  0.00    -0.020 C 
HETATM    4  C   UNK N   1      33.061  12.016   7.277  0.00  0.00     0.017 C 
HETATM    5  C   UNK N   1      35.121  11.390   8.265  0.00  0.00     0.020 C 
HETATM    6  C   UNK N   1      36.612  11.722   8.299  0.00  0.00     0.103 C 
HETATM    7  C   UNK N   1      37.134  10.746   7.398  0.00  0.00     0.217 C 
HETATM    8  O   UNK N   1      36.867   9.583   7.657  0.00  0.00    -0.274 OA
HETATM    9  N   UNK N   1      37.695  11.072   6.209  0.00  0.00    -0.359 N 
HETATM   10  C   UNK N   1      37.797  12.324   5.500  0.00  0.00     0.154 C 
HETATM   11  C   UNK N   1      38.973  12.558   4.692  0.00  0.00     0.148 C 
HETATM   12  C   UNK N   1      38.696  13.763   3.790  0.00  0.00     0.042 C 
HETATM   13  O   UNK N   1      39.808  12.950   5.687  0.00  0.00    -0.283 OA
HETATM   14  P   UNK N   1      40.656  11.522   6.150  0.00  0.00     0.409 P 
HETATM   15  O   UNK N   1      42.158  11.399   5.309  0.00  0.00    -0.624 OA
HETATM   16  O   UNK N   1      41.278  12.358   7.274  0.00  0.00    -0.624 OA
HETATM   17  O   UNK N   1      40.101  10.316   7.374  0.00  0.00    -0.279 OA
HETATM   18  C   UNK N   1      39.962   8.916   7.012  0.00  0.00     0.198 C 
HETATM   19  C   UNK N   1      38.651   8.632   6.338  0.00  0.00     0.199 C 
HETATM   20  C   UNK N   1      38.926   9.249   5.022  0.00  0.00     0.261 C 
HETATM   21  O   UNK N   1      40.337   8.984   4.715  0.00  0.00    -0.353 OA
HETATM   22  C   UNK N   1      40.896   8.453   5.944  0.00  0.00     0.180 C 
HETATM   23  N   UNK N   1      37.793   9.675   3.984  0.00  0.00    -0.309 N 
HETATM   24  C   UNK N   1      36.656  10.575   3.956  0.00  0.00     0.213 A 
HETATM   25  N   UNK N   1      35.768  10.803   2.832  0.00  0.00    -0.242 N 
HETATM   26  C   UNK N   1      36.758   9.643   2.018  0.00  0.00     0.085 A 
HETATM   27  C   UNK N   1      37.160   8.734   0.732  0.00  0.00     0.041 A 
HETATM   28  C   UNK N   1      38.422   7.696   0.578  0.00  0.00    -0.054 A 
HETATM   29  C   UNK N   1      38.842   6.813  -0.615  0.00  0.00     0.049 C 
HETATM   30  C   UNK N   1      39.315   7.500   1.630  0.00  0.00    -0.054 A 
HETATM   31  C   UNK N   1      40.587   6.586   1.709  0.00  0.00     0.049 C 
HETATM   32  C   UNK N   1      38.973   8.207   2.682  0.00  0.00     0.039 A 
HETATM   33  C   UNK N   1      37.854   9.145   2.859  0.00  0.00     0.067 A 
HETATM   34 Co   UNK N   1      33.702  13.006   4.049  0.00  0.00     0.000 Co
HETATM   35  C   UNK N   1      34.598  14.322   2.848  0.00  0.00     0.000 C 
HETATM   36  N   UNK N   1      34.891  12.395   4.755  0.00  0.00    -0.235 NA
HETATM   37  C   UNK N   1      35.298  12.504   6.055  0.00  0.00     0.093 C 
HETATM   38  C   UNK N   1      35.794  13.724   6.478  0.00  0.00     0.050 C 
HETATM   39  C   UNK N   1      36.618  14.693   5.658  0.00  0.00     0.018 C 
HETATM   40  C   UNK N   1      34.759  14.420   6.773  0.00  0.00     0.023 C 
HETATM   41  N   UNK N   1      33.811  14.334   5.945  0.00  0.00    -0.261 N 
HETATM   42  C   UNK N   1      32.835  15.059   6.658  0.00  0.00     0.045 C 
HETATM   43  C   UNK N   1      31.738  15.228   6.357  0.00  0.00     0.055 C 
HETATM   44  C   UNK N   1      31.513  15.282   5.137  0.00  0.00     0.042 C 
HETATM   45  N   UNK N   1      31.888  14.484   4.186  0.00  0.00    -0.256 N 
HETATM   46  C   UNK N   1      30.693  14.687   3.442  0.00  0.00     0.052 C 
HETATM   47  C   UNK N   1      30.324  13.690   2.797  0.00  0.00    -0.012 C 
HETATM   48  C   UNK N   1      28.926  13.275   3.172  0.00  0.00     0.052 C 
HETATM   49  C   UNK N   1      31.311  12.694   2.354  0.00  0.00     0.043 C 
HETATM   50  N   UNK N   1      32.542  12.447   2.842  0.00  0.00    -0.280 N 
HETATM   51  C   UNK N   1      33.000  11.180   2.761  0.00  0.00     0.076 C 
HETATM   52  C   UNK N   1      31.869  10.279   3.353  0.00  0.00     0.043 C 
HETATM   53  C   UNK N   1      32.387  11.109   1.219  0.00  0.00     0.002 C 
HETATM   54  C   UNK N   1      33.174  12.065   0.276  0.00  0.00     0.019 C 
HETATM   55  C   UNK N   1      30.930  11.828   1.247  0.00  0.00     0.049 C 
HETATM   56  C   UNK N   1      29.551  15.642   4.188  0.00  0.00     0.018 C 
HETATM   57  C   UNK N   1      28.688  14.983   5.313  0.00  0.00     0.023 C 
HETATM   58  C   UNK N   1      30.522  16.384   4.900  0.00  0.00     0.053 C 
HETATM   59  C   UNK N   1      33.223  15.910   7.779  0.00  0.00     0.006 C 
HETATM   60  C   UNK N   1      32.210  15.948   8.964  0.00  0.00     0.022 C 
HETATM   61  C   UNK N   1      33.299  17.330   7.205  0.00  0.00     0.022 C 
HETATM   62  C   UNK N   1      34.581  15.326   8.001  0.00  0.00     0.048 C 
HETATM   63  H   UNK N   1      38.110  10.312   5.742  0.00  0.00     0.162 HD
ENDROOT
BRANCH  53  64
HETATM   64  C   UNK N   1      32.413   9.715   0.627  0.00  0.00     0.115 C 
BRANCH  64  65
HETATM   65  C   UNK N   1      32.892   9.508  -0.784  0.00  0.00     0.216 C 
HETATM   66  N   UNK N   1      32.076   9.609  -1.843  0.00  0.00    -0.370 N 
HETATM   67  H   UNK N   1      32.349   9.262  -2.723  0.00  0.00     0.159 HD
HETATM   68  H   UNK N   1      31.194  10.034  -1.740  0.00  0.00     0.159 HD
HETATM   69  O   UNK N   1      33.984   9.009  -0.945  0.00  0.00    -0.274 OA
ENDBRANCH  64  65
ENDBRANCH  53  64
BRANCH  55  70
HETATM   70  C   UNK N   1      29.410  11.279   1.237  0.00  0.00     0.021 C 
BRANCH  70  71
HETATM   71  C   UNK N   1      28.779  10.446   0.026  0.00  0.00     0.103 C 
BRANCH  71  72
HETATM   72  C   UNK N   1      28.905   9.018  -0.431  0.00  0.00     0.215 C 
HETATM   73  N   UNK N   1      28.936   8.013   0.458  0.00  0.00    -0.370 N 
HETATM   74  H   UNK N   1      29.161   7.535   1.288  0.00  0.00     0.159 HD
HETATM   75  H   UNK N   1      28.402   7.331  -0.013  0.00  0.00     0.159 HD
HETATM   76  O   UNK N   1      29.146   8.789  -1.611  0.00  0.00    -0.274 OA
ENDBRANCH  71  72
ENDBRANCH  70  71
ENDBRANCH  55  70
BRANCH   2  77
HETATM   77  C   UNK N   1      33.443   9.132   5.709  0.00  0.00     0.109 C 
BRANCH  77  78
HETATM   78  C   UNK N   1      34.253   7.971   5.124  0.00  0.00     0.215 C 
HETATM   79  N   UNK N   1      35.349   7.514   5.760  0.00  0.00    -0.370 N 
HETATM   80  H   UNK N   1      36.215   7.307   5.339  0.00  0.00     0.159 HD
HETATM   81  H   UNK N   1      35.279   7.373   6.731  0.00  0.00     0.159 HD
HETATM   82  O   UNK N   1      33.838   7.358   4.155  0.00  0.00    -0.274 OA
ENDBRANCH  77  78
ENDBRANCH   2  77
BRANCH  56  83
HETATM   83  C   UNK N   1      28.729  16.711   3.398  0.00  0.00     0.118 C 
BRANCH  83  84
HETATM   84  C   UNK N   1      27.204  16.681   3.524  0.00  0.00     0.216 C 
HETATM   85  N   UNK N   1      26.549  17.523   4.354  0.00  0.00    -0.370 N 
HETATM   86  H   UNK N   1      25.660  17.865   4.106  0.00  0.00     0.159 HD
HETATM   87  H   UNK N   1      26.962  17.792   5.206  0.00  0.00     0.159 HD
HETATM   88  O   UNK N   1      26.561  15.951   2.792  0.00  0.00    -0.274 OA
ENDBRANCH  83  84
ENDBRANCH  56  83
BRANCH  62  89
HETATM   89  C   UNK N   1      34.535  14.525   9.286  0.00  0.00     0.021 C 
BRANCH  89  90
HETATM   90  C   UNK N   1      35.821  14.827  10.020  0.00  0.00     0.103 C 
BRANCH  90  91
HETATM   91  C   UNK N   1      35.511  15.741  11.160  0.00  0.00     0.215 C 
HETATM   92  N   UNK N   1      35.024  16.980  10.937  0.00  0.00    -0.370 N 
HETATM   93  H   UNK N   1      35.151  17.688  11.609  0.00  0.00     0.159 HD
HETATM   94  H   UNK N   1      34.542  17.176  10.102  0.00  0.00     0.159 HD
HETATM   95  O   UNK N   1      35.712  15.372  12.302  0.00  0.00    -0.274 OA
ENDBRANCH  90  91
ENDBRANCH  89  90
ENDBRANCH  62  89
BRANCH  58  96
HETATM   96  C   UNK N   1      30.134  17.566   5.928  0.00  0.00     0.021 C 
BRANCH  96  97
HETATM   97  C   UNK N   1      29.232  17.358   7.186  0.00  0.00     0.103 C 
BRANCH  97  98
HETATM   98  C   UNK N   1      28.271  18.499   7.503  0.00  0.00     0.215 C 
HETATM   99  N   UNK N   1      27.813  18.687   8.761  0.00  0.00    -0.370 N 
HETATM  100  H   UNK N   1      27.073  19.280   9.028  0.00  0.00     0.159 HD
HETATM  101  H   UNK N   1      28.262  18.185   9.479  0.00  0.00     0.159 HD
HETATM  102  O   UNK N   1      27.809  19.174   6.602  0.00  0.00    -0.274 OA
ENDBRANCH  97  98
ENDBRANCH  96  97
ENDBRANCH  58  96
BRANCH  19 103
HETATM  103  O   UNK N   1      38.274   7.288   6.314  0.00  0.00    -0.388 OA
HETATM  104  H   UNK N   1      37.569   6.676   6.576  0.00  0.00     0.210 HD
ENDBRANCH  19 103
BRANCH  22 105
HETATM  105  C   UNK N   1      42.315   8.891   6.389  0.00  0.00     0.198 C 
BRANCH 105 106
HETATM  106  O   UNK N   1      43.289   8.726   5.407  0.00  0.00    -0.398 OA
HETATM  107  H   UNK N   1      44.220   8.901   5.614  0.00  0.00     0.209 HD
ENDBRANCH 105 106
ENDBRANCH  22 105
TORSDOF 18
ENDMDL
MODEL 7
REMARK VINA RESULT:      -6.2      4.612     10.159
REMARK  18 active torsions:
REMARK  status: ('A' for Active; 'I' for Inactive)
REMARK    1  A    between atoms: C_2  and  C_3 
REMARK    2  A    between atoms: C_3  and  C_4 
REMARK       I    between atoms: C_4  and  N_5 
REMARK    3  A    between atoms: C_23  and  O_24 
REMARK    4  A    between atoms: C_27  and  C_28 
REMARK    5  A    between atoms: C_28  and  O_29 
REMARK    6  A    between atoms: C_60  and  C_62 
REMARK    7  A    between atoms: C_62  and  C_63 
REMARK       I    between atoms: C_63  and  N_64 
REMARK    8  A    between atoms: C_66  and  C_67 
REMARK    9  A    between atoms: C_67  and  C_68 
REMARK   10  A    between atoms: C_68  and  C_69 
REMARK       I    between atoms: C_69  and  N_70 
REMARK   11  A    between atoms: C_72  and  C_74 
REMARK   12  A    between atoms: C_74  and  C_75 
REMARK       I    between atoms: C_75  and  N_76 
REMARK   13  A    between atoms: C_78  and  C_79 
REMARK   14  A    between atoms: C_79  and  C_80 
REMARK   15  A    between atoms: C_80  and  C_81 
REMARK       I    between atoms: C_81  and  N_82 
REMARK   16  A    between atoms: C_87  and  C_88 
REMARK   17  A    between atoms: C_88  and  C_89 
REMARK   18  A    between atoms: C_89  and  C_90 
REMARK       I    between atoms: C_90  and  N_91 
ROOT
HETATM    1  C   UNK N   1      33.427  11.012   6.000  0.00  0.00     0.111 A 
HETATM    2  C   UNK N   1      33.910  11.451   7.412  0.00  0.00     0.026 C 
HETATM    3  C   UNK N   1      33.777  13.103   7.405  0.00  0.00    -0.020 C 
HETATM    4  C   UNK N   1      32.309  13.486   7.582  0.00  0.00     0.017 C 
HETATM    5  C   UNK N   1      34.456  14.132   8.344  0.00  0.00     0.020 C 
HETATM    6  C   UNK N   1      35.823  14.629   7.874  0.00  0.00     0.103 C 
HETATM    7  C   UNK N   1      36.567  13.411   7.853  0.00  0.00     0.217 C 
HETATM    8  O   UNK N   1      36.589  12.779   8.898  0.00  0.00    -0.274 OA
HETATM    9  N   UNK N   1      37.036  12.858   6.709  0.00  0.00    -0.359 N 
HETATM   10  C   UNK N   1      36.835  13.193   5.321  0.00  0.00     0.154 C 
HETATM   11  C   UNK N   1      37.921  12.959   4.396  0.00  0.00     0.148 C 
HETATM   12  C   UNK N   1      37.364  13.060   2.975  0.00  0.00     0.042 C 
HETATM   13  O   UNK N   1      38.635  14.083   4.658  0.00  0.00    -0.283 OA
HETATM   14  P   UNK N   1      39.801  13.611   5.837  0.00  0.00     0.409 P 
HETATM   15  O   UNK N   1      41.291  13.170   5.085  0.00  0.00    -0.624 OA
HETATM   16  O   UNK N   1      40.200  15.090   5.910  0.00  0.00    -0.624 OA
HETATM   17  O   UNK N   1      39.550  13.605   7.625  0.00  0.00    -0.279 OA
HETATM   18  C   UNK N   1      39.755  12.386   8.388  0.00  0.00     0.198 C 
HETATM   19  C   UNK N   1      38.553  11.486   8.353  0.00  0.00     0.199 C 
HETATM   20  C   UNK N   1      38.674  10.988   6.966  0.00  0.00     0.261 C 
HETATM   21  O   UNK N   1      40.108  10.825   6.697  0.00  0.00    -0.353 OA
HETATM   22  C   UNK N   1      40.776  11.458   7.818  0.00  0.00     0.180 C 
HETATM   23  N   UNK N   1      37.475  10.327   6.150  0.00  0.00    -0.309 N 
HETATM   24  C   UNK N   1      36.154  10.715   5.693  0.00  0.00     0.213 A 
HETATM   25  N   UNK N   1      35.240   9.901   4.914  0.00  0.00    -0.242 N 
HETATM   26  C   UNK N   1      36.483   8.703   5.001  0.00  0.00     0.085 A 
HETATM   27  C   UNK N   1      37.096   7.230   4.690  0.00  0.00     0.041 A 
HETATM   28  C   UNK N   1      38.571   6.638   5.098  0.00  0.00    -0.054 A 
HETATM   29  C   UNK N   1      39.196   5.254   4.828  0.00  0.00     0.049 C 
HETATM   30  C   UNK N   1      39.483   7.423   5.803  0.00  0.00    -0.054 A 
HETATM   31  C   UNK N   1      40.938   7.085   6.281  0.00  0.00     0.049 C 
HETATM   32  C   UNK N   1      38.977   8.601   6.086  0.00  0.00     0.039 A 
HETATM   33  C   UNK N   1      37.665   9.166   5.741  0.00  0.00     0.067 A 
HETATM   34 Co   UNK N   1      32.700  11.906   4.555  0.00  0.00     0.000 Co
HETATM   35  C   UNK N   1      33.254  12.060   2.646  0.00  0.00     0.000 C 
HETATM   36  N   UNK N   1      33.999  12.212   5.264  0.00  0.00    -0.235 NA
HETATM   37  C   UNK N   1      34.364  13.298   6.009  0.00  0.00     0.093 C 
HETATM   38  C   UNK N   1      34.550  14.501   5.353  0.00  0.00     0.050 C 
HETATM   39  C   UNK N   1      35.117  14.689   3.962  0.00  0.00     0.018 C 
HETATM   40  C   UNK N   1      33.377  15.005   5.244  0.00  0.00     0.023 C 
HETATM   41  N   UNK N   1      32.479  14.187   4.901  0.00  0.00    -0.261 N 
HETATM   42  C   UNK N   1      31.356  15.025   5.049  0.00  0.00     0.045 C 
HETATM   43  C   UNK N   1      30.251  14.734   4.914  0.00  0.00     0.055 C 
HETATM   44  C   UNK N   1      30.023  13.846   4.076  0.00  0.00     0.042 C 
HETATM   45  N   UNK N   1      30.582  12.686   3.921  0.00  0.00    -0.256 N 
HETATM   46  C   UNK N   1      29.376  12.080   3.474  0.00  0.00     0.052 C 
HETATM   47  C   UNK N   1      29.260  10.885   3.800  0.00  0.00    -0.012 C 
HETATM   48  C   UNK N   1      28.002  10.647   4.593  0.00  0.00     0.052 C 
HETATM   49  C   UNK N   1      30.460  10.065   4.027  0.00  0.00     0.043 C 
HETATM   50  N   UNK N   1      31.712  10.462   4.322  0.00  0.00    -0.280 N 
HETATM   51  C   UNK N   1      32.463   9.636   5.081  0.00  0.00     0.076 C 
HETATM   52  C   UNK N   1      31.582   9.277   6.320  0.00  0.00     0.043 C 
HETATM   53  C   UNK N   1      31.890   8.365   4.178  0.00  0.00     0.002 C 
HETATM   54  C   UNK N   1      32.425   8.449   2.720  0.00  0.00     0.019 C 
HETATM   55  C   UNK N   1      30.302   8.620   3.944  0.00  0.00     0.049 C 
HETATM   56  C   UNK N   1      28.035  13.066   3.512  0.00  0.00     0.018 C 
HETATM   57  C   UNK N   1      27.353  13.300   4.899  0.00  0.00     0.023 C 
HETATM   58  C   UNK N   1      28.796  14.242   3.308  0.00  0.00     0.053 C 
HETATM   59  C   UNK N   1      31.524  16.471   5.150  0.00  0.00     0.006 C 
HETATM   60  C   UNK N   1      30.529  17.188   6.114  0.00  0.00     0.022 C 
HETATM   61  C   UNK N   1      31.256  17.013   3.741  0.00  0.00     0.022 C 
HETATM   62  C   UNK N   1      32.982  16.471   5.479  0.00  0.00     0.048 C 
HETATM   63  H   UNK N   1      37.624  12.082   6.852  0.00  0.00     0.162 HD
ENDROOT
BRANCH  53  64
HETATM   64  C   UNK N   1      32.253   7.010   4.751  0.00  0.00     0.115 C 
BRANCH  64  65
HETATM   65  C   UNK N   1      32.218   5.791   3.872  0.00  0.00     0.216 C 
HETATM   66  N   UNK N   1      31.076   5.162   3.559  0.00  0.00    -0.370 N 
HETATM   67  H   UNK N   1      31.090   4.257   3.172  0.00  0.00     0.159 HD
HETATM   68  H   UNK N   1      30.214   5.609   3.719  0.00  0.00     0.159 HD
HETATM   69  O   UNK N   1      33.265   5.230   3.636  0.00  0.00    -0.274 OA
ENDBRANCH  64  65
ENDBRANCH  53  64
BRANCH  55  70
HETATM   70  C   UNK N   1      28.960   7.992   4.589  0.00  0.00     0.021 C 
BRANCH  70  71
HETATM   71  C   UNK N   1      27.842   7.230   3.735  0.00  0.00     0.103 C 
BRANCH  71  72
HETATM   72  C   UNK N   1      27.082   7.566   2.482  0.00  0.00     0.215 C 
HETATM   73  N   UNK N   1      27.655   8.282   1.502  0.00  0.00    -0.370 N 
HETATM   74  H   UNK N   1      28.212   8.979   1.086  0.00  0.00     0.159 HD
HETATM   75  H   UNK N   1      27.295   7.829   0.704  0.00  0.00     0.159 HD
HETATM   76  O   UNK N   1      25.881   7.325   2.430  0.00  0.00    -0.274 OA
ENDBRANCH  71  72
ENDBRANCH  70  71
ENDBRANCH  55  70
BRANCH   2  77
HETATM   77  C   UNK N   1      33.380  10.489   8.474  0.00  0.00     0.109 C 
BRANCH  77  78
HETATM   78  C   UNK N   1      34.458   9.442   8.770  0.00  0.00     0.215 C 
HETATM   79  N   UNK N   1      35.610   9.798   9.372  0.00  0.00    -0.370 N 
HETATM   80  H   UNK N   1      36.514   9.518   9.099  0.00  0.00     0.159 HD
HETATM   81  H   UNK N   1      35.543  10.392  10.154  0.00  0.00     0.159 HD
HETATM   82  O   UNK N   1      34.231   8.258   8.594  0.00  0.00    -0.274 OA
ENDBRANCH  77  78
ENDBRANCH   2  77
BRANCH  56  83
HETATM   83  C   UNK N   1      26.981  13.067   2.358  0.00  0.00     0.118 C 
BRANCH  83  84
HETATM   84  C   UNK N   1      26.619  11.726   1.715  0.00  0.00     0.216 C 
HETATM   85  N   UNK N   1      25.476  11.079   2.032  0.00  0.00    -0.370 N 
HETATM   86  H   UNK N   1      25.001  10.555   1.347  0.00  0.00     0.159 HD
HETATM   87  H   UNK N   1      25.119  11.132   2.948  0.00  0.00     0.159 HD
HETATM   88  O   UNK N   1      27.327  11.279   0.831  0.00  0.00    -0.274 OA
ENDBRANCH  83  84
ENDBRANCH  56  83
BRANCH  62  89
HETATM   89  C   UNK N   1      33.127  16.864   6.935  0.00  0.00     0.021 C 
BRANCH  89  90
HETATM   90  C   UNK N   1      34.188  17.941   6.980  0.00  0.00     0.103 C 
BRANCH  90  91
HETATM   91  C   UNK N   1      34.536  18.202   8.409  0.00  0.00     0.215 C 
HETATM   92  N   UNK N   1      33.986  17.465   9.398  0.00  0.00    -0.370 N 
HETATM   93  H   UNK N   1      33.920  17.834  10.308  0.00  0.00     0.159 HD
HETATM   94  H   UNK N   1      33.651  16.560   9.209  0.00  0.00     0.159 HD
HETATM   95  O   UNK N   1      35.313  19.096   8.687  0.00  0.00    -0.274 OA
ENDBRANCH  90  91
ENDBRANCH  89  90
ENDBRANCH  62  89
BRANCH  58  96
HETATM   96  C   UNK N   1      28.131  15.711   3.248  0.00  0.00     0.021 C 
BRANCH  96  97
HETATM   97  C   UNK N   1      27.129  16.252   4.316  0.00  0.00     0.103 C 
BRANCH  97  98
HETATM   98  C   UNK N   1      27.241  17.741   4.629  0.00  0.00     0.215 C 
HETATM   99  N   UNK N   1      26.595  18.275   5.689  0.00  0.00    -0.370 N 
HETATM  100  H   UNK N   1      26.471  19.234   5.873  0.00  0.00     0.159 HD
HETATM  101  H   UNK N   1      26.212  17.644   6.341  0.00  0.00     0.159 HD
HETATM  102  O   UNK N   1      27.812  18.485   3.853  0.00  0.00    -0.274 OA
ENDBRANCH  97  98
ENDBRANCH  96  97
ENDBRANCH  58  96
BRANCH  19 103
HETATM  103  O   UNK N   1      38.512  10.511   9.351  0.00  0.00    -0.388 OA
HETATM  104  H   UNK N   1      38.683  10.357  10.293  0.00  0.00     0.210 HD
ENDBRANCH  19 103
BRANCH  22 105
HETATM  105  C   UNK N   1      42.046  12.311   7.568  0.00  0.00     0.198 C 
BRANCH 105 106
HETATM  106  O   UNK N   1      43.049  11.638   6.876  0.00  0.00    -0.398 OA
HETATM  107  H   UNK N   1      43.355  11.973   6.019  0.00  0.00     0.209 HD
ENDBRANCH 105 106
ENDBRANCH  22 105
TORSDOF 18
ENDMDL
MODEL 8
REMARK VINA RESULT:      -6.2      7.869     13.897
REMARK  18 active torsions:
REMARK  status: ('A' for Active; 'I' for Inactive)
REMARK    1  A    between atoms: C_2  and  C_3 
REMARK    2  A    between atoms: C_3  and  C_4 
REMARK       I    between atoms: C_4  and  N_5 
REMARK    3  A    between atoms: C_23  and  O_24 
REMARK    4  A    between atoms: C_27  and  C_28 
REMARK    5  A    between atoms: C_28  and  O_29 
REMARK    6  A    between atoms: C_60  and  C_62 
REMARK    7  A    between atoms: C_62  and  C_63 
REMARK       I    between atoms: C_63  and  N_64 
REMARK    8  A    between atoms: C_66  and  C_67 
REMARK    9  A    between atoms: C_67  and  C_68 
REMARK   10  A    between atoms: C_68  and  C_69 
REMARK       I    between atoms: C_69  and  N_70 
REMARK   11  A    between atoms: C_72  and  C_74 
REMARK   12  A    between atoms: C_74  and  C_75 
REMARK       I    between atoms: C_75  and  N_76 
REMARK   13  A    between atoms: C_78  and  C_79 
REMARK   14  A    between atoms: C_79  and  C_80 
REMARK   15  A    between atoms: C_80  and  C_81 
REMARK       I    between atoms: C_81  and  N_82 
REMARK   16  A    between atoms: C_87  and  C_88 
REMARK   17  A    between atoms: C_88  and  C_89 
REMARK   18  A    between atoms: C_89  and  C_90 
REMARK       I    between atoms: C_90  and  N_91 
ROOT
HETATM    1  C   UNK N   1      27.482  11.514   3.179  0.00  0.00     0.111 A 
HETATM    2  C   UNK N   1      27.990  10.157   3.743  0.00  0.00     0.026 C 
HETATM    3  C   UNK N   1      29.628  10.357   3.903  0.00  0.00    -0.020 C 
HETATM    4  C   UNK N   1      29.909  11.196   5.148  0.00  0.00     0.017 C 
HETATM    5  C   UNK N   1      30.727   9.272   4.035  0.00  0.00     0.020 C 
HETATM    6  C   UNK N   1      31.308   8.781   2.710  0.00  0.00     0.103 C 
HETATM    7  C   UNK N   1      30.147   8.235   2.084  0.00  0.00     0.217 C 
HETATM    8  O   UNK N   1      29.546   7.384   2.722  0.00  0.00    -0.274 OA
HETATM    9  N   UNK N   1      29.600   8.766   0.965  0.00  0.00    -0.359 N 
HETATM   10  C   UNK N   1      29.884   9.975   0.230  0.00  0.00     0.154 C 
HETATM   11  C   UNK N   1      29.705   9.961  -1.204  0.00  0.00     0.148 C 
HETATM   12  C   UNK N   1      29.728  11.409  -1.699  0.00  0.00     0.042 C 
HETATM   13  O   UNK N   1      30.884   9.376  -1.534  0.00  0.00    -0.283 OA
HETATM   14  P   UNK N   1      30.527   7.695  -1.675  0.00  0.00     0.409 P 
HETATM   15  O   UNK N   1      30.175   7.276  -3.312  0.00  0.00    -0.624 OA
HETATM   16  O   UNK N   1      32.032   7.480  -1.874  0.00  0.00    -0.624 OA
HETATM   17  O   UNK N   1      30.549   6.496  -0.325  0.00  0.00    -0.279 OA
HETATM   18  C   UNK N   1      29.368   5.703  -0.032  0.00  0.00     0.198 C 
HETATM   19  C   UNK N   1      28.384   6.445   0.825  0.00  0.00     0.199 C 
HETATM   20  C   UNK N   1      27.860   7.389  -0.185  0.00  0.00     0.261 C 
HETATM   21  O   UNK N   1      27.793   6.658  -1.456  0.00  0.00    -0.353 OA
HETATM   22  C   UNK N   1      28.501   5.415  -1.212  0.00  0.00     0.180 C 
HETATM   23  N   UNK N   1      27.093   8.740   0.172  0.00  0.00    -0.309 N 
HETATM   24  C   UNK N   1      27.373   9.967   0.895  0.00  0.00     0.213 A 
HETATM   25  N   UNK N   1      26.476  11.095   1.054  0.00  0.00    -0.242 N 
HETATM   26  C   UNK N   1      25.373  10.147   0.120  0.00  0.00     0.085 A 
HETATM   27  C   UNK N   1      23.940   9.890  -0.604  0.00  0.00     0.041 A 
HETATM   28  C   UNK N   1      23.467   8.589  -1.484  0.00  0.00    -0.054 A 
HETATM   29  C   UNK N   1      22.125   8.299  -2.186  0.00  0.00     0.049 C 
HETATM   30  C   UNK N   1      24.333   7.515  -1.689  0.00  0.00    -0.054 A 
HETATM   31  C   UNK N   1      24.113   6.190  -2.498  0.00  0.00     0.049 C 
HETATM   32  C   UNK N   1      25.478   7.705  -1.077  0.00  0.00     0.039 A 
HETATM   33  C   UNK N   1      25.939   8.852  -0.282  0.00  0.00     0.067 A 
HETATM   34 Co   UNK N   1      28.284  13.141   2.829  0.00  0.00     0.000 Co
HETATM   35  C   UNK N   1      28.427  14.246   1.175  0.00  0.00     0.000 C 
HETATM   36  N   UNK N   1      28.700  11.783   2.312  0.00  0.00    -0.235 NA
HETATM   37  C   UNK N   1      29.828  11.053   2.558  0.00  0.00     0.093 C 
HETATM   38  C   UNK N   1      31.024  11.512   2.038  0.00  0.00     0.050 C 
HETATM   39  C   UNK N   1      31.216  12.216   0.712  0.00  0.00     0.018 C 
HETATM   40  C   UNK N   1      31.440  12.386   2.878  0.00  0.00     0.023 C 
HETATM   41  N   UNK N   1      30.551  13.172   3.307  0.00  0.00    -0.261 N 
HETATM   42  C   UNK N   1      31.309  13.840   4.289  0.00  0.00     0.045 C 
HETATM   43  C   UNK N   1      30.936  14.637   5.030  0.00  0.00     0.055 C 
HETATM   44  C   UNK N   1      30.013  15.362   4.627  0.00  0.00     0.042 C 
HETATM   45  N   UNK N   1      28.892  15.043   4.057  0.00  0.00    -0.256 N 
HETATM   46  C   UNK N   1      28.190  16.121   4.662  0.00  0.00     0.052 C 
HETATM   47  C   UNK N   1      26.999  15.869   4.915  0.00  0.00    -0.012 C 
HETATM   48  C   UNK N   1      26.691  16.062   6.377  0.00  0.00     0.052 C 
HETATM   49  C   UNK N   1      26.273  14.868   4.119  0.00  0.00     0.043 C 
HETATM   50  N   UNK N   1      26.767  13.861   3.373  0.00  0.00    -0.280 N 
HETATM   51  C   UNK N   1      26.017  12.744   3.263  0.00  0.00     0.076 C 
HETATM   52  C   UNK N   1      25.627  12.346   4.723  0.00  0.00     0.043 C 
HETATM   53  C   UNK N   1      24.685  13.717   3.065  0.00  0.00     0.002 C 
HETATM   54  C   UNK N   1      24.769  14.486   1.716  0.00  0.00     0.019 C 
HETATM   55  C   UNK N   1      24.819  14.937   4.130  0.00  0.00     0.049 C 
HETATM   56  C   UNK N   1      29.078  17.024   5.742  0.00  0.00     0.018 C 
HETATM   57  C   UNK N   1      29.298  16.424   7.170  0.00  0.00     0.023 C 
HETATM   58  C   UNK N   1      30.299  16.765   5.077  0.00  0.00     0.053 C 
HETATM   59  C   UNK N   1      32.766  13.750   4.282  0.00  0.00     0.006 C 
HETATM   60  C   UNK N   1      33.434  13.707   5.690  0.00  0.00     0.022 C 
HETATM   61  C   UNK N   1      33.250  15.032   3.592  0.00  0.00     0.022 C 
HETATM   62  C   UNK N   1      32.879  12.559   3.387  0.00  0.00     0.048 C 
HETATM   63  H   UNK N   1      28.873   8.226   0.581  0.00  0.00     0.162 HD
ENDROOT
BRANCH  53  64
HETATM   64  C   UNK N   1      23.375  12.956   3.110  0.00  0.00     0.115 C 
BRANCH  64  65
HETATM   65  C   UNK N   1      22.157  13.524   2.436  0.00  0.00     0.216 C 
HETATM   66  N   UNK N   1      21.406  14.484   2.995  0.00  0.00    -0.370 N 
HETATM   67  H   UNK N   1      20.507  14.685   2.649  0.00  0.00     0.159 HD
HETATM   68  H   UNK N   1      21.758  14.993   3.760  0.00  0.00     0.159 HD
HETATM   69  O   UNK N   1      21.711  12.934   1.476  0.00  0.00    -0.274 OA
ENDBRANCH  64  65
ENDBRANCH  53  64
BRANCH  55  70
HETATM   70  C   UNK N   1      24.113  15.271   5.545  0.00  0.00     0.021 C 
BRANCH  70  71
HETATM   71  C   UNK N   1      22.943  16.349   5.716  0.00  0.00     0.103 C 
BRANCH  71  72
HETATM   72  C   UNK N   1      22.888  17.848   5.615  0.00  0.00     0.215 C 
HETATM   73  N   UNK N   1      23.965  18.551   5.230  0.00  0.00    -0.370 N 
HETATM   74  H   UNK N   1      24.914  18.802   5.161  0.00  0.00     0.159 HD
HETATM   75  H   UNK N   1      23.545  19.245   4.671  0.00  0.00     0.159 HD
HETATM   76  O   UNK N   1      21.903  18.439   6.045  0.00  0.00    -0.274 OA
ENDBRANCH  71  72
ENDBRANCH  70  71
ENDBRANCH  55  70
BRANCH   2  77
HETATM   77  C   UNK N   1      27.021   9.627   4.799  0.00  0.00     0.109 C 
BRANCH  77  78
HETATM   78  C   UNK N   1      26.031   8.674   4.122  0.00  0.00     0.215 C 
HETATM   79  N   UNK N   1      26.463   7.529   3.557  0.00  0.00    -0.370 N 
HETATM   80  H   UNK N   1      26.197   7.187   2.672  0.00  0.00     0.159 HD
HETATM   81  H   UNK N   1      27.100   6.985   4.074  0.00  0.00     0.159 HD
HETATM   82  O   UNK N   1      24.831   8.869   4.209  0.00  0.00    -0.274 OA
ENDBRANCH  77  78
ENDBRANCH   2  77
BRANCH  56  83
HETATM   83  C   UNK N   1      28.973  18.582   5.796  0.00  0.00     0.118 C 
BRANCH  83  84
HETATM   84  C   UNK N   1      27.834  19.252   5.023  0.00  0.00     0.216 C 
HETATM   85  N   UNK N   1      27.957  19.559   3.713  0.00  0.00    -0.370 N 
HETATM   86  H   UNK N   1      27.174  19.505   3.120  0.00  0.00     0.159 HD
HETATM   87  H   UNK N   1      28.830  19.838   3.353  0.00  0.00     0.159 HD
HETATM   88  O   UNK N   1      26.762  19.426   5.574  0.00  0.00    -0.274 OA
ENDBRANCH  83  84
ENDBRANCH  56  83
BRANCH  62  89
HETATM   89  C   UNK N   1      33.319  11.384   4.235  0.00  0.00     0.021 C 
BRANCH  89  90
HETATM   90  C   UNK N   1      34.424  10.696   3.466  0.00  0.00     0.103 C 
BRANCH  90  91
HETATM   91  C   UNK N   1      35.702  11.428   3.717  0.00  0.00     0.215 C 
HETATM   92  N   UNK N   1      36.224  11.496   4.960  0.00  0.00    -0.370 N 
HETATM   93  H   UNK N   1      36.829  12.235   5.201  0.00  0.00     0.159 HD
HETATM   94  H   UNK N   1      36.000  10.808   5.626  0.00  0.00     0.159 HD
HETATM   95  O   UNK N   1      36.272  11.981   2.796  0.00  0.00    -0.274 OA
ENDBRANCH  90  91
ENDBRANCH  89  90
ENDBRANCH  62  89
BRANCH  58  96
HETATM   96  C   UNK N   1      31.715  17.338   5.599  0.00  0.00     0.021 C 
BRANCH  96  97
HETATM   97  C   UNK N   1      32.231  17.167   7.062  0.00  0.00     0.103 C 
BRANCH  97  98
HETATM   98  C   UNK N   1      33.648  17.669   7.323  0.00  0.00     0.215 C 
HETATM   99  N   UNK N   1      34.048  17.986   8.575  0.00  0.00    -0.370 N 
HETATM  100  H   UNK N   1      34.871  18.469   8.818  0.00  0.00     0.159 HD
HETATM  101  H   UNK N   1      33.462  17.706   9.315  0.00  0.00     0.159 HD
HETATM  102  O   UNK N   1      34.390  17.909   6.390  0.00  0.00    -0.274 OA
ENDBRANCH  97  98
ENDBRANCH  96  97
ENDBRANCH  58  96
BRANCH  19 103
HETATM  103  O   UNK N   1      27.434   5.648   1.467  0.00  0.00    -0.388 OA
HETATM  104  H   UNK N   1      26.483   5.554   1.630  0.00  0.00     0.210 HD
ENDBRANCH  19 103
BRANCH  22 105
HETATM  105  C   UNK N   1      29.437   4.842  -2.307  0.00  0.00     0.198 C 
BRANCH 105 106
HETATM  106  O   UNK N   1      30.404   3.966  -1.820  0.00  0.00    -0.398 OA
HETATM  107  H   UNK N   1      30.635   3.171  -2.323  0.00  0.00     0.209 HD
ENDBRANCH 105 106
ENDBRANCH  22 105
TORSDOF 18
ENDMDL
MODEL 9
REMARK VINA RESULT:      -6.1      4.253      9.809
REMARK  18 active torsions:
REMARK  status: ('A' for Active; 'I' for Inactive)
REMARK    1  A    between atoms: C_2  and  C_3 
REMARK    2  A    between atoms: C_3  and  C_4 
REMARK       I    between atoms: C_4  and  N_5 
REMARK    3  A    between atoms: C_23  and  O_24 
REMARK    4  A    between atoms: C_27  and  C_28 
REMARK    5  A    between atoms: C_28  and  O_29 
REMARK    6  A    between atoms: C_60  and  C_62 
REMARK    7  A    between atoms: C_62  and  C_63 
REMARK       I    between atoms: C_63  and  N_64 
REMARK    8  A    between atoms: C_66  and  C_67 
REMARK    9  A    between atoms: C_67  and  C_68 
REMARK   10  A    between atoms: C_68  and  C_69 
REMARK       I    between atoms: C_69  and  N_70 
REMARK   11  A    between atoms: C_72  and  C_74 
REMARK   12  A    between atoms: C_74  and  C_75 
REMARK       I    between atoms: C_75  and  N_76 
REMARK   13  A    between atoms: C_78  and  C_79 
REMARK   14  A    between atoms: C_79  and  C_80 
REMARK   15  A    between atoms: C_80  and  C_81 
REMARK       I    between atoms: C_81  and  N_82 
REMARK   16  A    between atoms: C_87  and  C_88 
REMARK   17  A    between atoms: C_88  and  C_89 
REMARK   18  A    between atoms: C_89  and  C_90 
REMARK       I    between atoms: C_90  and  N_91 
ROOT
HETATM    1  C   UNK N   1      34.092  11.484   6.210  0.00  0.00     0.111 A 
HETATM    2  C   UNK N   1      33.313  10.142   6.312  0.00  0.00     0.026 C 
HETATM    3  C   UNK N   1      34.171   9.087   5.364  0.00  0.00    -0.020 C 
HETATM    4  C   UNK N   1      35.419   8.637   6.121  0.00  0.00     0.017 C 
HETATM    5  C   UNK N   1      33.707   7.740   4.752  0.00  0.00     0.020 C 
HETATM    6  C   UNK N   1      33.062   7.849   3.371  0.00  0.00     0.103 C 
HETATM    7  C   UNK N   1      31.935   8.678   3.657  0.00  0.00     0.217 C 
HETATM    8  O   UNK N   1      31.187   8.278   4.536  0.00  0.00    -0.274 OA
HETATM    9  N   UNK N   1      31.803   9.931   3.163  0.00  0.00    -0.359 N 
HETATM   10  C   UNK N   1      32.702  10.775   2.415  0.00  0.00     0.154 C 
HETATM   11  C   UNK N   1      32.138  11.686   1.445  0.00  0.00     0.148 C 
HETATM   12  C   UNK N   1      33.224  12.688   1.048  0.00  0.00     0.042 C 
HETATM   13  O   UNK N   1      31.978  10.801   0.429  0.00  0.00    -0.283 OA
HETATM   14  P   UNK N   1      30.350  10.251   0.563  0.00  0.00     0.409 P 
HETATM   15  O   UNK N   1      29.302  11.181  -0.446  0.00  0.00    -0.624 OA
HETATM   16  O   UNK N   1      30.678   9.271  -0.569  0.00  0.00    -0.624 OA
HETATM   17  O   UNK N   1      29.784   8.870   1.578  0.00  0.00    -0.279 OA
HETATM   18  C   UNK N   1      28.746   9.070   2.574  0.00  0.00     0.198 C 
HETATM   19  C   UNK N   1      29.293   9.614   3.862  0.00  0.00     0.199 C 
HETATM   20  C   UNK N   1      29.562  11.004   3.434  0.00  0.00     0.261 C 
HETATM   21  O   UNK N   1      28.478  11.383   2.517  0.00  0.00    -0.353 OA
HETATM   22  C   UNK N   1      27.767  10.148   2.246  0.00  0.00     0.180 C 
HETATM   23  N   UNK N   1      30.547  11.997   4.198  0.00  0.00    -0.309 N 
HETATM   24  C   UNK N   1      31.952  12.038   4.557  0.00  0.00     0.213 A 
HETATM   25  N   UNK N   1      32.629  13.113   5.257  0.00  0.00    -0.242 N 
HETATM   26  C   UNK N   1      31.074  13.869   5.273  0.00  0.00     0.085 A 
HETATM   27  C   UNK N   1      30.057  15.077   5.661  0.00  0.00     0.041 A 
HETATM   28  C   UNK N   1      28.460  15.211   5.309  0.00  0.00    -0.054 A 
HETATM   29  C   UNK N   1      27.458  16.330   5.654  0.00  0.00     0.049 C 
HETATM   30  C   UNK N   1      27.803  14.210   4.593  0.00  0.00    -0.054 A 
HETATM   31  C   UNK N   1      26.307  14.127   4.130  0.00  0.00     0.049 C 
HETATM   32  C   UNK N   1      28.614  13.218   4.309  0.00  0.00     0.039 A 
HETATM   33  C   UNK N   1      30.045  13.061   4.606  0.00  0.00     0.067 A 
HETATM   34 Co   UNK N   1      35.682  11.990   5.413  0.00  0.00     0.000 Co
HETATM   35  C   UNK N   1      36.128  13.386   4.061  0.00  0.00     0.000 C 
HETATM   36  N   UNK N   1      34.501  11.311   4.757  0.00  0.00    -0.235 NA
HETATM   37  C   UNK N   1      34.392  10.064   4.211  0.00  0.00     0.093 C 
HETATM   38  C   UNK N   1      35.071   9.809   3.034  0.00  0.00     0.050 C 
HETATM   39  C   UNK N   1      35.303  10.785   1.900  0.00  0.00     0.018 C 
HETATM   40  C   UNK N   1      36.266   9.516   3.396  0.00  0.00     0.023 C 
HETATM   41  N   UNK N   1      36.743  10.259   4.296  0.00  0.00    -0.261 N 
HETATM   42  C   UNK N   1      37.940   9.558   4.543  0.00  0.00     0.045 C 
HETATM   43  C   UNK N   1      38.731   9.796   5.344  0.00  0.00     0.055 C 
HETATM   44  C   UNK N   1      38.862  10.995   5.637  0.00  0.00     0.042 C 
HETATM   45  N   UNK N   1      37.963  11.881   5.938  0.00  0.00    -0.256 N 
HETATM   46  C   UNK N   1      38.823  12.554   6.849  0.00  0.00     0.052 C 
HETATM   47  C   UNK N   1      38.233  13.060   7.820  0.00  0.00    -0.012 C 
HETATM   48  C   UNK N   1      38.773  12.543   9.127  0.00  0.00     0.052 C 
HETATM   49  C   UNK N   1      36.824  13.465   7.694  0.00  0.00     0.043 C 
HETATM   50  N   UNK N   1      35.898  13.044   6.812  0.00  0.00    -0.280 N 
HETATM   51  C   UNK N   1      34.613  13.023   7.224  0.00  0.00     0.076 C 
HETATM   52  C   UNK N   1      34.613  12.259   8.586  0.00  0.00     0.043 C 
HETATM   53  C   UNK N   1      34.869  14.501   7.937  0.00  0.00     0.002 C 
HETATM   54  C   UNK N   1      35.107  15.594   6.856  0.00  0.00     0.019 C 
HETATM   55  C   UNK N   1      36.327  14.444   8.651  0.00  0.00     0.049 C 
HETATM   56  C   UNK N   1      40.305  11.833   7.085  0.00  0.00     0.018 C 
HETATM   57  C   UNK N   1      40.356  10.585   8.026  0.00  0.00     0.023 C 
HETATM   58  C   UNK N   1      40.329  11.275   5.785  0.00  0.00     0.053 C 
HETATM   59  C   UNK N   1      38.422   8.565   3.588  0.00  0.00     0.006 C 
HETATM   60  C   UNK N   1      39.117   7.321   4.220  0.00  0.00     0.022 C 
HETATM   61  C   UNK N   1      39.477   9.291   2.743  0.00  0.00     0.022 C 
HETATM   62  C   UNK N   1      37.141   8.381   2.841  0.00  0.00     0.048 C 
HETATM   63  H   UNK N   1      30.929  10.344   3.349  0.00  0.00     0.162 HD
ENDROOT
BRANCH  53  64
HETATM   64  C   UNK N   1      33.725  14.942   8.829  0.00  0.00     0.115 C 
BRANCH  64  65
HETATM   65  C   UNK N   1      33.444  16.407   9.016  0.00  0.00     0.216 C 
HETATM   66  N   UNK N   1      34.189  17.188   9.812  0.00  0.00    -0.370 N 
HETATM   67  H   UNK N   1      33.867  18.075  10.090  0.00  0.00     0.159 HD
HETATM   68  H   UNK N   1      35.067  16.870  10.121  0.00  0.00     0.159 HD
HETATM   69  O   UNK N   1      32.380  16.835   8.625  0.00  0.00    -0.274 OA
ENDBRANCH  64  65
ENDBRANCH  53  64
BRANCH  55  70
HETATM   70  C   UNK N   1      36.819  14.286  10.182  0.00  0.00     0.021 C 
BRANCH  70  71
HETATM   71  C   UNK N   1      35.959  14.769  11.442  0.00  0.00     0.103 C 
BRANCH  71  72
HETATM   72  C   UNK N   1      35.844  14.296  12.865  0.00  0.00     0.215 C 
HETATM   73  N   UNK N   1      36.813  14.558  13.756  0.00  0.00    -0.370 N 
HETATM   74  H   UNK N   1      37.726  14.678  14.103  0.00  0.00     0.159 HD
HETATM   75  H   UNK N   1      36.279  14.745  14.563  0.00  0.00     0.159 HD
HETATM   76  O   UNK N   1      34.937  13.528  13.166  0.00  0.00    -0.274 OA
ENDBRANCH  71  72
ENDBRANCH  70  71
ENDBRANCH  55  70
BRANCH   2  77
HETATM   77  C   UNK N   1      32.840   9.914   7.747  0.00  0.00     0.109 C 
BRANCH  77  78
HETATM   78  C   UNK N   1      31.823   8.770   7.753  0.00  0.00     0.215 C 
HETATM   79  N   UNK N   1      30.602   8.938   7.207  0.00  0.00    -0.370 N 
HETATM   80  H   UNK N   1      29.747   8.662   7.611  0.00  0.00     0.159 HD
HETATM   81  H   UNK N   1      30.561   9.375   6.326  0.00  0.00     0.159 HD
HETATM   82  O   UNK N   1      32.152   7.655   8.122  0.00  0.00    -0.274 OA
ENDBRANCH  77  78
ENDBRANCH   2  77
BRANCH  56  83
HETATM   83  C   UNK N   1      41.621  12.670   7.186  0.00  0.00     0.118 C 
BRANCH  83  84
HETATM   84  C   UNK N   1      41.683  14.003   6.438  0.00  0.00     0.216 C 
HETATM   85  N   UNK N   1      42.526  14.188   5.397  0.00  0.00    -0.370 N 
HETATM   86  H   UNK N   1      42.259  14.764   4.645  0.00  0.00     0.159 HD
HETATM   87  H   UNK N   1      43.406  13.747   5.393  0.00  0.00     0.159 HD
HETATM   88  O   UNK N   1      40.892  14.884   6.723  0.00  0.00    -0.274 OA
ENDBRANCH  83  84
ENDBRANCH  56  83
BRANCH  62  89
HETATM   89  C   UNK N   1      36.587   7.019   3.203  0.00  0.00     0.021 C 
BRANCH  89  90
HETATM   90  C   UNK N   1      36.166   6.373   1.902  0.00  0.00     0.103 C 
BRANCH  90  91
HETATM   91  C   UNK N   1      35.649   5.003   2.200  0.00  0.00     0.215 C 
HETATM   92  N   UNK N   1      35.882   3.979   1.352  0.00  0.00    -0.370 N 
HETATM   93  H   UNK N   1      35.279   3.201   1.342  0.00  0.00     0.159 HD
HETATM   94  H   UNK N   1      36.654   4.010   0.743  0.00  0.00     0.159 HD
HETATM   95  O   UNK N   1      35.001   4.809   3.211  0.00  0.00    -0.274 OA
ENDBRANCH  90  91
ENDBRANCH  89  90
ENDBRANCH  62  89
BRANCH  58  96
HETATM   96  C   UNK N   1      41.543  10.353   5.255  0.00  0.00     0.021 C 
BRANCH  96  97
HETATM   97  C   UNK N   1      42.705  10.884   4.358  0.00  0.00     0.103 C 
BRANCH  97  98
HETATM   98  C   UNK N   1      42.281  11.509   3.032  0.00  0.00     0.215 C 
HETATM   99  N   UNK N   1      42.605  10.923   1.858  0.00  0.00    -0.370 N 
HETATM  100  H   UNK N   1      42.525  11.328   0.964  0.00  0.00     0.159 HD
HETATM  101  H   UNK N   1      42.953  10.002   1.900  0.00  0.00     0.159 HD
HETATM  102  O   UNK N   1      41.757  12.606   3.017  0.00  0.00    -0.274 OA
ENDBRANCH  97  98
ENDBRANCH  96  97
ENDBRANCH  58  96
BRANCH  19 103
HETATM  103  O   UNK N   1      28.459   9.467   4.971  0.00  0.00    -0.388 OA
HETATM  104  H   UNK N   1      27.530   9.398   5.240  0.00  0.00     0.210 HD
ENDBRANCH  19 103
BRANCH  22 105
HETATM  105  C   UNK N   1      27.266   9.856   0.808  0.00  0.00     0.198 C 
BRANCH 105 106
HETATM  106  O   UNK N   1      27.051   8.504   0.551  0.00  0.00    -0.398 OA
HETATM  107  H   UNK N   1      27.653   8.020  -0.035  0.00  0.00     0.209 HD
ENDBRANCH 105 106
ENDBRANCH  22 105
TORSDOF 18
ENDMDL
