MODEL 1
REMARK VINA RESULT:      -7.2      0.000      0.000
REMARK  8 active torsions:
REMARK  status: ('A' for Active; 'I' for Inactive)
REMARK    1  A    between atoms: N_2  and  C_3 
REMARK    2  A    between atoms: N_2  and  C_6 
REMARK    3  A    between atoms: C_3  and  C_4 
REMARK    4  A    between atoms: C_6  and  C_7 
REMARK    5  A    between atoms: C_8  and  C_9 
REMARK    6  A    between atoms: C_9  and  O_10 
REMARK    7  A    between atoms: O_10  and  C_11 
REMARK    8  A    between atoms: C_17  and  C_20 
ROOT
HETATM    1  C   UNK N   1      35.110  15.214  11.246  0.00  0.00     0.071 A 
HETATM    2  C   UNK N   1      35.649  16.461  10.852  0.00  0.00     0.074 A 
HETATM    3  C   UNK N   1      35.064  17.106   9.770  0.00  0.00     0.088 A 
HETATM    4  C   UNK N   1      34.018  16.564   9.086  0.00  0.00     0.011 A 
HETATM    5  C   UNK N   1      33.479  15.326   9.428  0.00  0.00     0.018 A 
HETATM    6  C   UNK N   1      34.030  14.653  10.520  0.00  0.00     0.038 A 
HETATM    7  C   UNK N   1      33.656  17.466   8.119  0.00  0.00     0.009 A 
HETATM    8  C   UNK N   1      34.532  18.548   8.265  0.00  0.00     0.155 A 
HETATM    9  O   UNK N   1      35.361  18.286   9.264  0.00  0.00    -0.321 OA
ENDROOT
BRANCH   1  10
HETATM   10  O   UNK N   1      35.609  14.590  12.333  0.00  0.00    -0.347 OA
BRANCH  10  11
HETATM   11  C   UNK N   1      35.466  13.234  12.554  0.00  0.00     0.203 C 
BRANCH  11  12
HETATM   12  C   UNK N   1      36.652  12.637  13.255  0.00  0.00    -0.003 C 
HETATM   13  C   UNK N   1      36.897  12.719  14.574  0.00  0.00     0.001 C 
BRANCH  13  14
HETATM   14  C   UNK N   1      36.084  13.480  15.594  0.00  0.00     0.299 C 
BRANCH  14  15
HETATM   15  N   UNK N   1      35.133  12.641  16.311  0.00  0.00     0.090 N 
HETATM   16  C   UNK N   1      35.049  13.112  17.688  0.00  0.00     0.310 C 
BRANCH  15  17
HETATM   17  C   UNK N   1      35.524  11.229  16.268  0.00  0.00     0.299 C 
BRANCH  17  18
HETATM   18  C   UNK N   1      34.437  10.330  15.754  0.00  0.00    -0.007 C 
HETATM   19  C   UNK N   1      33.685  10.719  14.730  0.00  0.00     0.008 C 
ENDBRANCH  17  18
ENDBRANCH  15  17
ENDBRANCH  14  15
ENDBRANCH  13  14
ENDBRANCH  11  12
ENDBRANCH  10  11
ENDBRANCH   1  10
BRANCH   7  20
HETATM   20  C   UNK N   1      32.539  17.331   7.163  0.00  0.00    -0.023 A 
HETATM   21  C   UNK N   1      32.774  17.267   5.782  0.00  0.00     0.013 A 
HETATM   22  C   UNK N   1      31.696  17.186   4.891  0.00  0.00     0.020 A 
HETATM   23  C   UNK N   1      30.383  17.163   5.377  0.00  0.00     0.011 A 
HETATM   24 Br   UNK N   1      28.911  17.070   4.174  0.00  0.00    -0.051 Br
HETATM   25  C   UNK N   1      30.147  17.216   6.749  0.00  0.00     0.020 A 
HETATM   26  C   UNK N   1      31.218  17.303   7.635  0.00  0.00     0.013 A 
ENDBRANCH   7  20
TORSDOF 8
ENDMDL
MODEL 2
REMARK VINA RESULT:      -7.1      1.361      2.171
REMARK  8 active torsions:
REMARK  status: ('A' for Active; 'I' for Inactive)
REMARK    1  A    between atoms: N_2  and  C_3 
REMARK    2  A    between atoms: N_2  and  C_6 
REMARK    3  A    between atoms: C_3  and  C_4 
REMARK    4  A    between atoms: C_6  and  C_7 
REMARK    5  A    between atoms: C_8  and  C_9 
REMARK    6  A    between atoms: C_9  and  O_10 
REMARK    7  A    between atoms: O_10  and  C_11 
REMARK    8  A    between atoms: C_17  and  C_20 
ROOT
HETATM    1  C   UNK N   1      34.751  15.107  11.284  0.00  0.00     0.071 A 
HETATM    2  C   UNK N   1      35.339  16.360  10.996  0.00  0.00     0.074 A 
HETATM    3  C   UNK N   1      34.935  17.013   9.837  0.00  0.00     0.088 A 
HETATM    4  C   UNK N   1      34.019  16.473   8.987  0.00  0.00     0.011 A 
HETATM    5  C   UNK N   1      33.440  15.228   9.225  0.00  0.00     0.018 A 
HETATM    6  C   UNK N   1      33.809  14.547  10.387  0.00  0.00     0.038 A 
HETATM    7  C   UNK N   1      33.814  17.382   7.982  0.00  0.00     0.009 A 
HETATM    8  C   UNK N   1      34.647  18.466   8.279  0.00  0.00     0.155 A 
HETATM    9  O   UNK N   1      35.303  18.200   9.398  0.00  0.00    -0.321 OA
ENDROOT
BRANCH   1  10
HETATM   10  O   UNK N   1      35.070  14.476  12.434  0.00  0.00    -0.347 OA
BRANCH  10  11
HETATM   11  C   UNK N   1      36.213  14.760  13.157  0.00  0.00     0.203 C 
BRANCH  11  12
HETATM   12  C   UNK N   1      36.290  13.986  14.440  0.00  0.00    -0.003 C 
HETATM   13  C   UNK N   1      36.751  12.729  14.562  0.00  0.00     0.001 C 
BRANCH  13  14
HETATM   14  C   UNK N   1      37.208  11.827  13.442  0.00  0.00     0.299 C 
BRANCH  14  15
HETATM   15  N   UNK N   1      36.364  10.650  13.273  0.00  0.00     0.090 N 
HETATM   16  C   UNK N   1      37.098   9.664  12.490  0.00  0.00     0.310 C 
BRANCH  15  17
HETATM   17  C   UNK N   1      35.094  10.989  12.626  0.00  0.00     0.299 C 
BRANCH  17  18
HETATM   18  C   UNK N   1      33.899  10.412  13.329  0.00  0.00    -0.007 C 
HETATM   19  C   UNK N   1      33.634  10.766  14.582  0.00  0.00     0.008 C 
ENDBRANCH  17  18
ENDBRANCH  15  17
ENDBRANCH  14  15
ENDBRANCH  13  14
ENDBRANCH  11  12
ENDBRANCH  10  11
ENDBRANCH   1  10
BRANCH   7  20
HETATM   20  C   UNK N   1      32.870  17.250   6.855  0.00  0.00    -0.023 A 
HETATM   21  C   UNK N   1      31.493  17.110   7.077  0.00  0.00     0.013 A 
HETATM   22  C   UNK N   1      30.621  16.939   5.995  0.00  0.00     0.020 A 
HETATM   23  C   UNK N   1      31.122  16.913   4.688  0.00  0.00     0.011 A 
HETATM   24 Br   UNK N   1      29.949  16.664   3.210  0.00  0.00    -0.051 Br
HETATM   25  C   UNK N   1      32.488  17.062   4.461  0.00  0.00     0.020 A 
HETATM   26  C   UNK N   1      33.356  17.225   5.539  0.00  0.00     0.013 A 
ENDBRANCH   7  20
TORSDOF 8
ENDMDL
MODEL 3
REMARK VINA RESULT:      -6.9      1.800      3.085
REMARK  8 active torsions:
REMARK  status: ('A' for Active; 'I' for Inactive)
REMARK    1  A    between atoms: N_2  and  C_3 
REMARK    2  A    between atoms: N_2  and  C_6 
REMARK    3  A    between atoms: C_3  and  C_4 
REMARK    4  A    between atoms: C_6  and  C_7 
REMARK    5  A    between atoms: C_8  and  C_9 
REMARK    6  A    between atoms: C_9  and  O_10 
REMARK    7  A    between atoms: O_10  and  C_11 
REMARK    8  A    between atoms: C_17  and  C_20 
ROOT
HETATM    1  C   UNK N   1      34.718  15.003  11.257  0.00  0.00     0.071 A 
HETATM    2  C   UNK N   1      35.300  16.272  11.034  0.00  0.00     0.074 A 
HETATM    3  C   UNK N   1      34.951  16.948   9.871  0.00  0.00     0.088 A 
HETATM    4  C   UNK N   1      34.093  16.416   8.957  0.00  0.00     0.011 A 
HETATM    5  C   UNK N   1      33.523  15.156   9.130  0.00  0.00     0.018 A 
HETATM    6  C   UNK N   1      33.838  14.451  10.294  0.00  0.00     0.038 A 
HETATM    7  C   UNK N   1      33.929  17.347   7.965  0.00  0.00     0.009 A 
HETATM    8  C   UNK N   1      34.725  18.437   8.336  0.00  0.00     0.155 A 
HETATM    9  O   UNK N   1      35.321  18.151   9.483  0.00  0.00    -0.321 OA
ENDROOT
BRANCH   1  10
HETATM   10  O   UNK N   1      34.983  14.346  12.406  0.00  0.00    -0.347 OA
BRANCH  10  11
HETATM   11  C   UNK N   1      36.103  14.597  13.175  0.00  0.00     0.203 C 
BRANCH  11  12
HETATM   12  C   UNK N   1      36.255  13.622  14.307  0.00  0.00    -0.003 C 
HETATM   13  C   UNK N   1      36.919  12.456  14.243  0.00  0.00     0.001 C 
BRANCH  13  14
HETATM   14  C   UNK N   1      37.574  11.860  13.020  0.00  0.00     0.299 C 
BRANCH  14  15
HETATM   15  N   UNK N   1      36.619  11.278  12.085  0.00  0.00     0.090 N 
HETATM   16  C   UNK N   1      36.829   9.836  12.049  0.00  0.00     0.310 C 
BRANCH  15  17
HETATM   17  C   UNK N   1      36.758  11.857  10.746  0.00  0.00     0.299 C 
BRANCH  17  18
HETATM   18  C   UNK N   1      37.974  12.726  10.600  0.00  0.00    -0.007 C 
HETATM   19  C   UNK N   1      37.919  13.819   9.847  0.00  0.00     0.008 C 
ENDBRANCH  17  18
ENDBRANCH  15  17
ENDBRANCH  14  15
ENDBRANCH  13  14
ENDBRANCH  11  12
ENDBRANCH  10  11
ENDBRANCH   1  10
BRANCH   7  20
HETATM   20  C   UNK N   1      33.053  17.230   6.783  0.00  0.00    -0.023 A 
HETATM   21  C   UNK N   1      31.668  17.063   6.923  0.00  0.00     0.013 A 
HETATM   22  C   UNK N   1      30.862  16.907   5.789  0.00  0.00     0.020 A 
HETATM   23  C   UNK N   1      31.436  16.921   4.512  0.00  0.00     0.011 A 
HETATM   24 Br   UNK N   1      30.353  16.692   2.964  0.00  0.00    -0.051 Br
HETATM   25  C   UNK N   1      32.810  17.096   4.367  0.00  0.00     0.020 A 
HETATM   26  C   UNK N   1      33.613  17.246   5.496  0.00  0.00     0.013 A 
ENDBRANCH   7  20
TORSDOF 8
ENDMDL
MODEL 4
REMARK VINA RESULT:      -6.9      2.439      4.209
REMARK  8 active torsions:
REMARK  status: ('A' for Active; 'I' for Inactive)
REMARK    1  A    between atoms: N_2  and  C_3 
REMARK    2  A    between atoms: N_2  and  C_6 
REMARK    3  A    between atoms: C_3  and  C_4 
REMARK    4  A    between atoms: C_6  and  C_7 
REMARK    5  A    between atoms: C_8  and  C_9 
REMARK    6  A    between atoms: C_9  and  O_10 
REMARK    7  A    between atoms: O_10  and  C_11 
REMARK    8  A    between atoms: C_17  and  C_20 
ROOT
HETATM    1  C   UNK N   1      34.920  15.198  11.250  0.00  0.00     0.071 A 
HETATM    2  C   UNK N   1      35.513  16.421  10.861  0.00  0.00     0.074 A 
HETATM    3  C   UNK N   1      34.980  17.077   9.758  0.00  0.00     0.088 A 
HETATM    4  C   UNK N   1      33.934  16.567   9.051  0.00  0.00     0.011 A 
HETATM    5  C   UNK N   1      33.342  15.351   9.388  0.00  0.00     0.018 A 
HETATM    6  C   UNK N   1      33.840  14.668  10.501  0.00  0.00     0.038 A 
HETATM    7  C   UNK N   1      33.629  17.472   8.068  0.00  0.00     0.009 A 
HETATM    8  C   UNK N   1      34.539  18.523   8.229  0.00  0.00     0.155 A 
HETATM    9  O   UNK N   1      35.332  18.241   9.251  0.00  0.00    -0.321 OA
ENDROOT
BRANCH   1  10
HETATM   10  O   UNK N   1      35.368  14.566  12.355  0.00  0.00    -0.347 OA
BRANCH  10  11
HETATM   11  C   UNK N   1      35.346  13.192  12.498  0.00  0.00     0.203 C 
BRANCH  11  12
HETATM   12  C   UNK N   1      36.720  12.588  12.475  0.00  0.00    -0.003 C 
HETATM   13  C   UNK N   1      37.403  12.254  11.367  0.00  0.00     0.001 C 
BRANCH  13  14
HETATM   14  C   UNK N   1      36.907  12.343   9.944  0.00  0.00     0.299 C 
BRANCH  14  15
HETATM   15  N   UNK N   1      37.883  12.928   9.032  0.00  0.00     0.090 N 
HETATM   16  C   UNK N   1      38.289  14.224   9.561  0.00  0.00     0.310 C 
BRANCH  15  17
HETATM   17  C   UNK N   1      37.338  13.066   7.679  0.00  0.00     0.299 C 
BRANCH  17  18
HETATM   18  C   UNK N   1      36.196  14.039   7.596  0.00  0.00    -0.007 C 
HETATM   19  C   UNK N   1      35.948  14.671   6.455  0.00  0.00     0.008 C 
ENDBRANCH  17  18
ENDBRANCH  15  17
ENDBRANCH  14  15
ENDBRANCH  13  14
ENDBRANCH  11  12
ENDBRANCH  10  11
ENDBRANCH   1  10
BRANCH   7  20
HETATM   20  C   UNK N   1      32.534  17.368   7.084  0.00  0.00    -0.023 A 
HETATM   21  C   UNK N   1      31.194  17.332   7.494  0.00  0.00     0.013 A 
HETATM   22  C   UNK N   1      30.174  17.186   6.546  0.00  0.00     0.020 A 
HETATM   23  C   UNK N   1      30.489  17.079   5.186  0.00  0.00     0.011 A 
HETATM   24 Br   UNK N   1      29.112  16.862   3.891  0.00  0.00    -0.051 Br
HETATM   25  C   UNK N   1      31.819  17.124   4.773  0.00  0.00     0.020 A 
HETATM   26  C   UNK N   1      32.834  17.263   5.717  0.00  0.00     0.013 A 
ENDBRANCH   7  20
TORSDOF 8
ENDMDL
MODEL 5
REMARK VINA RESULT:      -6.6     16.378     19.910
REMARK  8 active torsions:
REMARK  status: ('A' for Active; 'I' for Inactive)
REMARK    1  A    between atoms: N_2  and  C_3 
REMARK    2  A    between atoms: N_2  and  C_6 
REMARK    3  A    between atoms: C_3  and  C_4 
REMARK    4  A    between atoms: C_6  and  C_7 
REMARK    5  A    between atoms: C_8  and  C_9 
REMARK    6  A    between atoms: C_9  and  O_10 
REMARK    7  A    between atoms: O_10  and  C_11 
REMARK    8  A    between atoms: C_17  and  C_20 
ROOT
HETATM    1  C   UNK N   1      26.417  24.616  -5.423  0.00  0.00     0.071 A 
HETATM    2  C   UNK N   1      26.384  24.367  -4.031  0.00  0.00     0.074 A 
HETATM    3  C   UNK N   1      27.515  23.812  -3.446  0.00  0.00     0.088 A 
HETATM    4  C   UNK N   1      28.622  23.496  -4.173  0.00  0.00     0.011 A 
HETATM    5  C   UNK N   1      28.680  23.701  -5.550  0.00  0.00     0.018 A 
HETATM    6  C   UNK N   1      27.568  24.271  -6.173  0.00  0.00     0.038 A 
HETATM    7  C   UNK N   1      29.560  23.018  -3.295  0.00  0.00     0.009 A 
HETATM    8  C   UNK N   1      28.956  23.067  -2.034  0.00  0.00     0.155 A 
HETATM    9  O   UNK N   1      27.730  23.546  -2.173  0.00  0.00    -0.321 OA
ENDROOT
BRANCH   1  10
HETATM   10  O   UNK N   1      25.362  25.214  -6.014  0.00  0.00    -0.347 OA
BRANCH  10  11
HETATM   11  C   UNK N   1      25.340  26.559  -6.333  0.00  0.00     0.203 C 
BRANCH  11  12
HETATM   12  C   UNK N   1      24.916  27.418  -5.177  0.00  0.00    -0.003 C 
HETATM   13  C   UNK N   1      25.719  28.249  -4.492  0.00  0.00     0.001 C 
BRANCH  13  14
HETATM   14  C   UNK N   1      27.205  28.431  -4.690  0.00  0.00     0.299 C 
BRANCH  14  15
HETATM   15  N   UNK N   1      27.979  28.182  -3.481  0.00  0.00     0.090 N 
HETATM   16  C   UNK N   1      27.650  29.209  -2.502  0.00  0.00     0.310 C 
BRANCH  15  17
HETATM   17  C   UNK N   1      29.418  28.169  -3.758  0.00  0.00     0.299 C 
BRANCH  17  18
HETATM   18  C   UNK N   1      30.027  26.799  -3.665  0.00  0.00    -0.007 C 
HETATM   19  C   UNK N   1      31.340  26.649  -3.797  0.00  0.00     0.008 C 
ENDBRANCH  17  18
ENDBRANCH  15  17
ENDBRANCH  14  15
ENDBRANCH  13  14
ENDBRANCH  11  12
ENDBRANCH  10  11
ENDBRANCH   1  10
BRANCH   7  20
HETATM   20  C   UNK N   1      30.936  22.592  -3.622  0.00  0.00    -0.023 A 
HETATM   21  C   UNK N   1      31.575  21.585  -2.886  0.00  0.00     0.013 A 
HETATM   22  C   UNK N   1      32.896  21.230  -3.184  0.00  0.00     0.020 A 
HETATM   23  C   UNK N   1      33.580  21.876  -4.220  0.00  0.00     0.011 A 
HETATM   24 Br   UNK N   1      35.382  21.414  -4.623  0.00  0.00    -0.051 Br
HETATM   25  C   UNK N   1      32.946  22.871  -4.961  0.00  0.00     0.020 A 
HETATM   26  C   UNK N   1      31.633  23.228  -4.661  0.00  0.00     0.013 A 
ENDBRANCH   7  20
TORSDOF 8
ENDMDL
MODEL 6
REMARK VINA RESULT:      -6.6      1.160      2.056
REMARK  8 active torsions:
REMARK  status: ('A' for Active; 'I' for Inactive)
REMARK    1  A    between atoms: N_2  and  C_3 
REMARK    2  A    between atoms: N_2  and  C_6 
REMARK    3  A    between atoms: C_3  and  C_4 
REMARK    4  A    between atoms: C_6  and  C_7 
REMARK    5  A    between atoms: C_8  and  C_9 
REMARK    6  A    between atoms: C_9  and  O_10 
REMARK    7  A    between atoms: O_10  and  C_11 
REMARK    8  A    between atoms: C_17  and  C_20 
ROOT
HETATM    1  C   UNK N   1      34.651  14.899  11.213  0.00  0.00     0.071 A 
HETATM    2  C   UNK N   1      35.208  16.179  10.989  0.00  0.00     0.074 A 
HETATM    3  C   UNK N   1      34.867  16.838   9.814  0.00  0.00     0.088 A 
HETATM    4  C   UNK N   1      34.039  16.278   8.889  0.00  0.00     0.011 A 
HETATM    5  C   UNK N   1      33.494  15.008   9.062  0.00  0.00     0.018 A 
HETATM    6  C   UNK N   1      33.802  14.320  10.238  0.00  0.00     0.038 A 
HETATM    7  C   UNK N   1      33.874  17.198   7.886  0.00  0.00     0.009 A 
HETATM    8  C   UNK N   1      34.638  18.308   8.261  0.00  0.00     0.155 A 
HETATM    9  O   UNK N   1      35.218  18.046   9.422  0.00  0.00    -0.321 OA
ENDROOT
BRANCH   1  10
HETATM   10  O   UNK N   1      34.908  14.259  12.372  0.00  0.00    -0.347 OA
BRANCH  10  11
HETATM   11  C   UNK N   1      36.015  14.531  13.154  0.00  0.00     0.203 C 
BRANCH  11  12
HETATM   12  C   UNK N   1      36.766  13.291  13.541  0.00  0.00    -0.003 C 
HETATM   13  C   UNK N   1      36.471  12.499  14.586  0.00  0.00     0.001 C 
BRANCH  13  14
HETATM   14  C   UNK N   1      35.390  12.731  15.613  0.00  0.00     0.299 C 
BRANCH  14  15
HETATM   15  N   UNK N   1      35.912  13.120  16.917  0.00  0.00     0.090 N 
HETATM   16  C   UNK N   1      35.139  12.437  17.946  0.00  0.00     0.310 C 
BRANCH  15  17
HETATM   17  C   UNK N   1      35.859  14.573  17.105  0.00  0.00     0.299 C 
BRANCH  17  18
HETATM   18  C   UNK N   1      37.205  15.232  17.008  0.00  0.00    -0.007 C 
HETATM   19  C   UNK N   1      37.411  16.184  16.106  0.00  0.00     0.008 C 
ENDBRANCH  17  18
ENDBRANCH  15  17
ENDBRANCH  14  15
ENDBRANCH  13  14
ENDBRANCH  11  12
ENDBRANCH  10  11
ENDBRANCH   1  10
BRANCH   7  20
HETATM   20  C   UNK N   1      33.023  17.051   6.687  0.00  0.00    -0.023 A 
HETATM   21  C   UNK N   1      33.571  17.116   5.399  0.00  0.00     0.013 A 
HETATM   22  C   UNK N   1      32.739  17.021   4.277  0.00  0.00     0.020 A 
HETATM   23  C   UNK N   1      31.358  16.855   4.439  0.00  0.00     0.011 A 
HETATM   24 Br   UNK N   1      30.214  16.741   2.922  0.00  0.00    -0.051 Br
HETATM   25  C   UNK N   1      30.810  16.779   5.718  0.00  0.00     0.020 A 
HETATM   26  C   UNK N   1      31.638  16.880   6.834  0.00  0.00     0.013 A 
ENDBRANCH   7  20
TORSDOF 8
ENDMDL
MODEL 7
REMARK VINA RESULT:      -6.5      7.706     13.433
REMARK  8 active torsions:
REMARK  status: ('A' for Active; 'I' for Inactive)
REMARK    1  A    between atoms: N_2  and  C_3 
REMARK    2  A    between atoms: N_2  and  C_6 
REMARK    3  A    between atoms: C_3  and  C_4 
REMARK    4  A    between atoms: C_6  and  C_7 
REMARK    5  A    between atoms: C_8  and  C_9 
REMARK    6  A    between atoms: C_9  and  O_10 
REMARK    7  A    between atoms: O_10  and  C_11 
REMARK    8  A    between atoms: C_17  and  C_20 
ROOT
HETATM    1  C   UNK N   1      26.317  19.190   3.582  0.00  0.00     0.071 A 
HETATM    2  C   UNK N   1      26.223  17.785   3.713  0.00  0.00     0.074 A 
HETATM    3  C   UNK N   1      27.263  17.124   4.354  0.00  0.00     0.088 A 
HETATM    4  C   UNK N   1      28.354  17.785   4.830  0.00  0.00     0.011 A 
HETATM    5  C   UNK N   1      28.494  19.165   4.694  0.00  0.00     0.018 A 
HETATM    6  C   UNK N   1      27.462  19.868   4.069  0.00  0.00     0.038 A 
HETATM    7  C   UNK N   1      29.158  16.856   5.438  0.00  0.00     0.009 A 
HETATM    8  C   UNK N   1      28.495  15.632   5.294  0.00  0.00     0.155 A 
HETATM    9  O   UNK N   1      27.366  15.840   4.635  0.00  0.00    -0.321 OA
ENDROOT
BRANCH   1  10
HETATM   10  O   UNK N   1      25.295  19.873   3.025  0.00  0.00    -0.347 OA
BRANCH  10  11
HETATM   11  C   UNK N   1      24.111  20.131   3.689  0.00  0.00     0.203 C 
BRANCH  11  12
HETATM   12  C   UNK N   1      22.971  20.396   2.750  0.00  0.00    -0.003 C 
HETATM   13  C   UNK N   1      21.696  20.020   2.951  0.00  0.00     0.001 C 
BRANCH  13  14
HETATM   14  C   UNK N   1      21.172  19.201   4.106  0.00  0.00     0.299 C 
BRANCH  14  15
HETATM   15  N   UNK N   1      20.537  17.959   3.686  0.00  0.00     0.090 N 
HETATM   16  C   UNK N   1      21.552  16.914   3.638  0.00  0.00     0.310 C 
BRANCH  15  17
HETATM   17  C   UNK N   1      19.880  18.105   2.384  0.00  0.00     0.299 C 
BRANCH  17  18
HETATM   18  C   UNK N   1      20.062  16.911   1.491  0.00  0.00    -0.007 C 
HETATM   19  C   UNK N   1      20.023  17.060   0.172  0.00  0.00     0.008 C 
ENDBRANCH  17  18
ENDBRANCH  15  17
ENDBRANCH  14  15
ENDBRANCH  13  14
ENDBRANCH  11  12
ENDBRANCH  10  11
ENDBRANCH   1  10
BRANCH   7  20
HETATM   20  C   UNK N   1      30.431  17.117   6.139  0.00  0.00    -0.023 A 
HETATM   21  C   UNK N   1      30.458  17.383   7.514  0.00  0.00     0.013 A 
HETATM   22  C   UNK N   1      31.672  17.674   8.149  0.00  0.00     0.020 A 
HETATM   23  C   UNK N   1      32.862  17.695   7.412  0.00  0.00     0.011 A 
HETATM   24 Br   UNK N   1      34.516  18.106   8.260  0.00  0.00    -0.051 Br
HETATM   25  C   UNK N   1      32.841  17.421   6.046  0.00  0.00     0.020 A 
HETATM   26  C   UNK N   1      31.633  17.138   5.414  0.00  0.00     0.013 A 
ENDBRANCH   7  20
TORSDOF 8
ENDMDL
MODEL 8
REMARK VINA RESULT:      -6.5     16.000     18.853
REMARK  8 active torsions:
REMARK  status: ('A' for Active; 'I' for Inactive)
REMARK    1  A    between atoms: N_2  and  C_3 
REMARK    2  A    between atoms: N_2  and  C_6 
REMARK    3  A    between atoms: C_3  and  C_4 
REMARK    4  A    between atoms: C_6  and  C_7 
REMARK    5  A    between atoms: C_8  and  C_9 
REMARK    6  A    between atoms: C_9  and  O_10 
REMARK    7  A    between atoms: O_10  and  C_11 
REMARK    8  A    between atoms: C_17  and  C_20 
ROOT
HETATM    1  C   UNK N   1      30.557  22.924  -3.068  0.00  0.00     0.071 A 
HETATM    2  C   UNK N   1      29.374  23.178  -2.336  0.00  0.00     0.074 A 
HETATM    3  C   UNK N   1      28.280  23.678  -3.030  0.00  0.00     0.088 A 
HETATM    4  C   UNK N   1      28.330  23.939  -4.365  0.00  0.00     0.011 A 
HETATM    5  C   UNK N   1      29.486  23.727  -5.113  0.00  0.00     0.018 A 
HETATM    6  C   UNK N   1      30.604  23.211  -4.454  0.00  0.00     0.038 A 
HETATM    7  C   UNK N   1      27.084  24.372  -4.740  0.00  0.00     0.009 A 
HETATM    8  C   UNK N   1      26.312  24.357  -3.573  0.00  0.00     0.155 A 
HETATM    9  O   UNK N   1      27.071  23.937  -2.572  0.00  0.00    -0.321 OA
ENDROOT
BRANCH   1  10
HETATM   10  O   UNK N   1      31.619  22.376  -2.440  0.00  0.00    -0.347 OA
BRANCH  10  11
HETATM   11  C   UNK N   1      32.096  21.112  -2.732  0.00  0.00     0.203 C 
BRANCH  11  12
HETATM   12  C   UNK N   1      33.583  21.092  -2.937  0.00  0.00    -0.003 C 
HETATM   13  C   UNK N   1      34.203  21.147  -4.128  0.00  0.00     0.001 C 
BRANCH  13  14
HETATM   14  C   UNK N   1      33.543  21.163  -5.486  0.00  0.00     0.299 C 
BRANCH  14  15
HETATM   15  N   UNK N   1      33.058  19.854  -5.903  0.00  0.00     0.090 N 
HETATM   16  C   UNK N   1      34.188  19.079  -6.400  0.00  0.00     0.310 C 
BRANCH  15  17
HETATM   17  C   UNK N   1      32.016  19.969  -6.927  0.00  0.00     0.299 C 
BRANCH  17  18
HETATM   18  C   UNK N   1      30.645  20.188  -6.355  0.00  0.00    -0.007 C 
HETATM   19  C   UNK N   1      29.586  20.187  -7.156  0.00  0.00     0.008 C 
ENDBRANCH  17  18
ENDBRANCH  15  17
ENDBRANCH  14  15
ENDBRANCH  13  14
ENDBRANCH  11  12
ENDBRANCH  10  11
ENDBRANCH   1  10
BRANCH   7  20
HETATM   20  C   UNK N   1      26.651  24.730  -6.106  0.00  0.00    -0.023 A 
HETATM   21  C   UNK N   1      26.642  26.065  -6.534  0.00  0.00     0.013 A 
HETATM   22  C   UNK N   1      26.183  26.386  -7.818  0.00  0.00     0.020 A 
HETATM   23  C   UNK N   1      25.735  25.374  -8.677  0.00  0.00     0.011 A 
HETATM   24 Br   UNK N   1      25.092  25.800 -10.417  0.00  0.00    -0.051 Br
HETATM   25  C   UNK N   1      25.752  24.046  -8.258  0.00  0.00     0.020 A 
HETATM   26  C   UNK N   1      26.203  23.728  -6.979  0.00  0.00     0.013 A 
ENDBRANCH   7  20
TORSDOF 8
ENDMDL
MODEL 9
REMARK VINA RESULT:      -6.4     17.667     20.929
REMARK  8 active torsions:
REMARK  status: ('A' for Active; 'I' for Inactive)
REMARK    1  A    between atoms: N_2  and  C_3 
REMARK    2  A    between atoms: N_2  and  C_6 
REMARK    3  A    between atoms: C_3  and  C_4 
REMARK    4  A    between atoms: C_6  and  C_7 
REMARK    5  A    between atoms: C_8  and  C_9 
REMARK    6  A    between atoms: C_9  and  O_10 
REMARK    7  A    between atoms: O_10  and  C_11 
REMARK    8  A    between atoms: C_17  and  C_20 
ROOT
HETATM    1  C   UNK N   1      27.022  21.890  -7.980  0.00  0.00     0.071 A 
HETATM    2  C   UNK N   1      26.415  22.622  -9.026  0.00  0.00     0.074 A 
HETATM    3  C   UNK N   1      26.132  23.963  -8.798  0.00  0.00     0.088 A 
HETATM    4  C   UNK N   1      26.405  24.566  -7.608  0.00  0.00     0.011 A 
HETATM    5  C   UNK N   1      26.977  23.870  -6.546  0.00  0.00     0.018 A 
HETATM    6  C   UNK N   1      27.290  22.523  -6.741  0.00  0.00     0.038 A 
HETATM    7  C   UNK N   1      26.049  25.884  -7.732  0.00  0.00     0.009 A 
HETATM    8  C   UNK N   1      25.557  26.022  -9.034  0.00  0.00     0.155 A 
HETATM    9  O   UNK N   1      25.622  24.844  -9.635  0.00  0.00    -0.321 OA
ENDROOT
BRANCH   1  10
HETATM   10  O   UNK N   1      27.372  20.604  -8.188  0.00  0.00    -0.347 OA
BRANCH  10  11
HETATM   11  C   UNK N   1      28.637  20.223  -8.592  0.00  0.00     0.203 C 
BRANCH  11  12
HETATM   12  C   UNK N   1      29.354  19.412  -7.553  0.00  0.00    -0.003 C 
HETATM   13  C   UNK N   1      30.266  19.888  -6.688  0.00  0.00     0.001 C 
BRANCH  13  14
HETATM   14  C   UNK N   1      30.804  21.298  -6.635  0.00  0.00     0.299 C 
BRANCH  14  15
HETATM   15  N   UNK N   1      31.657  21.543  -5.479  0.00  0.00     0.090 N 
HETATM   16  C   UNK N   1      31.727  20.320  -4.689  0.00  0.00     0.310 C 
BRANCH  15  17
HETATM   17  C   UNK N   1      31.156  22.657  -4.669  0.00  0.00     0.299 C 
BRANCH  17  18
HETATM   18  C   UNK N   1      30.063  22.255  -3.721  0.00  0.00    -0.007 C 
HETATM   19  C   UNK N   1      29.316  23.187  -3.140  0.00  0.00     0.008 C 
ENDBRANCH  17  18
ENDBRANCH  15  17
ENDBRANCH  14  15
ENDBRANCH  13  14
ENDBRANCH  11  12
ENDBRANCH  10  11
ENDBRANCH   1  10
BRANCH   7  20
HETATM   20  C   UNK N   1      26.206  26.937  -6.708  0.00  0.00    -0.023 A 
HETATM   21  C   UNK N   1      27.285  27.831  -6.750  0.00  0.00     0.013 A 
HETATM   22  C   UNK N   1      27.439  28.792  -5.744  0.00  0.00     0.020 A 
HETATM   23  C   UNK N   1      26.514  28.866  -4.696  0.00  0.00     0.011 A 
HETATM   24 Br   UNK N   1      26.723  30.157  -3.313  0.00  0.00    -0.051 Br
HETATM   25  C   UNK N   1      25.434  27.986  -4.656  0.00  0.00     0.020 A 
HETATM   26  C   UNK N   1      25.284  27.026  -5.654  0.00  0.00     0.013 A 
ENDBRANCH   7  20
TORSDOF 8
ENDMDL
