REMARK  6 active torsions:
REMARK  status: ('A' for Active; 'I' for Inactive)
REMARK    1  A    between atoms: C_7  and  C_5 
REMARK    2  A    between atoms: C_8  and  C_5 
REMARK    3  A    between atoms: C_11  and  C_8 
REMARK    4  A    between atoms: C_8  and  N_12 
REMARK    5  A    between atoms: O_14  and  C_10 
REMARK    6  A    between atoms: O_16  and  C_11 
ROOT
HETATM    1  C   UNK N   1       4.617   1.854  -0.336  0.00  0.00     0.001 A 
HETATM    2  C   UNK N   1       4.563   3.223   0.005  0.00  0.00     0.002 A 
HETATM    3  C   UNK N   1       3.433   1.107  -0.469  0.00  0.00     0.014 A 
HETATM    4  C   UNK N   1       3.324   3.856   0.216  0.00  0.00     0.030 A 
HETATM    5  C   UNK N   1       2.221   1.755  -0.245  0.00  0.00     0.001 A 
HETATM    6  C   UNK N   1       0.919   1.304  -0.292  0.00  0.00     0.008 A 
HETATM    7  C   UNK N   1       2.170   3.088   0.083  0.00  0.00     0.045 A 
HETATM    8  C   UNK N   1       0.136   2.412   0.008  0.00  0.00     0.147 A 
HETATM    9  N   UNK N   1       0.901   3.506   0.240  0.00  0.00    -0.336 N 
HETATM   10  H   UNK N   1       0.594   4.411   0.473  0.00  0.00     0.168 HD
ENDROOT
BRANCH   6  11
HETATM   11  C   UNK N   1       0.411  -0.075  -0.625  0.00  0.00     0.079 C 
BRANCH  11  12
HETATM   12  C   UNK N   1       0.896  -1.185   0.316  0.00  0.00     0.177 C 
BRANCH  12  13
HETATM   13  C   UNK N   1       0.117  -2.444   0.043  0.00  0.00     0.163 C 
HETATM   14  O   UNK N   1       0.682  -3.460  -0.334  0.00  0.00    -0.648 OA
BRANCH  13  15
HETATM   15  O   UNK N   1      -1.217  -2.457   0.224  0.00  0.00    -0.775 OA
HETATM   16  H   UNK N   1      -1.690  -1.658   0.350  0.00  0.00     0.167 HD
ENDBRANCH  13  15
ENDBRANCH  12  13
BRANCH  12  17
HETATM   17  N   UNK N   1       2.315  -1.434   0.111  0.00  0.00    -0.417 N 
HETATM   18  H   UNK N   1       2.661  -2.383  -0.032  0.00  0.00     0.150 HD
HETATM   19  H   UNK N   1       2.970  -0.652   0.111  0.00  0.00     0.150 HD
ENDBRANCH  12  17
ENDBRANCH  11  12
ENDBRANCH   6  11
BRANCH   8  20
HETATM   20  O   UNK N   1      -1.205   2.426   0.057  0.00  0.00    -0.346 OA
HETATM   21  H   UNK N   1      -1.665   3.242   0.092  0.00  0.00     0.219 HD
ENDBRANCH   8  20
TORSDOF 6
