REMARK  6 active torsions:
REMARK  status: ('A' for Active; 'I' for Inactive)
REMARK    1  A    between atoms: C_4  and  C_2 
REMARK    2  A    between atoms: O_11  and  C_2 
REMARK    3  A    between atoms: O_12  and  C_3 
REMARK    4  A    between atoms: C_5  and  N_9 
REMARK    5  A    between atoms: C_6  and  O_13 
REMARK    6  A    between atoms: C_8  and  O_15 
ROOT
HETATM    1  C   UNK N   1       2.057   0.968  -0.050  0.00  0.00     0.179 C 
HETATM    2  C   UNK N   1      -0.439  -0.367   0.528  0.00  0.00     0.169 C 
HETATM    3  C   UNK N   1       0.788   1.811   0.203  0.00  0.00     0.180 C 
HETATM    4  C   UNK N   1      -0.449   0.994  -0.198  0.00  0.00     0.177 C 
HETATM    5  C   UNK N   1       0.938  -1.057   0.302  0.00  0.00     0.282 C 
HETATM    6  O   UNK N   1      -0.460   0.795  -1.583  0.00  0.00    -0.391 OA
HETATM    7  O   UNK N   1       1.996  -0.215   0.725  0.00  0.00    -0.349 OA
HETATM    8  H   UNK N   1      -0.583   0.732  -2.543  0.00  0.00     0.210 HD
ENDROOT
BRANCH   2   9
HETATM    9  N   UNK N   1      -1.633  -1.117   0.134  0.00  0.00    -0.363 N 
HETATM   10  C   UNK N   1      -1.741  -2.298  -0.404  0.00  0.00     0.107 C 
HETATM   11  C   UNK N   1      -3.096  -2.820  -0.722  0.00  0.00     0.097 C 
ATOM     12  HN  UNK N   1      -2.518  -0.640   0.308  1.00  0.00     0.162 HD
BRANCH  10  13
HETATM   13  O   UNK N   1      -0.673  -3.062  -0.684  0.00  0.00    -0.350 OA
HETATM   14  H   UNK N   1      -0.761  -3.974  -0.880  0.00  0.00     0.219 HD
ENDBRANCH  10  13
ENDBRANCH   2   9
BRANCH   3  15
HETATM   15  O   UNK N   1       0.820   3.005  -0.524  0.00  0.00    -0.390 OA
HETATM   16  H   UNK N   1       1.548   3.400  -1.028  0.00  0.00     0.210 HD
ENDBRANCH   3  15
BRANCH   5  17
HETATM   17  O   UNK N   1       1.003  -2.219   1.074  0.00  0.00    -0.369 OA
HETATM   18  H   UNK N   1       0.327  -2.662   1.609  0.00  0.00     0.212 HD
ENDBRANCH   5  17
BRANCH   1  19
HETATM   19  C   UNK N   1       3.319   1.718   0.376  0.00  0.00     0.198 C 
BRANCH  19  20
HETATM   20  O   UNK N   1       3.565   2.811  -0.456  0.00  0.00    -0.398 OA
HETATM   21  H   UNK N   1       4.308   3.043  -1.034  0.00  0.00     0.209 HD
ENDBRANCH  19  20
ENDBRANCH   1  19
TORSDOF 6
