MODEL 1
REMARK VINA RESULT:      -4.8      0.000      0.000
REMARK  10 active torsions:
REMARK  status: ('A' for Active; 'I' for Inactive)
REMARK    1  A    between atoms: C_4  and  C_2 
REMARK    2  A    between atoms: C_5  and  C_3 
REMARK    3  A    between atoms: C_6  and  C_3 
REMARK    4  A    between atoms: C_8  and  C_4 
REMARK    5  A    between atoms: C_7  and  C_5 
REMARK    6  A    between atoms: N_13  and  C_6 
REMARK    7  A    between atoms: C_9  and  C_7 
REMARK    8  A    between atoms: C_7  and  N_10 
REMARK    9  A    between atoms: N_13  and  C_8 
REMARK   10  A    between atoms: O_15  and  C_9 
ROOT
HETATM    1  C   UNK N   1      35.189  13.022  11.512  0.00  0.00     0.022 C 
ENDROOT
BRANCH   1   2
HETATM    2  C   UNK N   1      35.560  13.782  10.240  0.00  0.00     0.045 C 
BRANCH   2   3
HETATM    3  C   UNK N   1      34.834  15.122  10.088  0.00  0.00     0.280 C 
BRANCH   3   4
HETATM    4  C   UNK N   1      35.729  16.275  10.451  0.00  0.00     0.171 C 
HETATM    5  O   UNK N   1      35.341  17.418  10.279  0.00  0.00    -0.648 OA
BRANCH   4   6
HETATM    6  O   UNK N   1      36.956  16.062  10.968  0.00  0.00    -0.775 OA
HETATM    7  H   UNK N   1      37.627  15.446  10.747  0.00  0.00     0.167 HD
ENDBRANCH   4   6
ENDBRANCH   3   4
BRANCH   3   8
HETATM    8  N   UNK N   1      33.658  15.148  10.944  0.00  0.00    -0.065 N 
HETATM    9  H   UNK N   1      33.080  14.328  11.126  0.00  0.00     0.275 HD
HETATM   10  H   UNK N   1      33.398  16.030  11.384  0.00  0.00     0.275 HD
HETATM   11  H   UNK N   1      32.840  15.209  11.552  0.00  0.00     0.275 HD
ENDBRANCH   3   8
ENDBRANCH   2   3
ENDBRANCH   1   2
BRANCH   1  12
HETATM   12  C   UNK N   1      36.316  13.031  12.533  0.00  0.00     0.121 C 
BRANCH  12  13
HETATM   13  N   UNK N   1      36.155  14.153  13.420  0.00  0.00    -0.380 N 
HETATM   14  H   UNK N   1      35.680  14.954  13.099  0.00  0.00     0.160 HD
BRANCH  13  15
HETATM   15  C   UNK N   1      36.662  14.136  14.747  0.00  0.00     0.070 C 
HETATM   16  N   UNK N   1      37.360  15.116  15.193  0.00  0.00    -0.389 N 
HETATM   17  H   UNK N   1      37.748  15.078  16.097  0.00  0.00     0.157 HD
ATOM     18  HN  UNK N   1      37.513  15.938  14.609  1.00  0.00     0.157 HD
BRANCH  15  19
HETATM   19  C   UNK N   1      36.375  12.972  15.630  0.00  0.00     0.075 C 
BRANCH  19  20
HETATM   20  C   UNK N   1      34.989  13.121  16.228  0.00  0.00     0.003 C 
HETATM   21  C   UNK N   1      35.104  13.438  17.703  0.00  0.00     0.005 C 
ENDBRANCH  19  20
ENDBRANCH  15  19
ENDBRANCH  13  15
ENDBRANCH  12  13
ENDBRANCH   1  12
TORSDOF 10
ENDMDL
MODEL 2
REMARK VINA RESULT:      -4.6     14.876     17.381
REMARK  10 active torsions:
REMARK  status: ('A' for Active; 'I' for Inactive)
REMARK    1  A    between atoms: C_4  and  C_2 
REMARK    2  A    between atoms: C_5  and  C_3 
REMARK    3  A    between atoms: C_6  and  C_3 
REMARK    4  A    between atoms: C_8  and  C_4 
REMARK    5  A    between atoms: C_7  and  C_5 
REMARK    6  A    between atoms: N_13  and  C_6 
REMARK    7  A    between atoms: C_9  and  C_7 
REMARK    8  A    between atoms: C_7  and  N_10 
REMARK    9  A    between atoms: N_13  and  C_8 
REMARK   10  A    between atoms: O_15  and  C_9 
ROOT
HETATM    1  C   UNK N   1      21.224  18.908   4.456  0.00  0.00     0.022 C 
ENDROOT
BRANCH   1   2
HETATM    2  C   UNK N   1      20.262  19.387   3.371  0.00  0.00     0.045 C 
BRANCH   2   3
HETATM    3  C   UNK N   1      20.762  19.131   1.946  0.00  0.00     0.280 C 
BRANCH   3   4
HETATM    4  C   UNK N   1      20.927  20.416   1.183  0.00  0.00     0.171 C 
HETATM    5  O   UNK N   1      21.374  21.400   1.748  0.00  0.00    -0.648 OA
BRANCH   4   6
HETATM    6  O   UNK N   1      20.592  20.495  -0.121  0.00  0.00    -0.775 OA
HETATM    7  H   UNK N   1      20.390  19.832  -0.753  0.00  0.00     0.167 HD
ENDBRANCH   4   6
ENDBRANCH   3   4
BRANCH   3   8
HETATM    8  N   UNK N   1      19.821  18.277   1.238  0.00  0.00    -0.065 N 
HETATM    9  H   UNK N   1      19.515  17.369   1.588  0.00  0.00     0.275 HD
HETATM   10  H   UNK N   1      19.448  18.602   0.346  0.00  0.00     0.275 HD
HETATM   11  H   UNK N   1      19.158  17.708   0.709  0.00  0.00     0.275 HD
ENDBRANCH   3   8
ENDBRANCH   2   3
ENDBRANCH   1   2
BRANCH   1  12
HETATM   12  C   UNK N   1      22.451  18.226   3.871  0.00  0.00     0.121 C 
BRANCH  12  13
HETATM   13  N   UNK N   1      23.642  18.821   4.416  0.00  0.00    -0.380 N 
HETATM   14  H   UNK N   1      23.863  18.671   5.364  0.00  0.00     0.160 HD
BRANCH  13  15
HETATM   15  C   UNK N   1      24.508  19.621   3.624  0.00  0.00     0.070 C 
HETATM   16  N   UNK N   1      24.053  20.625   2.966  0.00  0.00    -0.389 N 
HETATM   17  H   UNK N   1      24.649  21.147   2.381  0.00  0.00     0.157 HD
ATOM     18  HN  UNK N   1      23.070  20.883   3.049  1.00  0.00     0.157 HD
BRANCH  15  19
HETATM   19  C   UNK N   1      25.960  19.295   3.561  0.00  0.00     0.075 C 
BRANCH  19  20
HETATM   20  C   UNK N   1      26.768  20.509   3.975  0.00  0.00     0.003 C 
HETATM   21  C   UNK N   1      26.931  20.521   5.479  0.00  0.00     0.005 C 
ENDBRANCH  19  20
ENDBRANCH  15  19
ENDBRANCH  13  15
ENDBRANCH  12  13
ENDBRANCH   1  12
TORSDOF 10
ENDMDL
MODEL 3
REMARK VINA RESULT:      -4.6      1.940      2.533
REMARK  10 active torsions:
REMARK  status: ('A' for Active; 'I' for Inactive)
REMARK    1  A    between atoms: C_4  and  C_2 
REMARK    2  A    between atoms: C_5  and  C_3 
REMARK    3  A    between atoms: C_6  and  C_3 
REMARK    4  A    between atoms: C_8  and  C_4 
REMARK    5  A    between atoms: C_7  and  C_5 
REMARK    6  A    between atoms: N_13  and  C_6 
REMARK    7  A    between atoms: C_9  and  C_7 
REMARK    8  A    between atoms: C_7  and  N_10 
REMARK    9  A    between atoms: N_13  and  C_8 
REMARK   10  A    between atoms: O_15  and  C_9 
ROOT
HETATM    1  C   UNK N   1      36.060  15.694  10.645  0.00  0.00     0.022 C 
ENDROOT
BRANCH   1   2
HETATM    2  C   UNK N   1      35.285  16.976  10.349  0.00  0.00     0.045 C 
BRANCH   2   3
HETATM    3  C   UNK N   1      34.460  16.914   9.060  0.00  0.00     0.280 C 
BRANCH   3   4
HETATM    4  C   UNK N   1      34.735  18.097   8.175  0.00  0.00     0.171 C 
HETATM    5  O   UNK N   1      34.420  18.057   6.997  0.00  0.00    -0.648 OA
BRANCH   4   6
HETATM    6  O   UNK N   1      35.323  19.207   8.666  0.00  0.00    -0.775 OA
HETATM    7  H   UNK N   1      35.125  20.117   8.557  0.00  0.00     0.167 HD
ENDBRANCH   4   6
ENDBRANCH   3   4
BRANCH   3   8
HETATM    8  N   UNK N   1      33.041  16.882   9.382  0.00  0.00    -0.065 N 
HETATM    9  H   UNK N   1      32.669  16.454  10.229  0.00  0.00     0.275 HD
HETATM   10  H   UNK N   1      32.387  17.310   8.728  0.00  0.00     0.275 HD
HETATM   11  H   UNK N   1      32.038  16.882   9.570  0.00  0.00     0.275 HD
ENDBRANCH   3   8
ENDBRANCH   2   3
ENDBRANCH   1   2
BRANCH   1  12
HETATM   12  C   UNK N   1      35.552  14.996  11.898  0.00  0.00     0.121 C 
BRANCH  12  13
HETATM   13  N   UNK N   1      36.655  14.728  12.782  0.00  0.00    -0.380 N 
HETATM   14  H   UNK N   1      37.576  14.828  12.445  0.00  0.00     0.160 HD
BRANCH  13  15
HETATM   15  C   UNK N   1      36.453  14.323  14.129  0.00  0.00     0.070 C 
HETATM   16  N   UNK N   1      37.131  14.855  15.080  0.00  0.00    -0.389 N 
HETATM   17  H   UNK N   1      37.020  14.537  16.006  0.00  0.00     0.157 HD
ATOM     18  HN  UNK N   1      37.786  15.609  14.877  1.00  0.00     0.157 HD
BRANCH  15  19
HETATM   19  C   UNK N   1      35.441  13.276  14.439  0.00  0.00     0.075 C 
BRANCH  19  20
HETATM   20  C   UNK N   1      35.788  12.615  15.759  0.00  0.00     0.003 C 
HETATM   21  C   UNK N   1      36.565  11.342  15.500  0.00  0.00     0.005 C 
ENDBRANCH  19  20
ENDBRANCH  15  19
ENDBRANCH  13  15
ENDBRANCH  12  13
ENDBRANCH   1  12
TORSDOF 10
ENDMDL
MODEL 4
REMARK VINA RESULT:      -4.5      5.563      8.148
REMARK  10 active torsions:
REMARK  status: ('A' for Active; 'I' for Inactive)
REMARK    1  A    between atoms: C_4  and  C_2 
REMARK    2  A    between atoms: C_5  and  C_3 
REMARK    3  A    between atoms: C_6  and  C_3 
REMARK    4  A    between atoms: C_8  and  C_4 
REMARK    5  A    between atoms: C_7  and  C_5 
REMARK    6  A    between atoms: N_13  and  C_6 
REMARK    7  A    between atoms: C_9  and  C_7 
REMARK    8  A    between atoms: C_7  and  N_10 
REMARK    9  A    between atoms: N_13  and  C_8 
REMARK   10  A    between atoms: O_15  and  C_9 
ROOT
HETATM    1  C   UNK N   1      32.611  15.303   8.132  0.00  0.00     0.022 C 
ENDROOT
BRANCH   1   2
HETATM    2  C   UNK N   1      34.017  15.854   8.355  0.00  0.00     0.045 C 
BRANCH   2   3
HETATM    3  C   UNK N   1      34.041  17.227   9.034  0.00  0.00     0.280 C 
BRANCH   3   4
HETATM    4  C   UNK N   1      34.599  18.282   8.118  0.00  0.00     0.171 C 
HETATM    5  O   UNK N   1      34.384  18.216   6.920  0.00  0.00    -0.648 OA
BRANCH   4   6
HETATM    6  O   UNK N   1      35.331  19.304   8.606  0.00  0.00    -0.775 OA
HETATM    7  H   UNK N   1      36.156  19.322   9.050  0.00  0.00     0.167 HD
ENDBRANCH   4   6
ENDBRANCH   3   4
BRANCH   3   8
HETATM    8  N   UNK N   1      34.853  17.169  10.240  0.00  0.00    -0.065 N 
HETATM    9  H   UNK N   1      35.337  17.977  10.629  0.00  0.00     0.275 HD
HETATM   10  H   UNK N   1      34.943  16.274  10.720  0.00  0.00     0.275 HD
HETATM   11  H   UNK N   1      35.413  17.084  11.089  0.00  0.00     0.275 HD
ENDBRANCH   3   8
ENDBRANCH   2   3
ENDBRANCH   1   2
BRANCH   1  12
HETATM   12  C   UNK N   1      31.557  16.399   8.155  0.00  0.00     0.121 C 
BRANCH  12  13
HETATM   13  N   UNK N   1      31.415  16.959   6.837  0.00  0.00    -0.380 N 
HETATM   14  H   UNK N   1      32.223  17.174   6.317  0.00  0.00     0.160 HD
BRANCH  13  15
HETATM   15  C   UNK N   1      30.139  17.211   6.265  0.00  0.00     0.070 C 
HETATM   16  N   UNK N   1      30.035  17.633   5.057  0.00  0.00    -0.389 N 
HETATM   17  H   UNK N   1      29.151  17.850   4.682  0.00  0.00     0.157 HD
ATOM     18  HN  UNK N   1      30.872  17.743   4.484  1.00  0.00     0.157 HD
BRANCH  15  19
HETATM   19  C   UNK N   1      28.910  16.977   7.073  0.00  0.00     0.075 C 
BRANCH  19  20
HETATM   20  C   UNK N   1      28.467  18.282   7.707  0.00  0.00     0.003 C 
HETATM   21  C   UNK N   1      28.234  18.072   9.187  0.00  0.00     0.005 C 
ENDBRANCH  19  20
ENDBRANCH  15  19
ENDBRANCH  13  15
ENDBRANCH  12  13
ENDBRANCH   1  12
TORSDOF 10
ENDMDL
MODEL 5
REMARK VINA RESULT:      -4.5      6.980     10.370
REMARK  10 active torsions:
REMARK  status: ('A' for Active; 'I' for Inactive)
REMARK    1  A    between atoms: C_4  and  C_2 
REMARK    2  A    between atoms: C_5  and  C_3 
REMARK    3  A    between atoms: C_6  and  C_3 
REMARK    4  A    between atoms: C_8  and  C_4 
REMARK    5  A    between atoms: C_7  and  C_5 
REMARK    6  A    between atoms: N_13  and  C_6 
REMARK    7  A    between atoms: C_9  and  C_7 
REMARK    8  A    between atoms: C_7  and  N_10 
REMARK    9  A    between atoms: N_13  and  C_8 
REMARK   10  A    between atoms: O_15  and  C_9 
ROOT
HETATM    1  C   UNK N   1      30.479  17.548   7.676  0.00  0.00     0.022 C 
ENDROOT
BRANCH   1   2
HETATM    2  C   UNK N   1      31.944  17.282   7.336  0.00  0.00     0.045 C 
BRANCH   2   3
HETATM    3  C   UNK N   1      32.926  17.800   8.391  0.00  0.00     0.280 C 
BRANCH   3   4
HETATM    4  C   UNK N   1      34.211  18.265   7.764  0.00  0.00     0.171 C 
HETATM    5  O   UNK N   1      34.514  17.876   6.649  0.00  0.00    -0.648 OA
BRANCH   4   6
HETATM    6  O   UNK N   1      35.032  19.113   8.417  0.00  0.00    -0.775 OA
HETATM    7  H   UNK N   1      35.957  19.255   8.354  0.00  0.00     0.167 HD
ENDBRANCH   4   6
ENDBRANCH   3   4
BRANCH   3   8
HETATM    8  N   UNK N   1      33.221  16.747   9.351  0.00  0.00    -0.065 N 
HETATM    9  H   UNK N   1      33.746  15.905   9.115  0.00  0.00     0.275 HD
HETATM   10  H   UNK N   1      32.886  16.856  10.308  0.00  0.00     0.275 HD
HETATM   11  H   UNK N   1      33.407  16.031  10.055  0.00  0.00     0.275 HD
ENDBRANCH   3   8
ENDBRANCH   2   3
ENDBRANCH   1   2
BRANCH   1  12
HETATM   12  C   UNK N   1      29.535  16.942   6.649  0.00  0.00     0.121 C 
BRANCH  12  13
HETATM   13  N   UNK N   1      28.226  17.523   6.795  0.00  0.00    -0.380 N 
HETATM   14  H   UNK N   1      27.507  16.989   7.205  0.00  0.00     0.160 HD
BRANCH  13  15
HETATM   15  C   UNK N   1      27.943  18.846   6.363  0.00  0.00     0.070 C 
HETATM   16  N   UNK N   1      27.356  19.678   7.145  0.00  0.00    -0.389 N 
HETATM   17  H   UNK N   1      27.120  20.579   6.825  0.00  0.00     0.157 HD
ATOM     18  HN  UNK N   1      27.134  19.405   8.103  1.00  0.00     0.157 HD
BRANCH  15  19
HETATM   19  C   UNK N   1      28.335  19.274   4.992  0.00  0.00     0.075 C 
BRANCH  19  20
HETATM   20  C   UNK N   1      27.212  18.958   4.024  0.00  0.00     0.003 C 
HETATM   21  C   UNK N   1      26.564  20.245   3.561  0.00  0.00     0.005 C 
ENDBRANCH  19  20
ENDBRANCH  15  19
ENDBRANCH  13  15
ENDBRANCH  12  13
ENDBRANCH   1  12
TORSDOF 10
ENDMDL
MODEL 6
REMARK VINA RESULT:      -4.3      2.981      4.484
REMARK  10 active torsions:
REMARK  status: ('A' for Active; 'I' for Inactive)
REMARK    1  A    between atoms: C_4  and  C_2 
REMARK    2  A    between atoms: C_5  and  C_3 
REMARK    3  A    between atoms: C_6  and  C_3 
REMARK    4  A    between atoms: C_8  and  C_4 
REMARK    5  A    between atoms: C_7  and  C_5 
REMARK    6  A    between atoms: N_13  and  C_6 
REMARK    7  A    between atoms: C_9  and  C_7 
REMARK    8  A    between atoms: C_7  and  N_10 
REMARK    9  A    between atoms: N_13  and  C_8 
REMARK   10  A    between atoms: O_15  and  C_9 
ROOT
HETATM    1  C   UNK N   1      32.706  15.022   8.647  0.00  0.00     0.022 C 
ENDROOT
BRANCH   1   2
HETATM    2  C   UNK N   1      32.426  15.844   7.391  0.00  0.00     0.045 C 
BRANCH   2   3
HETATM    3  C   UNK N   1      32.360  17.354   7.644  0.00  0.00     0.280 C 
BRANCH   3   4
HETATM    4  C   UNK N   1      33.705  18.000   7.456  0.00  0.00     0.171 C 
HETATM    5  O   UNK N   1      34.202  18.637   8.370  0.00  0.00    -0.648 OA
BRANCH   4   6
HETATM    6  O   UNK N   1      34.373  17.881   6.291  0.00  0.00    -0.775 OA
HETATM    7  H   UNK N   1      34.829  17.158   5.906  0.00  0.00     0.167 HD
ENDBRANCH   4   6
ENDBRANCH   3   4
BRANCH   3   8
HETATM    8  N   UNK N   1      31.896  17.609   8.999  0.00  0.00    -0.065 N 
HETATM    9  H   UNK N   1      30.911  17.635   9.258  0.00  0.00     0.275 HD
HETATM   10  H   UNK N   1      32.592  17.770   9.727  0.00  0.00     0.275 HD
HETATM   11  H   UNK N   1      31.613  17.792   9.962  0.00  0.00     0.275 HD
ENDBRANCH   3   8
ENDBRANCH   2   3
ENDBRANCH   1   2
BRANCH   1  12
HETATM   12  C   UNK N   1      34.077  14.366   8.607  0.00  0.00     0.121 C 
BRANCH  12  13
HETATM   13  N   UNK N   1      35.059  15.266   9.152  0.00  0.00    -0.380 N 
HETATM   14  H   UNK N   1      35.814  15.551   8.588  0.00  0.00     0.160 HD
BRANCH  13  15
HETATM   15  C   UNK N   1      34.969  15.755  10.483  0.00  0.00     0.070 C 
HETATM   16  N   UNK N   1      35.001  17.015  10.721  0.00  0.00    -0.389 N 
HETATM   17  H   UNK N   1      34.986  17.346  11.648  0.00  0.00     0.157 HD
ATOM     18  HN  UNK N   1      35.042  17.678   9.946  1.00  0.00     0.157 HD
BRANCH  15  19
HETATM   19  C   UNK N   1      34.831  14.795  11.613  0.00  0.00     0.075 C 
BRANCH  19  20
HETATM   20  C   UNK N   1      36.207  14.366  12.083  0.00  0.00     0.003 C 
HETATM   21  C   UNK N   1      36.213  14.242  13.590  0.00  0.00     0.005 C 
ENDBRANCH  19  20
ENDBRANCH  15  19
ENDBRANCH  13  15
ENDBRANCH  12  13
ENDBRANCH   1  12
TORSDOF 10
ENDMDL
MODEL 7
REMARK VINA RESULT:      -4.3      6.186      8.953
REMARK  10 active torsions:
REMARK  status: ('A' for Active; 'I' for Inactive)
REMARK    1  A    between atoms: C_4  and  C_2 
REMARK    2  A    between atoms: C_5  and  C_3 
REMARK    3  A    between atoms: C_6  and  C_3 
REMARK    4  A    between atoms: C_8  and  C_4 
REMARK    5  A    between atoms: C_7  and  C_5 
REMARK    6  A    between atoms: N_13  and  C_6 
REMARK    7  A    between atoms: C_9  and  C_7 
REMARK    8  A    between atoms: C_7  and  N_10 
REMARK    9  A    between atoms: N_13  and  C_8 
REMARK   10  A    between atoms: O_15  and  C_9 
ROOT
HETATM    1  C   UNK N   1      31.139  17.039   7.517  0.00  0.00     0.022 C 
ENDROOT
BRANCH   1   2
HETATM    2  C   UNK N   1      32.556  16.583   7.856  0.00  0.00     0.045 C 
BRANCH   2   3
HETATM    3  C   UNK N   1      33.342  17.590   8.702  0.00  0.00     0.280 C 
BRANCH   3   4
HETATM    4  C   UNK N   1      34.419  18.262   7.896  0.00  0.00     0.171 C 
HETATM    5  O   UNK N   1      35.170  19.057   8.435  0.00  0.00    -0.648 OA
BRANCH   4   6
HETATM    6  O   UNK N   1      34.569  17.993   6.583  0.00  0.00    -0.775 OA
HETATM    7  H   UNK N   1      34.632  17.182   6.116  0.00  0.00     0.167 HD
ENDBRANCH   4   6
ENDBRANCH   3   4
BRANCH   3   8
HETATM    8  N   UNK N   1      33.951  16.914   9.837  0.00  0.00    -0.065 N 
HETATM    9  H   UNK N   1      34.908  16.563   9.833  0.00  0.00     0.275 HD
HETATM   10  H   UNK N   1      33.392  16.784  10.680  0.00  0.00     0.275 HD
HETATM   11  H   UNK N   1      34.340  16.445  10.656  0.00  0.00     0.275 HD
ENDBRANCH   3   8
ENDBRANCH   2   3
ENDBRANCH   1   2
BRANCH   1  12
HETATM   12  C   UNK N   1      30.885  17.049   6.018  0.00  0.00     0.121 C 
BRANCH  12  13
HETATM   13  N   UNK N   1      32.140  17.086   5.315  0.00  0.00    -0.380 N 
HETATM   14  H   UNK N   1      32.947  17.389   5.791  0.00  0.00     0.160 HD
BRANCH  13  15
HETATM   15  C   UNK N   1      32.247  16.698   3.953  0.00  0.00     0.070 C 
HETATM   16  N   UNK N   1      31.766  17.439   3.022  0.00  0.00    -0.389 N 
HETATM   17  H   UNK N   1      31.802  17.142   2.083  0.00  0.00     0.157 HD
ATOM     18  HN  UNK N   1      31.347  18.339   3.254  1.00  0.00     0.157 HD
BRANCH  15  19
HETATM   19  C   UNK N   1      32.928  15.421   3.602  0.00  0.00     0.075 C 
BRANCH  19  20
HETATM   20  C   UNK N   1      33.890  15.041   4.710  0.00  0.00     0.003 C 
HETATM   21  C   UNK N   1      34.937  14.091   4.170  0.00  0.00     0.005 C 
ENDBRANCH  19  20
ENDBRANCH  15  19
ENDBRANCH  13  15
ENDBRANCH  12  13
ENDBRANCH   1  12
TORSDOF 10
ENDMDL
MODEL 8
REMARK VINA RESULT:      -4.2      5.351      7.535
REMARK  10 active torsions:
REMARK  status: ('A' for Active; 'I' for Inactive)
REMARK    1  A    between atoms: C_4  and  C_2 
REMARK    2  A    between atoms: C_5  and  C_3 
REMARK    3  A    between atoms: C_6  and  C_3 
REMARK    4  A    between atoms: C_8  and  C_4 
REMARK    5  A    between atoms: C_7  and  C_5 
REMARK    6  A    between atoms: N_13  and  C_6 
REMARK    7  A    between atoms: C_9  and  C_7 
REMARK    8  A    between atoms: C_7  and  N_10 
REMARK    9  A    between atoms: N_13  and  C_8 
REMARK   10  A    between atoms: O_15  and  C_9 
ROOT
HETATM    1  C   UNK N   1      30.900  17.189   6.739  0.00  0.00     0.022 C 
ENDROOT
BRANCH   1   2
HETATM    2  C   UNK N   1      29.390  17.120   6.957  0.00  0.00     0.045 C 
BRANCH   2   3
HETATM    3  C   UNK N   1      28.784  18.421   7.494  0.00  0.00     0.280 C 
BRANCH   3   4
HETATM    4  C   UNK N   1      28.596  18.364   8.985  0.00  0.00     0.171 C 
HETATM    5  O   UNK N   1      29.532  18.621   9.722  0.00  0.00    -0.648 OA
BRANCH   4   6
HETATM    6  O   UNK N   1      27.401  18.036   9.519  0.00  0.00    -0.775 OA
HETATM    7  H   UNK N   1      26.909  18.415  10.222  0.00  0.00     0.167 HD
ENDBRANCH   4   6
ENDBRANCH   3   4
BRANCH   3   8
HETATM    8  N   UNK N   1      27.497  18.664   6.862  0.00  0.00    -0.065 N 
HETATM    9  H   UNK N   1      26.736  19.167   7.317  0.00  0.00     0.275 HD
HETATM   10  H   UNK N   1      27.347  18.313   5.916  0.00  0.00     0.275 HD
HETATM   11  H   UNK N   1      26.608  18.814   6.383  0.00  0.00     0.275 HD
ENDBRANCH   3   8
ENDBRANCH   2   3
ENDBRANCH   1   2
BRANCH   1  12
HETATM   12  C   UNK N   1      31.668  16.433   7.812  0.00  0.00     0.121 C 
BRANCH  12  13
HETATM   13  N   UNK N   1      32.320  17.368   8.690  0.00  0.00    -0.380 N 
HETATM   14  H   UNK N   1      31.784  18.068   9.129  0.00  0.00     0.160 HD
BRANCH  13  15
HETATM   15  C   UNK N   1      33.717  17.309   8.941  0.00  0.00     0.070 C 
HETATM   16  N   UNK N   1      34.495  18.245   8.535  0.00  0.00    -0.389 N 
HETATM   17  H   UNK N   1      35.468  18.176   8.671  0.00  0.00     0.157 HD
ATOM     18  HN  UNK N   1      34.104  19.065   8.071  1.00  0.00     0.157 HD
BRANCH  15  19
HETATM   19  C   UNK N   1      34.283  16.152   9.688  0.00  0.00     0.075 C 
BRANCH  19  20
HETATM   20  C   UNK N   1      35.381  16.637  10.615  0.00  0.00     0.003 C 
HETATM   21  C   UNK N   1      36.401  15.537  10.811  0.00  0.00     0.005 C 
ENDBRANCH  19  20
ENDBRANCH  15  19
ENDBRANCH  13  15
ENDBRANCH  12  13
ENDBRANCH   1  12
TORSDOF 10
ENDMDL
MODEL 9
REMARK VINA RESULT:      -4.2     16.564     17.703
REMARK  10 active torsions:
REMARK  status: ('A' for Active; 'I' for Inactive)
REMARK    1  A    between atoms: C_4  and  C_2 
REMARK    2  A    between atoms: C_5  and  C_3 
REMARK    3  A    between atoms: C_6  and  C_3 
REMARK    4  A    between atoms: C_8  and  C_4 
REMARK    5  A    between atoms: C_7  and  C_5 
REMARK    6  A    between atoms: N_13  and  C_6 
REMARK    7  A    between atoms: C_9  and  C_7 
REMARK    8  A    between atoms: C_7  and  N_10 
REMARK    9  A    between atoms: N_13  and  C_8 
REMARK   10  A    between atoms: O_15  and  C_9 
ROOT
HETATM    1  C   UNK N   1      22.207  18.679   4.202  0.00  0.00     0.022 C 
ENDROOT
BRANCH   1   2
HETATM    2  C   UNK N   1      20.996  19.509   3.781  0.00  0.00     0.045 C 
BRANCH   2   3
HETATM    3  C   UNK N   1      20.481  19.181   2.376  0.00  0.00     0.280 C 
BRANCH   3   4
HETATM    4  C   UNK N   1      20.855  20.254   1.391  0.00  0.00     0.171 C 
HETATM    5  O   UNK N   1      21.344  21.297   1.791  0.00  0.00    -0.648 OA
BRANCH   4   6
HETATM    6  O   UNK N   1      20.663  20.076   0.068  0.00  0.00    -0.775 OA
HETATM    7  H   UNK N   1      20.301  20.638  -0.589  0.00  0.00     0.167 HD
ENDBRANCH   4   6
ENDBRANCH   3   4
BRANCH   3   8
HETATM    8  N   UNK N   1      19.033  19.043   2.399  0.00  0.00    -0.065 N 
HETATM    9  H   UNK N   1      18.541  18.236   2.017  0.00  0.00     0.275 HD
HETATM   10  H   UNK N   1      18.482  19.791   2.819  0.00  0.00     0.275 HD
HETATM   11  H   UNK N   1      18.015  18.985   2.436  0.00  0.00     0.275 HD
ENDBRANCH   3   8
ENDBRANCH   2   3
ENDBRANCH   1   2
BRANCH   1  12
HETATM   12  C   UNK N   1      21.991  17.991   5.541  0.00  0.00     0.121 C 
BRANCH  12  13
HETATM   13  N   UNK N   1      20.751  17.261   5.515  0.00  0.00    -0.380 N 
HETATM   14  H   UNK N   1      20.060  17.512   4.859  0.00  0.00     0.160 HD
BRANCH  13  15
HETATM   15  C   UNK N   1      20.496  16.187   6.410  0.00  0.00     0.070 C 
HETATM   16  N   UNK N   1      19.865  15.142   6.014  0.00  0.00    -0.389 N 
HETATM   17  H   UNK N   1      19.651  14.421   6.651  0.00  0.00     0.157 HD
ATOM     18  HN  UNK N   1      19.586  15.056   5.037  1.00  0.00     0.157 HD
BRANCH  15  19
HETATM   19  C   UNK N   1      20.971  16.273   7.818  0.00  0.00     0.075 C 
BRANCH  19  20
HETATM   20  C   UNK N   1      19.779  16.403   8.746  0.00  0.00     0.003 C 
HETATM   21  C   UNK N   1      19.481  17.867   8.988  0.00  0.00     0.005 C 
ENDBRANCH  19  20
ENDBRANCH  15  19
ENDBRANCH  13  15
ENDBRANCH  12  13
ENDBRANCH   1  12
TORSDOF 10
ENDMDL
