REMARK  2 active torsions:
REMARK  status: ('A' for Active; 'I' for Inactive)
REMARK    1  A    between atoms: O_1  and  C_2 
REMARK    2  A    between atoms: C_5  and  C_6 
ROOT
HETATM    1  C   UNK N   1       0.830  -0.987   0.000  0.00  0.00     0.065 A 
HETATM    2  C   UNK N   1      -0.403  -0.330   0.000  0.00  0.00     0.037 A 
HETATM    3  C   UNK N   1      -0.448   1.067   0.000  0.00  0.00     0.017 A 
HETATM    4  C   UNK N   1       0.743   1.808  -0.000  0.00  0.00     0.002 A 
HETATM    5  C   UNK N   1       1.974   1.146  -0.000  0.00  0.00     0.017 A 
HETATM    6  C   UNK N   1       2.018  -0.251  -0.000  0.00  0.00     0.037 A 
ENDROOT
BRANCH   1   7
HETATM    7  O   UNK N   1       0.873  -2.329  -0.000  0.00  0.00    -0.361 OA
HETATM    8  H   UNK N   1       0.077  -2.824  -0.000  0.00  0.00     0.217 HD
ENDBRANCH   1   7
BRANCH   4   9
HETATM    9  C   UNK N   1       0.713   3.274  -0.000  0.00  0.00     0.269 C 
HETATM   10  O   UNK N   1      -0.347   3.878   0.000  0.00  0.00    -0.301 OA
ENDBRANCH   4   9
TORSDOF 2
