MODEL 1
REMARK VINA RESULT:      -3.4      0.000      0.000
REMARK  0 active torsions:
REMARK  status: ('A' for Active; 'I' for Inactive)
ROOT
HETATM    1  C   UNK N   1      19.205  18.734   9.762  0.00  0.00     0.198 A 
HETATM    2  C   UNK N   1      17.264  18.448  10.582  0.00  0.00     0.198 A 
HETATM    3  N   UNK N   1      18.125  17.934   9.684  0.00  0.00    -0.346 N 
ATOM      4  HN  UNK N   1      17.990  17.122   9.081  1.00  0.00     0.167 HD
HETATM    5  N   UNK N   1      19.007  19.701  10.676  0.00  0.00    -0.295 N 
HETATM    6  N   UNK N   1      17.802  19.523  11.184  0.00  0.00    -0.295 N 
ATOM      7  HN  UNK N   1      17.359  20.096  11.903  1.00  0.00     0.187 HD
HETATM    8  H   UNK N   1      19.644  20.411  10.920  0.00  0.00     0.187 HD
ENDROOT
TORSDOF 0
ENDMDL
MODEL 2
REMARK VINA RESULT:      -3.1      8.278      8.623
REMARK  0 active torsions:
REMARK  status: ('A' for Active; 'I' for Inactive)
ROOT
HETATM    1  C   UNK N   1      23.200  12.152  10.694  0.00  0.00     0.198 A 
HETATM    2  C   UNK N   1      23.333  11.924  12.804  0.00  0.00     0.198 A 
HETATM    3  N   UNK N   1      24.052  12.293  11.728  0.00  0.00    -0.346 N 
ATOM      4  HN  UNK N   1      25.022  12.608  11.700  1.00  0.00     0.167 HD
HETATM    5  N   UNK N   1      22.005  11.713  11.128  0.00  0.00    -0.295 N 
HETATM    6  N   UNK N   1      22.088  11.571  12.438  0.00  0.00    -0.295 N 
ATOM      7  HN  UNK N   1      21.345  11.253  13.059  1.00  0.00     0.187 HD
HETATM    8  H   UNK N   1      21.214  11.530  10.571  0.00  0.00     0.187 HD
ENDROOT
TORSDOF 0
ENDMDL
MODEL 3
REMARK VINA RESULT:      -3.0     25.803     26.107
REMARK  0 active torsions:
REMARK  status: ('A' for Active; 'I' for Inactive)
ROOT
HETATM    1  C   UNK N   1      42.550  22.250   2.698  0.00  0.00     0.198 A 
HETATM    2  C   UNK N   1      43.729  22.349   4.465  0.00  0.00     0.198 A 
HETATM    3  N   UNK N   1      43.097  21.478   3.655  0.00  0.00    -0.346 N 
ATOM      4  HN  UNK N   1      43.045  20.463   3.747  1.00  0.00     0.167 HD
HETATM    5  N   UNK N   1      42.839  23.545   2.918  0.00  0.00    -0.295 N 
HETATM    6  N   UNK N   1      43.571  23.605   4.015  0.00  0.00    -0.295 N 
ATOM      7  HN  UNK N   1      43.949  24.451   4.443  1.00  0.00     0.187 HD
HETATM    8  H   UNK N   1      42.557  24.307   2.362  0.00  0.00     0.187 HD
ENDROOT
TORSDOF 0
ENDMDL
MODEL 4
REMARK VINA RESULT:      -2.7      8.060      8.829
REMARK  0 active torsions:
REMARK  status: ('A' for Active; 'I' for Inactive)
ROOT
HETATM    1  C   UNK N   1      19.905  19.124   2.844  0.00  0.00     0.198 A 
HETATM    2  C   UNK N   1      20.887  20.838   2.058  0.00  0.00     0.198 A 
HETATM    3  N   UNK N   1      20.440  20.304   3.211  0.00  0.00    -0.346 N 
ATOM      4  HN  UNK N   1      20.495  20.702   4.148  1.00  0.00     0.167 HD
HETATM    5  N   UNK N   1      20.022  18.947   1.517  0.00  0.00    -0.295 N 
HETATM    6  N   UNK N   1      20.632  20.012   1.029  0.00  0.00    -0.295 N 
ATOM      7  HN  UNK N   1      20.867  20.178   0.051  1.00  0.00     0.187 HD
HETATM    8  H   UNK N   1      19.711  18.167   1.002  0.00  0.00     0.187 HD
ENDROOT
TORSDOF 0
ENDMDL
MODEL 5
REMARK VINA RESULT:      -2.7      9.832     10.200
REMARK  0 active torsions:
REMARK  status: ('A' for Active; 'I' for Inactive)
ROOT
HETATM    1  C   UNK N   1      28.549  17.503   8.604  0.00  0.00     0.198 A 
HETATM    2  C   UNK N   1      28.109  18.993   7.152  0.00  0.00     0.198 A 
HETATM    3  N   UNK N   1      28.835  17.875   7.342  0.00  0.00    -0.346 N 
ATOM      4  HN  UNK N   1      29.459  17.415   6.680  1.00  0.00     0.167 HD
HETATM    5  N   UNK N   1      27.680  18.365   9.161  0.00  0.00    -0.295 N 
HETATM    6  N   UNK N   1      27.407  19.290   8.260  0.00  0.00    -0.295 N 
ATOM      7  HN  UNK N   1      26.779  20.084   8.381  1.00  0.00     0.187 HD
HETATM    8  H   UNK N   1      27.314  18.314  10.074  0.00  0.00     0.187 HD
ENDROOT
TORSDOF 0
ENDMDL
MODEL 6
REMARK VINA RESULT:      -2.6     19.613     20.075
REMARK  0 active torsions:
REMARK  status: ('A' for Active; 'I' for Inactive)
ROOT
HETATM    1  C   UNK N   1      35.130  13.132  18.005  0.00  0.00     0.198 A 
HETATM    2  C   UNK N   1      35.423  11.692  19.541  0.00  0.00     0.198 A 
HETATM    3  N   UNK N   1      35.264  11.808  18.210  0.00  0.00    -0.346 N 
ATOM      4  HN  UNK N   1      35.248  11.062  17.514  1.00  0.00     0.167 HD
HETATM    5  N   UNK N   1      35.206  13.797  19.171  0.00  0.00    -0.295 N 
HETATM    6  N   UNK N   1      35.388  12.902  20.125  0.00  0.00    -0.295 N 
ATOM      7  HN  UNK N   1      35.484  13.094  21.122  1.00  0.00     0.187 HD
HETATM    8  H   UNK N   1      35.138  14.772  19.291  0.00  0.00     0.187 HD
ENDROOT
TORSDOF 0
ENDMDL
MODEL 7
REMARK VINA RESULT:      -2.6     18.538     19.153
REMARK  0 active torsions:
REMARK  status: ('A' for Active; 'I' for Inactive)
ROOT
HETATM    1  C   UNK N   1      35.709  13.883  13.624  0.00  0.00     0.198 A 
HETATM    2  C   UNK N   1      36.259  13.525  15.646  0.00  0.00     0.198 A 
HETATM    3  N   UNK N   1      35.353  13.176  14.713  0.00  0.00    -0.346 N 
ATOM      4  HN  UNK N   1      34.574  12.525  14.809  1.00  0.00     0.167 HD
HETATM    5  N   UNK N   1      36.793  14.634  13.886  0.00  0.00    -0.295 N 
HETATM    6  N   UNK N   1      37.134  14.411  15.142  0.00  0.00    -0.295 N 
ATOM      7  HN  UNK N   1      37.918  14.835  15.639  1.00  0.00     0.187 HD
HETATM    8  H   UNK N   1      37.249  15.240  13.257  0.00  0.00     0.187 HD
ENDROOT
TORSDOF 0
ENDMDL
MODEL 8
REMARK VINA RESULT:      -2.5     15.970     16.664
REMARK  0 active torsions:
REMARK  status: ('A' for Active; 'I' for Inactive)
ROOT
HETATM    1  C   UNK N   1      33.884  15.284  10.118  0.00  0.00     0.198 A 
HETATM    2  C   UNK N   1      35.449  16.108  11.298  0.00  0.00     0.198 A 
HETATM    3  N   UNK N   1      34.789  14.959  11.061  0.00  0.00    -0.346 N 
ATOM      4  HN  UNK N   1      34.940  14.049  11.496  1.00  0.00     0.167 HD
HETATM    5  N   UNK N   1      33.991  16.585   9.794  0.00  0.00    -0.295 N 
HETATM    6  N   UNK N   1      34.963  17.096  10.527  0.00  0.00    -0.295 N 
ATOM      7  HN  UNK N   1      35.286  18.063  10.512  1.00  0.00     0.187 HD
HETATM    8  H   UNK N   1      33.444  17.067   9.132  0.00  0.00     0.187 HD
ENDROOT
TORSDOF 0
ENDMDL
MODEL 9
REMARK VINA RESULT:      -2.5     15.073     15.740
REMARK  0 active torsions:
REMARK  status: ('A' for Active; 'I' for Inactive)
ROOT
HETATM    1  C   UNK N   1      32.712  17.489   8.477  0.00  0.00     0.198 A 
HETATM    2  C   UNK N   1      34.626  17.165   9.346  0.00  0.00     0.198 A 
HETATM    3  N   UNK N   1      33.377  16.664   9.308  0.00  0.00    -0.346 N 
ATOM      4  HN  UNK N   1      33.015  15.845   9.798  1.00  0.00     0.167 HD
HETATM    5  N   UNK N   1      33.529  18.457   8.026  0.00  0.00    -0.295 N 
HETATM    6  N   UNK N   1      34.717  18.256   8.566  0.00  0.00    -0.295 N 
ATOM      7  HN  UNK N   1      35.551  18.824   8.418  1.00  0.00     0.187 HD
HETATM    8  H   UNK N   1      33.285  19.183   7.406  0.00  0.00     0.187 HD
ENDROOT
TORSDOF 0
ENDMDL
