MODEL 1
REMARK VINA RESULT:      -4.9      0.000      0.000
REMARK  6 active torsions:
REMARK  status: ('A' for Active; 'I' for Inactive)
REMARK    1  A    between atoms: C_3  and  C_2 
REMARK    2  A    between atoms: O_8  and  C_2 
REMARK    3  A    between atoms: C_4  and  O_9 
REMARK    4  A    between atoms: C_5  and  O_10 
REMARK    5  A    between atoms: C_6  and  S_13 
REMARK    6  A    between atoms: C_7  and  O_11 
ROOT
HETATM    1  C   UNK N   1      20.241  18.206   3.516  0.00  0.00     0.164 C 
HETATM    2  C   UNK N   1      20.755  20.445   2.509  0.00  0.00     0.167 C 
HETATM    3  C   UNK N   1      20.979  19.707   1.179  0.00  0.00     0.203 C 
HETATM    4  C   UNK N   1      21.061  19.510   3.695  0.00  0.00     0.107 C 
HETATM    5  C   UNK N   1      20.135  18.415   1.193  0.00  0.00     0.290 C 
HETATM    6  O   UNK N   1      20.549  17.592   2.273  0.00  0.00    -0.350 OA
ENDROOT
BRANCH   1   7
HETATM    7  C   UNK N   1      20.523  17.198   4.628  0.00  0.00     0.197 C 
BRANCH   7   8
HETATM    8  O   UNK N   1      19.433  16.346   4.815  0.00  0.00    -0.398 OA
HETATM    9  H   UNK N   1      18.514  16.433   4.515  0.00  0.00     0.209 HD
ENDBRANCH   7   8
ENDBRANCH   1   7
BRANCH   4  10
HETATM   10  S   UNK N   1      22.857  19.152   3.798  0.00  0.00    -0.172 SA
HETATM   11  H   UNK N   1      24.159  18.930   3.474  0.00  0.00     0.102 HD
ENDBRANCH   4  10
BRANCH   2  12
HETATM   12  O   UNK N   1      21.543  21.598   2.571  0.00  0.00    -0.392 OA
HETATM   13  H   UNK N   1      22.322  21.702   2.003  0.00  0.00     0.210 HD
ENDBRANCH   2  12
BRANCH   5  14
HETATM   14  O   UNK N   1      20.352  17.695  -0.006  0.00  0.00    -0.363 OA
HETATM   15  C   UNK N   1      19.574  16.524   0.006  0.00  0.00     0.204 C 
ENDBRANCH   5  14
BRANCH   3  16
HETATM   16  O   UNK N   1      20.599  20.527   0.114  0.00  0.00    -0.388 OA
HETATM   17  H   UNK N   1      20.777  20.341  -0.822  0.00  0.00     0.210 HD
ENDBRANCH   3  16
TORSDOF 6
ENDMDL
MODEL 2
REMARK VINA RESULT:      -4.9     14.134     14.909
REMARK  6 active torsions:
REMARK  status: ('A' for Active; 'I' for Inactive)
REMARK    1  A    between atoms: C_3  and  C_2 
REMARK    2  A    between atoms: O_8  and  C_2 
REMARK    3  A    between atoms: C_4  and  O_9 
REMARK    4  A    between atoms: C_5  and  O_10 
REMARK    5  A    between atoms: C_6  and  S_13 
REMARK    6  A    between atoms: C_7  and  O_11 
ROOT
HETATM    1  C   UNK N   1      33.109  15.450   8.286  0.00  0.00     0.164 C 
HETATM    2  C   UNK N   1      34.487  17.113   9.562  0.00  0.00     0.167 C 
HETATM    3  C   UNK N   1      34.844  17.740   8.205  0.00  0.00     0.203 C 
HETATM    4  C   UNK N   1      34.184  15.611   9.392  0.00  0.00     0.107 C 
HETATM    5  C   UNK N   1      33.699  17.440   7.215  0.00  0.00     0.290 C 
HETATM    6  O   UNK N   1      33.555  16.034   7.071  0.00  0.00    -0.350 OA
ENDROOT
BRANCH   1   7
HETATM    7  C   UNK N   1      32.783  13.982   8.017  0.00  0.00     0.197 C 
BRANCH   7   8
HETATM    8  O   UNK N   1      32.299  13.362   9.170  0.00  0.00    -0.398 OA
HETATM    9  H   UNK N   1      32.708  13.264  10.044  0.00  0.00     0.209 HD
ENDBRANCH   7   8
ENDBRANCH   1   7
BRANCH   4  10
HETATM   10  S   UNK N   1      35.707  14.681   8.973  0.00  0.00    -0.172 SA
HETATM   11  H   UNK N   1      36.740  14.116   8.291  0.00  0.00     0.102 HD
ENDBRANCH   4  10
BRANCH   2  12
HETATM   12  O   UNK N   1      35.521  17.309  10.482  0.00  0.00    -0.392 OA
HETATM   13  H   UNK N   1      35.830  16.583  11.047  0.00  0.00     0.210 HD
ENDBRANCH   2  12
BRANCH   5  14
HETATM   14  O   UNK N   1      34.019  17.973   5.944  0.00  0.00    -0.363 OA
HETATM   15  C   UNK N   1      33.133  17.454   4.984  0.00  0.00     0.204 C 
ENDBRANCH   5  14
BRANCH   3  16
HETATM   16  O   UNK N   1      35.014  19.119   8.350  0.00  0.00    -0.388 OA
HETATM   17  H   UNK N   1      35.031  19.591   9.198  0.00  0.00     0.210 HD
ENDBRANCH   3  16
TORSDOF 6
ENDMDL
MODEL 3
REMARK VINA RESULT:      -4.7     15.124     16.441
REMARK  6 active torsions:
REMARK  status: ('A' for Active; 'I' for Inactive)
REMARK    1  A    between atoms: C_3  and  C_2 
REMARK    2  A    between atoms: O_8  and  C_2 
REMARK    3  A    between atoms: C_4  and  O_9 
REMARK    4  A    between atoms: C_5  and  O_10 
REMARK    5  A    between atoms: C_6  and  S_13 
REMARK    6  A    between atoms: C_7  and  O_11 
ROOT
HETATM    1  C   UNK N   1      34.072  17.245   9.081  0.00  0.00     0.164 C 
HETATM    2  C   UNK N   1      32.937  15.089   9.681  0.00  0.00     0.167 C 
HETATM    3  C   UNK N   1      34.257  14.670  10.347  0.00  0.00     0.203 C 
HETATM    4  C   UNK N   1      33.210  16.078   8.531  0.00  0.00     0.107 C 
HETATM    5  C   UNK N   1      35.007  15.947  10.783  0.00  0.00     0.290 C 
HETATM    6  O   UNK N   1      35.278  16.748   9.641  0.00  0.00    -0.350 OA
ENDROOT
BRANCH   1   7
HETATM    7  C   UNK N   1      34.431  18.251   7.991  0.00  0.00     0.197 C 
BRANCH   7   8
HETATM    8  O   UNK N   1      35.309  19.221   8.479  0.00  0.00    -0.398 OA
HETATM    9  H   UNK N   1      36.269  19.182   8.614  0.00  0.00     0.209 HD
ENDBRANCH   7   8
ENDBRANCH   1   7
BRANCH   4  10
HETATM   10  S   UNK N   1      34.049  15.239   7.133  0.00  0.00    -0.172 SA
HETATM   11  H   UNK N   1      34.432  14.313   6.214  0.00  0.00     0.102 HD
ENDBRANCH   4  10
BRANCH   2  12
HETATM   12  O   UNK N   1      32.242  13.968   9.216  0.00  0.00    -0.392 OA
HETATM   13  H   UNK N   1      31.276  13.919   9.280  0.00  0.00     0.210 HD
ENDBRANCH   2  12
BRANCH   5  14
HETATM   14  O   UNK N   1      36.247  15.592  11.365  0.00  0.00    -0.363 OA
HETATM   15  C   UNK N   1      37.037  14.926  10.411  0.00  0.00     0.204 C 
ENDBRANCH   5  14
BRANCH   3  16
HETATM   16  O   UNK N   1      33.993  13.858  11.452  0.00  0.00    -0.388 OA
HETATM   17  H   UNK N   1      33.676  14.175  12.313  0.00  0.00     0.210 HD
ENDBRANCH   3  16
TORSDOF 6
ENDMDL
MODEL 4
REMARK VINA RESULT:      -4.7     21.957     22.867
REMARK  6 active torsions:
REMARK  status: ('A' for Active; 'I' for Inactive)
REMARK    1  A    between atoms: C_3  and  C_2 
REMARK    2  A    between atoms: O_8  and  C_2 
REMARK    3  A    between atoms: C_4  and  O_9 
REMARK    4  A    between atoms: C_5  and  O_10 
REMARK    5  A    between atoms: C_6  and  S_13 
REMARK    6  A    between atoms: C_7  and  O_11 
ROOT
HETATM    1  C   UNK N   1      42.325  21.118   3.368  0.00  0.00     0.164 C 
HETATM    2  C   UNK N   1      44.463  22.305   3.931  0.00  0.00     0.167 C 
HETATM    3  C   UNK N   1      44.215  23.175   2.688  0.00  0.00     0.203 C 
HETATM    4  C   UNK N   1      43.815  20.918   3.749  0.00  0.00     0.107 C 
HETATM    5  C   UNK N   1      42.695  23.222   2.423  0.00  0.00     0.290 C 
HETATM    6  O   UNK N   1      42.215  21.905   2.191  0.00  0.00    -0.350 OA
ENDROOT
BRANCH   1   7
HETATM    7  C   UNK N   1      41.616  19.789   3.120  0.00  0.00     0.197 C 
BRANCH   7   8
HETATM    8  O   UNK N   1      40.584  19.597   4.039  0.00  0.00    -0.398 OA
HETATM    9  H   UNK N   1      39.795  20.134   4.212  0.00  0.00     0.209 HD
ENDBRANCH   7   8
ENDBRANCH   1   7
BRANCH   4  10
HETATM   10  S   UNK N   1      44.700  19.948   2.469  0.00  0.00    -0.172 SA
HETATM   11  H   UNK N   1      45.045  18.979   1.580  0.00  0.00     0.102 HD
ENDBRANCH   4  10
BRANCH   2  12
HETATM   12  O   UNK N   1      45.832  22.183   4.182  0.00  0.00    -0.392 OA
HETATM   13  H   UNK N   1      46.478  22.719   3.696  0.00  0.00     0.210 HD
ENDBRANCH   2  12
BRANCH   5  14
HETATM   14  O   UNK N   1      42.440  23.985   1.259  0.00  0.00    -0.363 OA
HETATM   15  C   UNK N   1      41.052  24.107   1.076  0.00  0.00     0.204 C 
ENDBRANCH   5  14
BRANCH   3  16
HETATM   16  O   UNK N   1      44.713  24.462   2.904  0.00  0.00    -0.388 OA
HETATM   17  H   UNK N   1      45.137  25.015   2.228  0.00  0.00     0.210 HD
ENDBRANCH   3  16
TORSDOF 6
ENDMDL
MODEL 5
REMARK VINA RESULT:      -4.5     14.131     15.089
REMARK  6 active torsions:
REMARK  status: ('A' for Active; 'I' for Inactive)
REMARK    1  A    between atoms: C_3  and  C_2 
REMARK    2  A    between atoms: O_8  and  C_2 
REMARK    3  A    between atoms: C_4  and  O_9 
REMARK    4  A    between atoms: C_5  and  O_10 
REMARK    5  A    between atoms: C_6  and  S_13 
REMARK    6  A    between atoms: C_7  and  O_11 
ROOT
HETATM    1  C   UNK N   1      33.796  15.010   7.957  0.00  0.00     0.164 C 
HETATM    2  C   UNK N   1      34.144  17.182   6.752  0.00  0.00     0.167 C 
HETATM    3  C   UNK N   1      34.332  17.828   8.134  0.00  0.00     0.203 C 
HETATM    4  C   UNK N   1      33.227  15.948   6.861  0.00  0.00     0.107 C 
HETATM    5  C   UNK N   1      34.848  16.749   9.109  0.00  0.00     0.290 C 
HETATM    6  O   UNK N   1      33.896  15.698   9.196  0.00  0.00    -0.350 OA
ENDROOT
BRANCH   1   7
HETATM    7  C   UNK N   1      32.917  13.779   8.166  0.00  0.00     0.197 C 
BRANCH   7   8
HETATM    8  O   UNK N   1      32.603  13.615   9.516  0.00  0.00    -0.398 OA
HETATM    9  H   UNK N   1      32.624  12.818  10.069  0.00  0.00     0.209 HD
ENDBRANCH   7   8
ENDBRANCH   1   7
BRANCH   4  10
HETATM   10  S   UNK N   1      31.505  16.446   7.244  0.00  0.00    -0.172 SA
HETATM   11  H   UNK N   1      30.155  16.604   7.194  0.00  0.00     0.102 HD
ENDBRANCH   4  10
BRANCH   2  12
HETATM   12  O   UNK N   1      33.624  18.107   5.842  0.00  0.00    -0.392 OA
HETATM   13  H   UNK N   1      33.752  19.060   5.971  0.00  0.00     0.210 HD
ENDBRANCH   2  12
BRANCH   5  14
HETATM   14  O   UNK N   1      34.993  17.307  10.400  0.00  0.00    -0.363 OA
HETATM   15  C   UNK N   1      35.441  16.315  11.290  0.00  0.00     0.204 C 
ENDBRANCH   5  14
BRANCH   3  16
HETATM   16  O   UNK N   1      35.246  18.881   8.044  0.00  0.00    -0.388 OA
HETATM   17  H   UNK N   1      36.167  18.795   7.747  0.00  0.00     0.210 HD
ENDBRANCH   3  16
TORSDOF 6
ENDMDL
MODEL 6
REMARK VINA RESULT:      -4.3     14.126     14.985
REMARK  6 active torsions:
REMARK  status: ('A' for Active; 'I' for Inactive)
REMARK    1  A    between atoms: C_3  and  C_2 
REMARK    2  A    between atoms: O_8  and  C_2 
REMARK    3  A    between atoms: C_4  and  O_9 
REMARK    4  A    between atoms: C_5  and  O_10 
REMARK    5  A    between atoms: C_6  and  S_13 
REMARK    6  A    between atoms: C_7  and  O_11 
ROOT
HETATM    1  C   UNK N   1      34.685  15.470   9.289  0.00  0.00     0.164 C 
HETATM    2  C   UNK N   1      34.962  15.660   6.803  0.00  0.00     0.167 C 
HETATM    3  C   UNK N   1      33.911  16.781   6.851  0.00  0.00     0.203 C 
HETATM    4  C   UNK N   1      34.737  14.669   7.962  0.00  0.00     0.107 C 
HETATM    5  C   UNK N   1      33.959  17.431   8.250  0.00  0.00     0.290 C 
HETATM    6  O   UNK N   1      33.662  16.453   9.236  0.00  0.00    -0.350 OA
ENDROOT
BRANCH   1   7
HETATM    7  C   UNK N   1      34.416  14.566  10.490  0.00  0.00     0.197 C 
BRANCH   7   8
HETATM    8  O   UNK N   1      33.260  14.965  11.163  0.00  0.00    -0.398 OA
HETATM    9  H   UNK N   1      32.397  14.529  11.233  0.00  0.00     0.209 HD
ENDBRANCH   7   8
ENDBRANCH   1   7
BRANCH   4  10
HETATM   10  S   UNK N   1      33.196  13.708   7.710  0.00  0.00    -0.172 SA
HETATM   11  H   UNK N   1      31.911  13.361   7.431  0.00  0.00     0.102 HD
ENDBRANCH   4  10
BRANCH   2  12
HETATM   12  O   UNK N   1      34.921  14.999   5.572  0.00  0.00    -0.392 OA
HETATM   13  H   UNK N   1      35.411  14.174   5.433  0.00  0.00     0.210 HD
ENDBRANCH   2  12
BRANCH   5  14
HETATM   14  O   UNK N   1      32.974  18.443   8.336  0.00  0.00    -0.363 OA
HETATM   15  C   UNK N   1      31.705  17.850   8.454  0.00  0.00     0.204 C 
ENDBRANCH   5  14
BRANCH   3  16
HETATM   16  O   UNK N   1      34.185  17.729   5.863  0.00  0.00    -0.388 OA
HETATM   17  H   UNK N   1      34.174  17.557   4.908  0.00  0.00     0.210 HD
ENDBRANCH   3  16
TORSDOF 6
ENDMDL
MODEL 7
REMARK VINA RESULT:      -4.2     11.386     12.810
REMARK  6 active torsions:
REMARK  status: ('A' for Active; 'I' for Inactive)
REMARK    1  A    between atoms: C_3  and  C_2 
REMARK    2  A    between atoms: O_8  and  C_2 
REMARK    3  A    between atoms: C_4  and  O_9 
REMARK    4  A    between atoms: C_5  and  O_10 
REMARK    5  A    between atoms: C_6  and  S_13 
REMARK    6  A    between atoms: C_7  and  O_11 
ROOT
HETATM    1  C   UNK N   1      30.200  21.441  -5.150  0.00  0.00     0.164 C 
HETATM    2  C   UNK N   1      31.318  21.477  -2.904  0.00  0.00     0.167 C 
HETATM    3  C   UNK N   1      30.730  22.885  -2.722  0.00  0.00     0.203 C 
HETATM    4  C   UNK N   1      31.533  21.179  -4.401  0.00  0.00     0.107 C 
HETATM    5  C   UNK N   1      29.447  22.990  -3.573  0.00  0.00     0.290 C 
HETATM    6  O   UNK N   1      29.768  22.778  -4.940  0.00  0.00    -0.350 OA
ENDROOT
BRANCH   1   7
HETATM    7  C   UNK N   1      30.338  21.216  -6.654  0.00  0.00     0.197 C 
BRANCH   7   8
HETATM    8  O   UNK N   1      30.580  19.871  -6.936  0.00  0.00    -0.398 OA
HETATM    9  H   UNK N   1      31.133  19.467  -7.622  0.00  0.00     0.209 HD
ENDBRANCH   7   8
ENDBRANCH   1   7
BRANCH   4  10
HETATM   10  S   UNK N   1      32.888  22.208  -5.083  0.00  0.00    -0.172 SA
HETATM   11  H   UNK N   1      33.733  22.846  -5.937  0.00  0.00     0.102 HD
ENDBRANCH   4  10
BRANCH   2  12
HETATM   12  O   UNK N   1      32.516  21.346  -2.196  0.00  0.00    -0.392 OA
HETATM   13  H   UNK N   1      33.173  20.679  -2.447  0.00  0.00     0.210 HD
ENDBRANCH   2  12
BRANCH   5  14
HETATM   14  O   UNK N   1      28.905  24.292  -3.454  0.00  0.00    -0.363 OA
HETATM   15  C   UNK N   1      27.507  24.206  -3.332  0.00  0.00     0.204 C 
ENDBRANCH   5  14
BRANCH   3  16
HETATM   16  O   UNK N   1      30.441  23.106  -1.373  0.00  0.00    -0.388 OA
HETATM   17  H   UNK N   1      30.432  22.420  -0.686  0.00  0.00     0.210 HD
ENDBRANCH   3  16
TORSDOF 6
ENDMDL
MODEL 8
REMARK VINA RESULT:      -4.2      1.724      4.208
REMARK  6 active torsions:
REMARK  status: ('A' for Active; 'I' for Inactive)
REMARK    1  A    between atoms: C_3  and  C_2 
REMARK    2  A    between atoms: O_8  and  C_2 
REMARK    3  A    between atoms: C_4  and  O_9 
REMARK    4  A    between atoms: C_5  and  O_10 
REMARK    5  A    between atoms: C_6  and  S_13 
REMARK    6  A    between atoms: C_7  and  O_11 
ROOT
HETATM    1  C   UNK N   1      19.947  17.312   2.293  0.00  0.00     0.164 C 
HETATM    2  C   UNK N   1      20.429  16.949   4.728  0.00  0.00     0.167 C 
HETATM    3  C   UNK N   1      21.195  18.282   4.694  0.00  0.00     0.203 C 
HETATM    4  C   UNK N   1      20.454  16.284   3.338  0.00  0.00     0.107 C 
HETATM    5  C   UNK N   1      20.600  19.156   3.570  0.00  0.00     0.290 C 
HETATM    6  O   UNK N   1      20.744  18.487   2.325  0.00  0.00    -0.350 OA
ENDROOT
BRANCH   1   7
HETATM    7  C   UNK N   1      19.985  16.750   0.874  0.00  0.00     0.197 C 
BRANCH   7   8
HETATM    8  O   UNK N   1      20.322  17.744  -0.046  0.00  0.00    -0.398 OA
HETATM    9  H   UNK N   1      20.104  17.822  -0.988  0.00  0.00     0.209 HD
ENDBRANCH   7   8
ENDBRANCH   1   7
BRANCH   4  10
HETATM   10  S   UNK N   1      22.142  15.700   2.924  0.00  0.00    -0.172 SA
HETATM   11  H   UNK N   1      23.298  15.429   2.260  0.00  0.00     0.102 HD
ENDBRANCH   4  10
BRANCH   2  12
HETATM   12  O   UNK N   1      20.968  16.095   5.695  0.00  0.00    -0.392 OA
HETATM   13  H   UNK N   1      21.558  15.368   5.445  0.00  0.00     0.210 HD
ENDBRANCH   2  12
BRANCH   5  14
HETATM   14  O   UNK N   1      21.313  20.375   3.490  0.00  0.00    -0.363 OA
HETATM   15  C   UNK N   1      21.209  20.891   2.187  0.00  0.00     0.204 C 
ENDBRANCH   5  14
BRANCH   3  16
HETATM   16  O   UNK N   1      21.079  18.926   5.927  0.00  0.00    -0.388 OA
HETATM   17  H   UNK N   1      21.722  18.863   6.652  0.00  0.00     0.210 HD
ENDBRANCH   3  16
TORSDOF 6
ENDMDL
MODEL 9
REMARK VINA RESULT:      -4.0     10.924     12.489
REMARK  6 active torsions:
REMARK  status: ('A' for Active; 'I' for Inactive)
REMARK    1  A    between atoms: C_3  and  C_2 
REMARK    2  A    between atoms: O_8  and  C_2 
REMARK    3  A    between atoms: C_4  and  O_9 
REMARK    4  A    between atoms: C_5  and  O_10 
REMARK    5  A    between atoms: C_6  and  S_13 
REMARK    6  A    between atoms: C_7  and  O_11 
ROOT
HETATM    1  C   UNK N   1      25.932  27.562  -4.019  0.00  0.00     0.164 C 
HETATM    2  C   UNK N   1      25.420  26.419  -6.193  0.00  0.00     0.167 C 
HETATM    3  C   UNK N   1      26.072  25.162  -5.595  0.00  0.00     0.203 C 
HETATM    4  C   UNK N   1      26.029  27.687  -5.562  0.00  0.00     0.107 C 
HETATM    5  C   UNK N   1      25.933  25.227  -4.059  0.00  0.00     0.290 C 
HETATM    6  O   UNK N   1      26.594  26.387  -3.574  0.00  0.00    -0.350 OA
ENDROOT
BRANCH   1   7
HETATM    7  C   UNK N   1      26.560  28.760  -3.310  0.00  0.00     0.197 C 
BRANCH   7   8
HETATM    8  O   UNK N   1      25.946  29.950  -3.704  0.00  0.00    -0.398 OA
HETATM    9  H   UNK N   1      26.107  30.507  -4.481  0.00  0.00     0.209 HD
ENDBRANCH   7   8
ENDBRANCH   1   7
BRANCH   4  10
HETATM   10  S   UNK N   1      27.768  27.913  -6.099  0.00  0.00    -0.172 SA
HETATM   11  H   UNK N   1      28.903  28.420  -6.651  0.00  0.00     0.102 HD
ENDBRANCH   4  10
BRANCH   2  12
HETATM   12  O   UNK N   1      25.568  26.438  -7.583  0.00  0.00    -0.392 OA
HETATM   13  H   UNK N   1      26.421  26.654  -7.991  0.00  0.00     0.210 HD
ENDBRANCH   2  12
BRANCH   5  14
HETATM   14  O   UNK N   1      26.560  24.099  -3.479  0.00  0.00    -0.363 OA
HETATM   15  C   UNK N   1      27.955  24.231  -3.593  0.00  0.00     0.204 C 
ENDBRANCH   5  14
BRANCH   3  16
HETATM   16  O   UNK N   1      25.443  24.020  -6.094  0.00  0.00    -0.388 OA
HETATM   17  H   UNK N   1      25.131  23.276  -5.555  0.00  0.00     0.210 HD
ENDBRANCH   3  16
TORSDOF 6
ENDMDL
