MODEL 1
REMARK VINA RESULT:      -5.3      0.000      0.000
REMARK  5 active torsions:
REMARK  status: ('A' for Active; 'I' for Inactive)
REMARK    1  A    between atoms: N_2  and  C_5 
REMARK    2  A    between atoms: C_9  and  C_11 
REMARK    3  A    between atoms: C_11  and  O_12 
REMARK    4  A    between atoms: C_11  and  O_13 
REMARK    5  A    between atoms: C_11  and  C_14 
ROOT
HETATM    1  C   UNK N   1      23.392  19.073   4.096  0.00  0.00     0.136 A 
HETATM    2  C   UNK N   1      23.510  19.985   3.025  0.00  0.00     0.037 A 
HETATM    3  C   UNK N   1      24.725  20.622   2.759  0.00  0.00     0.003 A 
HETATM    4  C   UNK N   1      25.849  20.349   3.544  0.00  0.00     0.013 A 
HETATM    5  C   UNK N   1      25.765  19.445   4.616  0.00  0.00     0.015 A 
HETATM    6  C   UNK N   1      24.538  18.815   4.876  0.00  0.00     0.050 A 
ENDROOT
BRANCH   5   7
HETATM    7  C   UNK N   1      26.978  19.093   5.423  0.00  0.00     0.290 C 
BRANCH   7   8
HETATM    8  O   UNK N   1      26.757  17.966   6.138  0.00  0.00    -0.355 OA
HETATM    9  H   UNK N   1      27.058  17.093   5.978  0.00  0.00     0.213 HD
ENDBRANCH   7   8
BRANCH   7  10
HETATM   10  O   UNK N   1      28.044  18.972   4.605  0.00  0.00    -0.355 OA
HETATM   11  H   UNK N   1      28.119  18.659   3.725  0.00  0.00     0.213 HD
ENDBRANCH   7  10
BRANCH   7  12
HETATM   12  C   UNK N   1      27.264  20.230   6.388  0.00  0.00     0.449 C 
HETATM   13  F   UNK N   1      26.087  20.826   6.810  0.00  0.00    -0.165 F 
HETATM   14  F   UNK N   1      27.924  19.730   7.499  0.00  0.00    -0.165 F 
HETATM   15  F   UNK N   1      28.070  21.193   5.804  0.00  0.00    -0.165 F 
ENDBRANCH   7  12
ENDBRANCH   5   7
BRANCH   1  16
HETATM   16  N   UNK N   1      22.149  18.381   4.335  0.00  0.00    -0.049 N 
HETATM   17  C   UNK N   1      22.005  18.079   5.737  0.00  0.00     0.278 C 
HETATM   18  C   UNK N   1      22.036  17.158   3.573  0.00  0.00     0.278 C 
HETATM   19  C   UNK N   1      21.058  19.248   3.971  0.00  0.00     0.278 C 
ENDBRANCH   1  16
TORSDOF 5
ENDMDL
MODEL 2
REMARK VINA RESULT:      -5.2      6.640      8.165
REMARK  5 active torsions:
REMARK  status: ('A' for Active; 'I' for Inactive)
REMARK    1  A    between atoms: N_2  and  C_5 
REMARK    2  A    between atoms: C_9  and  C_11 
REMARK    3  A    between atoms: C_11  and  O_12 
REMARK    4  A    between atoms: C_11  and  O_13 
REMARK    5  A    between atoms: C_11  and  C_14 
ROOT
HETATM    1  C   UNK N   1      30.386  16.865   6.649  0.00  0.00     0.136 A 
HETATM    2  C   UNK N   1      29.657  17.542   7.650  0.00  0.00     0.037 A 
HETATM    3  C   UNK N   1      30.316  18.242   8.664  0.00  0.00     0.003 A 
HETATM    4  C   UNK N   1      31.713  18.293   8.690  0.00  0.00     0.013 A 
HETATM    5  C   UNK N   1      32.468  17.631   7.707  0.00  0.00     0.015 A 
HETATM    6  C   UNK N   1      31.794  16.928   6.696  0.00  0.00     0.050 A 
ENDROOT
BRANCH   5   7
HETATM    7  C   UNK N   1      33.962  17.733   7.686  0.00  0.00     0.290 C 
BRANCH   7   8
HETATM    8  O   UNK N   1      34.425  17.603   6.421  0.00  0.00    -0.355 OA
HETATM    9  H   UNK N   1      34.332  18.184   5.692  0.00  0.00     0.213 HD
ENDBRANCH   7   8
BRANCH   7  10
HETATM   10  O   UNK N   1      34.342  18.902   8.245  0.00  0.00    -0.355 OA
HETATM   11  H   UNK N   1      34.416  19.166   9.141  0.00  0.00     0.213 HD
ENDBRANCH   7  10
BRANCH   7  12
HETATM   12  C   UNK N   1      34.538  16.610   8.529  0.00  0.00     0.449 C 
HETATM   13  F   UNK N   1      35.344  15.783   7.765  0.00  0.00    -0.165 F 
HETATM   14  F   UNK N   1      35.307  17.152   9.546  0.00  0.00    -0.165 F 
HETATM   15  F   UNK N   1      33.533  15.849   9.105  0.00  0.00    -0.165 F 
ENDBRANCH   7  12
ENDBRANCH   5   7
BRANCH   1  16
HETATM   16  N   UNK N   1      29.701  16.187   5.576  0.00  0.00    -0.049 N 
HETATM   17  C   UNK N   1      30.206  14.845   5.426  0.00  0.00     0.278 C 
HETATM   18  C   UNK N   1      29.817  16.880   4.313  0.00  0.00     0.278 C 
HETATM   19  C   UNK N   1      28.304  16.081   5.911  0.00  0.00     0.278 C 
ENDBRANCH   1  16
TORSDOF 5
ENDMDL
MODEL 3
REMARK VINA RESULT:      -5.1      6.336      7.960
REMARK  5 active torsions:
REMARK  status: ('A' for Active; 'I' for Inactive)
REMARK    1  A    between atoms: N_2  and  C_5 
REMARK    2  A    between atoms: C_9  and  C_11 
REMARK    3  A    between atoms: C_11  and  O_12 
REMARK    4  A    between atoms: C_11  and  O_13 
REMARK    5  A    between atoms: C_11  and  C_14 
ROOT
HETATM    1  C   UNK N   1      30.582  17.192   5.738  0.00  0.00     0.136 A 
HETATM    2  C   UNK N   1      31.091  17.321   4.427  0.00  0.00     0.037 A 
HETATM    3  C   UNK N   1      32.457  17.509   4.206  0.00  0.00     0.003 A 
HETATM    4  C   UNK N   1      33.344  17.556   5.285  0.00  0.00     0.013 A 
HETATM    5  C   UNK N   1      32.870  17.429   6.602  0.00  0.00     0.015 A 
HETATM    6  C   UNK N   1      31.494  17.245   6.811  0.00  0.00     0.050 A 
ENDROOT
BRANCH   5   7
HETATM    7  C   UNK N   1      33.818  17.410   7.763  0.00  0.00     0.290 C 
BRANCH   7   8
HETATM    8  O   UNK N   1      34.767  18.362   7.611  0.00  0.00    -0.355 OA
HETATM    9  H   UNK N   1      34.837  19.201   8.023  0.00  0.00     0.213 HD
ENDBRANCH   7   8
BRANCH   7  10
HETATM   10  O   UNK N   1      33.126  17.564   8.911  0.00  0.00    -0.355 OA
HETATM   11  H   UNK N   1      32.727  18.319   9.299  0.00  0.00     0.213 HD
ENDBRANCH   7  10
BRANCH   7  12
HETATM   12  C   UNK N   1      34.497  16.054   7.813  0.00  0.00     0.449 C 
HETATM   13  F   UNK N   1      35.269  15.931   8.957  0.00  0.00    -0.165 F 
HETATM   14  F   UNK N   1      33.531  15.060   7.829  0.00  0.00    -0.165 F 
HETATM   15  F   UNK N   1      35.304  15.854   6.704  0.00  0.00    -0.165 F 
ENDBRANCH   7  12
ENDBRANCH   5   7
BRANCH   1  16
HETATM   16  N   UNK N   1      29.177  16.948   5.957  0.00  0.00    -0.049 N 
HETATM   17  C   UNK N   1      28.837  17.182   7.338  0.00  0.00     0.278 C 
HETATM   18  C   UNK N   1      28.780  15.606   5.593  0.00  0.00     0.278 C 
HETATM   19  C   UNK N   1      28.415  17.879   5.166  0.00  0.00     0.278 C 
ENDBRANCH   1  16
TORSDOF 5
ENDMDL
MODEL 4
REMARK VINA RESULT:      -5.1     16.566     18.448
REMARK  5 active torsions:
REMARK  status: ('A' for Active; 'I' for Inactive)
REMARK    1  A    between atoms: N_2  and  C_5 
REMARK    2  A    between atoms: C_9  and  C_11 
REMARK    3  A    between atoms: C_11  and  O_12 
REMARK    4  A    between atoms: C_11  and  O_13 
REMARK    5  A    between atoms: C_11  and  C_14 
ROOT
HETATM    1  C   UNK N   1      35.701  11.125  18.782  0.00  0.00     0.136 A 
HETATM    2  C   UNK N   1      35.300  12.314  19.429  0.00  0.00     0.037 A 
HETATM    3  C   UNK N   1      35.000  13.462  18.693  0.00  0.00     0.003 A 
HETATM    4  C   UNK N   1      35.078  13.443  17.298  0.00  0.00     0.013 A 
HETATM    5  C   UNK N   1      35.471  12.276  16.622  0.00  0.00     0.015 A 
HETATM    6  C   UNK N   1      35.775  11.129  17.374  0.00  0.00     0.050 A 
ENDROOT
BRANCH   5   7
HETATM    7  C   UNK N   1      35.494  12.222  15.125  0.00  0.00     0.290 C 
BRANCH   7   8
HETATM    8  O   UNK N   1      35.308  10.953  14.696  0.00  0.00    -0.355 OA
HETATM    9  H   UNK N   1      35.039  10.197  15.180  0.00  0.00     0.213 HD
ENDBRANCH   7   8
BRANCH   7  10
HETATM   10  O   UNK N   1      34.562  13.065  14.630  0.00  0.00    -0.355 OA
HETATM   11  H   UNK N   1      34.346  13.303  13.750  0.00  0.00     0.213 HD
ENDBRANCH   7  10
BRANCH   7  12
HETATM   12  C   UNK N   1      36.851  12.701  14.643  0.00  0.00     0.449 C 
HETATM   13  F   UNK N   1      37.769  11.665  14.648  0.00  0.00    -0.165 F 
HETATM   14  F   UNK N   1      36.734  13.175  13.346  0.00  0.00    -0.165 F 
HETATM   15  F   UNK N   1      37.332  13.730  15.437  0.00  0.00    -0.165 F 
ENDBRANCH   7  12
ENDBRANCH   5   7
BRANCH   1  16
HETATM   16  N   UNK N   1      35.961   9.928  19.544  0.00  0.00    -0.049 N 
HETATM   17  C   UNK N   1      36.576  10.259  20.804  0.00  0.00     0.278 C 
HETATM   18  C   UNK N   1      36.803   8.989  18.838  0.00  0.00     0.278 C 
HETATM   19  C   UNK N   1      34.707   9.283  19.838  0.00  0.00     0.278 C 
ENDBRANCH   1  16
TORSDOF 5
ENDMDL
MODEL 5
REMARK VINA RESULT:      -5.1     11.536     13.225
REMARK  5 active torsions:
REMARK  status: ('A' for Active; 'I' for Inactive)
REMARK    1  A    between atoms: N_2  and  C_5 
REMARK    2  A    between atoms: C_9  and  C_11 
REMARK    3  A    between atoms: C_11  and  O_12 
REMARK    4  A    between atoms: C_11  and  O_13 
REMARK    5  A    between atoms: C_11  and  C_14 
ROOT
HETATM    1  C   UNK N   1      26.556  24.842  -5.872  0.00  0.00     0.136 A 
HETATM    2  C   UNK N   1      26.665  25.705  -6.984  0.00  0.00     0.037 A 
HETATM    3  C   UNK N   1      26.175  25.324  -8.235  0.00  0.00     0.003 A 
HETATM    4  C   UNK N   1      25.555  24.082  -8.399  0.00  0.00     0.013 A 
HETATM    5  C   UNK N   1      25.429  23.201  -7.312  0.00  0.00     0.015 A 
HETATM    6  C   UNK N   1      25.929  23.594  -6.060  0.00  0.00     0.050 A 
ENDROOT
BRANCH   5   7
HETATM    7  C   UNK N   1      24.706  21.896  -7.458  0.00  0.00     0.290 C 
BRANCH   7   8
HETATM    8  O   UNK N   1      24.371  21.405  -6.243  0.00  0.00    -0.355 OA
HETATM    9  H   UNK N   1      24.841  21.450  -5.434  0.00  0.00     0.213 HD
ENDBRANCH   7   8
BRANCH   7  10
HETATM   10  O   UNK N   1      23.627  22.065  -8.251  0.00  0.00    -0.355 OA
HETATM   11  H   UNK N   1      23.526  22.008  -9.181  0.00  0.00     0.213 HD
ENDBRANCH   7  10
BRANCH   7  12
HETATM   12  C   UNK N   1      25.630  20.904  -8.142  0.00  0.00     0.449 C 
HETATM   13  F   UNK N   1      25.355  19.611  -7.730  0.00  0.00    -0.165 F 
HETATM   14  F   UNK N   1      25.442  20.975  -9.513  0.00  0.00    -0.165 F 
HETATM   15  F   UNK N   1      26.959  21.187  -7.872  0.00  0.00    -0.165 F 
ENDBRANCH   7  12
ENDBRANCH   5   7
BRANCH   1  16
HETATM   16  N   UNK N   1      27.018  25.262  -4.571  0.00  0.00    -0.049 N 
HETATM   17  C   UNK N   1      26.255  26.394  -4.109  0.00  0.00     0.278 C 
HETATM   18  C   UNK N   1      28.423  25.601  -4.560  0.00  0.00     0.278 C 
HETATM   19  C   UNK N   1      26.801  24.190  -3.633  0.00  0.00     0.278 C 
ENDBRANCH   1  16
TORSDOF 5
ENDMDL
MODEL 6
REMARK VINA RESULT:      -5.1      5.115      6.840
REMARK  5 active torsions:
REMARK  status: ('A' for Active; 'I' for Inactive)
REMARK    1  A    between atoms: N_2  and  C_5 
REMARK    2  A    between atoms: C_9  and  C_11 
REMARK    3  A    between atoms: C_11  and  O_12 
REMARK    4  A    between atoms: C_11  and  O_13 
REMARK    5  A    between atoms: C_11  and  C_14 
ROOT
HETATM    1  C   UNK N   1      29.133  17.836   6.634  0.00  0.00     0.136 A 
HETATM    2  C   UNK N   1      28.622  18.558   7.735  0.00  0.00     0.037 A 
HETATM    3  C   UNK N   1      29.347  18.655   8.924  0.00  0.00     0.003 A 
HETATM    4  C   UNK N   1      30.602  18.049   9.035  0.00  0.00     0.013 A 
HETATM    5  C   UNK N   1      31.140  17.326   7.957  0.00  0.00     0.015 A 
HETATM    6  C   UNK N   1      30.399  17.231   6.768  0.00  0.00     0.050 A 
ENDROOT
BRANCH   5   7
HETATM    7  C   UNK N   1      32.512  16.728   8.039  0.00  0.00     0.290 C 
BRANCH   7   8
HETATM    8  O   UNK N   1      32.834  16.464   9.325  0.00  0.00    -0.355 OA
HETATM    9  H   UNK N   1      32.451  16.796  10.113  0.00  0.00     0.213 HD
ENDBRANCH   7   8
BRANCH   7  10
HETATM   10  O   UNK N   1      32.569  15.623   7.266  0.00  0.00    -0.355 OA
HETATM   11  H   UNK N   1      33.290  15.196   6.847  0.00  0.00     0.213 HD
ENDBRANCH   7  10
BRANCH   7  12
HETATM   12  C   UNK N   1      33.510  17.729   7.486  0.00  0.00     0.449 C 
HETATM   13  F   UNK N   1      33.374  18.957   8.112  0.00  0.00    -0.165 F 
HETATM   14  F   UNK N   1      34.796  17.264   7.712  0.00  0.00    -0.165 F 
HETATM   15  F   UNK N   1      33.346  17.901   6.121  0.00  0.00    -0.165 F 
ENDBRANCH   7  12
ENDBRANCH   5   7
BRANCH   1  16
HETATM   16  N   UNK N   1      28.402  17.781   5.392  0.00  0.00    -0.049 N 
HETATM   17  C   UNK N   1      27.132  17.128   5.585  0.00  0.00     0.278 C 
HETATM   18  C   UNK N   1      29.131  17.100   4.345  0.00  0.00     0.278 C 
HETATM   19  C   UNK N   1      28.127  19.126   4.955  0.00  0.00     0.278 C 
ENDBRANCH   1  16
TORSDOF 5
ENDMDL
MODEL 7
REMARK VINA RESULT:      -5.0     17.185     19.032
REMARK  5 active torsions:
REMARK  status: ('A' for Active; 'I' for Inactive)
REMARK    1  A    between atoms: N_2  and  C_5 
REMARK    2  A    between atoms: C_9  and  C_11 
REMARK    3  A    between atoms: C_11  and  O_12 
REMARK    4  A    between atoms: C_11  and  O_13 
REMARK    5  A    between atoms: C_11  and  C_14 
ROOT
HETATM    1  C   UNK N   1      35.193  11.944  16.670  0.00  0.00     0.136 A 
HETATM    2  C   UNK N   1      35.068  13.306  17.023  0.00  0.00     0.037 A 
HETATM    3  C   UNK N   1      35.107  13.704  18.361  0.00  0.00     0.003 A 
HETATM    4  C   UNK N   1      35.289  12.756  19.372  0.00  0.00     0.013 A 
HETATM    5  C   UNK N   1      35.419  11.393  19.055  0.00  0.00     0.015 A 
HETATM    6  C   UNK N   1      35.373  11.005  17.706  0.00  0.00     0.050 A 
ENDROOT
BRANCH   5   7
HETATM    7  C   UNK N   1      35.681  10.376  20.123  0.00  0.00     0.290 C 
BRANCH   7   8
HETATM    8  O   UNK N   1      36.315   9.300  19.603  0.00  0.00    -0.355 OA
HETATM    9  H   UNK N   1      36.090   8.783  18.854  0.00  0.00     0.213 HD
ENDBRANCH   7   8
BRANCH   7  10
HETATM   10  O   UNK N   1      36.387  10.943  21.123  0.00  0.00    -0.355 OA
HETATM   11  H   UNK N   1      36.190  11.064  22.031  0.00  0.00     0.213 HD
ENDBRANCH   7  10
BRANCH   7  12
HETATM   12  C   UNK N   1      34.351   9.922  20.697  0.00  0.00     0.449 C 
HETATM   13  F   UNK N   1      33.507   9.479  19.693  0.00  0.00    -0.165 F 
HETATM   14  F   UNK N   1      34.568   8.876  21.579  0.00  0.00    -0.165 F 
HETATM   15  F   UNK N   1      33.726  10.948  21.388  0.00  0.00    -0.165 F 
ENDBRANCH   7  12
ENDBRANCH   5   7
BRANCH   1  16
HETATM   16  N   UNK N   1      35.202  11.545  15.284  0.00  0.00    -0.049 N 
HETATM   17  C   UNK N   1      36.366  10.743  15.001  0.00  0.00     0.278 C 
HETATM   18  C   UNK N   1      35.171  12.671  14.378  0.00  0.00     0.278 C 
HETATM   19  C   UNK N   1      34.047  10.723  15.031  0.00  0.00     0.278 C 
ENDBRANCH   1  16
TORSDOF 5
ENDMDL
MODEL 8
REMARK VINA RESULT:      -5.0      9.284     11.616
REMARK  5 active torsions:
REMARK  status: ('A' for Active; 'I' for Inactive)
REMARK    1  A    between atoms: N_2  and  C_5 
REMARK    2  A    between atoms: C_9  and  C_11 
REMARK    3  A    between atoms: C_11  and  O_12 
REMARK    4  A    between atoms: C_11  and  O_13 
REMARK    5  A    between atoms: C_11  and  C_14 
ROOT
HETATM    1  C   UNK N   1      35.564  14.750   9.281  0.00  0.00     0.136 A 
HETATM    2  C   UNK N   1      35.929  13.862   8.246  0.00  0.00     0.037 A 
HETATM    3  C   UNK N   1      35.645  14.164   6.912  0.00  0.00     0.003 A 
HETATM    4  C   UNK N   1      35.008  15.363   6.582  0.00  0.00     0.013 A 
HETATM    5  C   UNK N   1      34.634  16.270   7.588  0.00  0.00     0.015 A 
HETATM    6  C   UNK N   1      34.920  15.953   8.926  0.00  0.00     0.050 A 
ENDROOT
BRANCH   5   7
HETATM    7  C   UNK N   1      34.011  17.589   7.244  0.00  0.00     0.290 C 
BRANCH   7   8
HETATM    8  O   UNK N   1      34.545  18.574   8.001  0.00  0.00    -0.355 OA
HETATM    9  H   UNK N   1      34.131  19.328   8.372  0.00  0.00     0.213 HD
ENDBRANCH   7   8
BRANCH   7  10
HETATM   10  O   UNK N   1      34.162  17.827   5.924  0.00  0.00    -0.355 OA
HETATM   11  H   UNK N   1      34.848  18.249   5.444  0.00  0.00     0.213 HD
ENDBRANCH   7  10
BRANCH   7  12
HETATM   12  C   UNK N   1      32.523  17.511   7.531  0.00  0.00     0.449 C 
HETATM   13  F   UNK N   1      32.142  18.498   8.425  0.00  0.00    -0.165 F 
HETATM   14  F   UNK N   1      31.820  17.697   6.351  0.00  0.00    -0.165 F 
HETATM   15  F   UNK N   1      32.175  16.276   8.052  0.00  0.00    -0.165 F 
ENDBRANCH   7  12
ENDBRANCH   5   7
BRANCH   1  16
HETATM   16  N   UNK N   1      35.904  14.457  10.651  0.00  0.00    -0.049 N 
HETATM   17  C   UNK N   1      37.202  13.834  10.724  0.00  0.00     0.278 C 
HETATM   18  C   UNK N   1      34.932  13.603  11.297  0.00  0.00     0.278 C 
HETATM   19  C   UNK N   1      35.984  15.693  11.385  0.00  0.00     0.278 C 
ENDBRANCH   1  16
TORSDOF 5
ENDMDL
MODEL 9
REMARK VINA RESULT:      -5.0     10.931     12.533
REMARK  5 active torsions:
REMARK  status: ('A' for Active; 'I' for Inactive)
REMARK    1  A    between atoms: N_2  and  C_5 
REMARK    2  A    between atoms: C_9  and  C_11 
REMARK    3  A    between atoms: C_11  and  O_12 
REMARK    4  A    between atoms: C_11  and  O_13 
REMARK    5  A    between atoms: C_11  and  C_14 
ROOT
HETATM    1  C   UNK N   1      27.843  24.527  -4.287  0.00  0.00     0.136 A 
HETATM    2  C   UNK N   1      27.008  23.872  -5.218  0.00  0.00     0.037 A 
HETATM    3  C   UNK N   1      25.864  24.499  -5.717  0.00  0.00     0.003 A 
HETATM    4  C   UNK N   1      25.539  25.796  -5.310  0.00  0.00     0.013 A 
HETATM    5  C   UNK N   1      26.350  26.476  -4.387  0.00  0.00     0.015 A 
HETATM    6  C   UNK N   1      27.495  25.833  -3.889  0.00  0.00     0.050 A 
ENDROOT
BRANCH   5   7
HETATM    7  C   UNK N   1      26.050  27.891  -3.994  0.00  0.00     0.290 C 
BRANCH   7   8
HETATM    8  O   UNK N   1      24.765  28.197  -4.282  0.00  0.00    -0.355 OA
HETATM    9  H   UNK N   1      23.975  27.846  -3.919  0.00  0.00     0.213 HD
ENDBRANCH   7   8
BRANCH   7  10
HETATM   10  O   UNK N   1      26.329  28.064  -2.684  0.00  0.00    -0.355 OA
HETATM   11  H   UNK N   1      25.920  28.592  -2.027  0.00  0.00     0.213 HD
ENDBRANCH   7  10
BRANCH   7  12
HETATM   12  C   UNK N   1      26.957  28.817  -4.784  0.00  0.00     0.449 C 
HETATM   13  F   UNK N   1      26.936  28.494  -6.131  0.00  0.00    -0.165 F 
HETATM   14  F   UNK N   1      26.514  30.121  -4.640  0.00  0.00    -0.165 F 
HETATM   15  F   UNK N   1      28.264  28.750  -4.328  0.00  0.00    -0.165 F 
ENDBRANCH   7  12
ENDBRANCH   5   7
BRANCH   1  16
HETATM   16  N   UNK N   1      29.050  23.894  -3.813  0.00  0.00    -0.049 N 
HETATM   17  C   UNK N   1      29.514  22.921  -4.770  0.00  0.00     0.278 C 
HETATM   18  C   UNK N   1      28.877  23.252  -2.530  0.00  0.00     0.278 C 
HETATM   19  C   UNK N   1      30.080  24.893  -3.688  0.00  0.00     0.278 C 
ENDBRANCH   1  16
TORSDOF 5
ENDMDL
