MODEL 1
REMARK VINA RESULT:      -3.3      0.000      0.000
REMARK  1 active torsions:
REMARK  status: ('A' for Active; 'I' for Inactive)
REMARK    1  A    between atoms: C_2  and  C_4 
ROOT
HETATM    1  C   UNK N   1      33.929  17.667   7.065  0.00  0.00     0.099 C 
HETATM    2  C   UNK N   1      34.626  18.095   8.309  0.00  0.00     0.182 C 
HETATM    3  O   UNK N   1      35.088  19.221   8.390  0.00  0.00    -0.290 OA
ENDROOT
BRANCH   2   4
HETATM    4  C   UNK N   1      34.751  17.156   9.430  0.00  0.00     0.308 C 
HETATM    5  O   UNK N   1      35.549  17.368  10.329  0.00  0.00    -0.299 OA
ENDBRANCH   2   4
TORSDOF 1
ENDMDL
MODEL 2
REMARK VINA RESULT:      -3.2     14.620     15.469
REMARK  1 active torsions:
REMARK  status: ('A' for Active; 'I' for Inactive)
REMARK    1  A    between atoms: C_2  and  C_4 
ROOT
HETATM    1  C   UNK N   1      21.110  19.454   3.286  0.00  0.00     0.099 C 
HETATM    2  C   UNK N   1      21.436  20.623   2.422  0.00  0.00     0.182 C 
HETATM    3  O   UNK N   1      22.321  21.395   2.752  0.00  0.00    -0.290 OA
ENDROOT
BRANCH   2   4
HETATM    4  C   UNK N   1      20.687  20.836   1.179  0.00  0.00     0.308 C 
HETATM    5  O   UNK N   1      21.230  20.689   0.096  0.00  0.00    -0.299 OA
ENDBRANCH   2   4
TORSDOF 1
ENDMDL
MODEL 3
REMARK VINA RESULT:      -3.2      1.466      2.080
REMARK  1 active torsions:
REMARK  status: ('A' for Active; 'I' for Inactive)
REMARK    1  A    between atoms: C_2  and  C_4 
ROOT
HETATM    1  C   UNK N   1      32.271  17.498   7.456  0.00  0.00     0.099 C 
HETATM    2  C   UNK N   1      33.689  17.897   7.238  0.00  0.00     0.182 C 
HETATM    3  O   UNK N   1      34.123  18.006   6.103  0.00  0.00    -0.290 OA
ENDROOT
BRANCH   2   4
HETATM    4  C   UNK N   1      34.555  18.155   8.394  0.00  0.00     0.308 C 
HETATM    5  O   UNK N   1      35.217  19.178   8.455  0.00  0.00    -0.299 OA
ENDBRANCH   2   4
TORSDOF 1
ENDMDL
MODEL 4
REMARK VINA RESULT:      -3.2      1.270      2.595
REMARK  1 active torsions:
REMARK  status: ('A' for Active; 'I' for Inactive)
REMARK    1  A    between atoms: C_2  and  C_4 
ROOT
HETATM    1  C   UNK N   1      34.693  17.148   9.469  0.00  0.00     0.099 C 
HETATM    2  C   UNK N   1      34.557  18.112   8.343  0.00  0.00     0.182 C 
HETATM    3  O   UNK N   1      35.123  19.192   8.396  0.00  0.00    -0.290 OA
ENDROOT
BRANCH   2   4
HETATM    4  C   UNK N   1      33.742  17.755   7.177  0.00  0.00     0.308 C 
HETATM    5  O   UNK N   1      34.165  17.937   6.047  0.00  0.00    -0.299 OA
ENDBRANCH   2   4
TORSDOF 1
ENDMDL
MODEL 5
REMARK VINA RESULT:      -3.0      0.694      2.349
REMARK  1 active torsions:
REMARK  status: ('A' for Active; 'I' for Inactive)
REMARK    1  A    between atoms: C_2  and  C_4 
ROOT
HETATM    1  C   UNK N   1      34.399  15.717   9.183  0.00  0.00     0.099 C 
HETATM    2  C   UNK N   1      34.857  17.118   9.393  0.00  0.00     0.182 C 
HETATM    3  O   UNK N   1      35.500  17.404  10.390  0.00  0.00    -0.290 OA
ENDROOT
BRANCH   2   4
HETATM    4  C   UNK N   1      34.532  18.144   8.397  0.00  0.00     0.308 C 
HETATM    5  O   UNK N   1      35.122  19.212   8.392  0.00  0.00    -0.299 OA
ENDBRANCH   2   4
TORSDOF 1
ENDMDL
MODEL 6
REMARK VINA RESULT:      -3.0     12.237     12.767
REMARK  1 active torsions:
REMARK  status: ('A' for Active; 'I' for Inactive)
REMARK    1  A    between atoms: C_2  and  C_4 
ROOT
HETATM    1  C   UNK N   1      30.636  23.832  -3.707  0.00  0.00     0.099 C 
HETATM    2  C   UNK N   1      30.979  22.854  -2.639  0.00  0.00     0.182 C 
HETATM    3  O   UNK N   1      30.483  22.966  -1.530  0.00  0.00    -0.290 OA
ENDROOT
BRANCH   2   4
HETATM    4  C   UNK N   1      31.913  21.761  -2.929  0.00  0.00     0.308 C 
HETATM    5  O   UNK N   1      32.730  21.405  -2.095  0.00  0.00    -0.299 OA
ENDBRANCH   2   4
TORSDOF 1
ENDMDL
MODEL 7
REMARK VINA RESULT:      -2.9     12.322     12.734
REMARK  1 active torsions:
REMARK  status: ('A' for Active; 'I' for Inactive)
REMARK    1  A    between atoms: C_2  and  C_4 
ROOT
HETATM    1  C   UNK N   1      32.362  22.168  -4.317  0.00  0.00     0.099 C 
HETATM    2  C   UNK N   1      31.874  22.094  -2.913  0.00  0.00     0.182 C 
HETATM    3  O   UNK N   1      32.512  21.474  -2.078  0.00  0.00    -0.290 OA
ENDROOT
BRANCH   2   4
HETATM    4  C   UNK N   1      30.625  22.770  -2.543  0.00  0.00     0.308 C 
HETATM    5  O   UNK N   1      30.386  23.035  -1.376  0.00  0.00    -0.299 OA
ENDBRANCH   2   4
TORSDOF 1
ENDMDL
MODEL 8
REMARK VINA RESULT:      -2.9     14.620     15.420
REMARK  1 active torsions:
REMARK  status: ('A' for Active; 'I' for Inactive)
REMARK    1  A    between atoms: C_2  and  C_4 
ROOT
HETATM    1  C   UNK N   1      20.337  18.840   1.528  0.00  0.00     0.099 C 
HETATM    2  C   UNK N   1      21.048  20.146   1.470  0.00  0.00     0.182 C 
HETATM    3  O   UNK N   1      21.249  20.682   0.393  0.00  0.00    -0.290 OA
ENDROOT
BRANCH   2   4
HETATM    4  C   UNK N   1      21.504  20.779   2.713  0.00  0.00     0.308 C 
HETATM    5  O   UNK N   1      22.494  21.493   2.717  0.00  0.00    -0.299 OA
ENDBRANCH   2   4
TORSDOF 1
ENDMDL
MODEL 9
REMARK VINA RESULT:      -2.8     14.327     14.760
REMARK  1 active torsions:
REMARK  status: ('A' for Active; 'I' for Inactive)
REMARK    1  A    between atoms: C_2  and  C_4 
ROOT
HETATM    1  C   UNK N   1      20.816  20.656   1.345  0.00  0.00     0.099 C 
HETATM    2  C   UNK N   1      21.658  20.589   2.571  0.00  0.00     0.182 C 
HETATM    3  O   UNK N   1      22.542  21.411   2.748  0.00  0.00    -0.290 OA
ENDROOT
BRANCH   2   4
HETATM    4  C   UNK N   1      21.417  19.532   3.559  0.00  0.00     0.308 C 
HETATM    5  O   UNK N   1      20.794  19.770   4.582  0.00  0.00    -0.299 OA
ENDBRANCH   2   4
TORSDOF 1
ENDMDL
