MODEL 1
REMARK VINA RESULT:      -5.7      0.000      0.000
REMARK  9 active torsions:
REMARK  status: ('A' for Active; 'I' for Inactive)
REMARK    1  A    between atoms: C_8  and  C_6 
REMARK    2  A    between atoms: N_14  and  C_6 
REMARK    3  A    between atoms: C_9  and  C_7 
REMARK    4  A    between atoms: N_16  and  C_7 
REMARK    5  A    between atoms: O_18  and  C_8 
REMARK    6  A    between atoms: C_9  and  O_19 
REMARK    7  A    between atoms: C_10  and  O_20 
REMARK    8  A    between atoms: O_21  and  C_10 
REMARK    9  A    between atoms: O_21  and  C_11 
ROOT
HETATM    1  C   UNK N   1      31.231  17.050   8.698  0.00  0.00     0.135 C 
HETATM    2  N   UNK N   1      32.044  17.660   7.899  0.00  0.00    -0.361 N 
ATOM      3  HN  UNK N   1      31.715  18.498   7.419  1.00  0.00     0.162 HD
ENDROOT
BRANCH   1   4
HETATM    4  C   UNK N   1      29.794  17.500   8.825  0.00  0.00     0.155 C 
HETATM    5  C   UNK N   1      29.614  18.681   9.775  0.00  0.00     0.041 C 
BRANCH   4   6
HETATM    6  N   UNK N   1      29.276  17.823   7.507  0.00  0.00    -0.339 N 
HETATM    7  C   UNK N   1      28.061  17.596   7.127  0.00  0.00     0.259 C 
ATOM      8  HN  UNK N   1      29.912  18.257   6.837  1.00  0.00     0.164 HD
BRANCH   7   9
HETATM    9  O   UNK N   1      27.175  17.008   7.966  0.00  0.00    -0.327 OA
HETATM   10  H   UNK N   1      27.163  16.907   8.897  0.00  0.00     0.221 HD
ENDBRANCH   7   9
BRANCH   7  11
HETATM   11  O   UNK N   1      27.665  18.013   5.896  0.00  0.00    -0.307 OA
BRANCH  11  12
HETATM   12  C   UNK N   1      27.256  19.299   5.585  0.00  0.00     0.060 C 
HETATM   13  C   UNK N   1      27.309  20.206   6.804  0.00  0.00     0.046 C 
HETATM   14  C   UNK N   1      25.825  19.240   5.095  0.00  0.00     0.046 C 
HETATM   15  C   UNK N   1      28.111  19.883   4.470  0.00  0.00     0.046 C 
ENDBRANCH  11  12
ENDBRANCH   7  11
ENDBRANCH   4   6
ENDBRANCH   1   4
BRANCH   1  16
HETATM   16  O   UNK N   1      31.635  15.964   9.393  0.00  0.00    -0.348 OA
HETATM   17  H   UNK N   1      32.042  15.181   9.706  0.00  0.00     0.219 HD
ENDBRANCH   1  16
BRANCH   2  18
HETATM   18  C   UNK N   1      33.400  17.213   7.649  0.00  0.00     0.153 C 
HETATM   19  C   UNK N   1      33.766  17.565   6.219  0.00  0.00     0.041 C 
BRANCH  18  20
HETATM   20  C   UNK N   1      34.369  17.857   8.603  0.00  0.00     0.132 C 
HETATM   21  N   UNK N   1      34.604  17.310   9.740  0.00  0.00    -0.382 N 
HETATM   22  H   UNK N   1      35.145  17.748  10.437  0.00  0.00     0.158 HD
ATOM     23  HN  UNK N   1      34.215  16.386   9.930  1.00  0.00     0.158 HD
BRANCH  20  24
HETATM   24  O   UNK N   1      34.979  19.014   8.284  0.00  0.00    -0.348 OA
HETATM   25  H   UNK N   1      35.909  19.097   8.365  0.00  0.00     0.219 HD
ENDBRANCH  20  24
ENDBRANCH  18  20
ENDBRANCH   2  18
TORSDOF 9
ENDMDL
MODEL 2
REMARK VINA RESULT:      -5.6      5.901      9.554
REMARK  9 active torsions:
REMARK  status: ('A' for Active; 'I' for Inactive)
REMARK    1  A    between atoms: C_8  and  C_6 
REMARK    2  A    between atoms: N_14  and  C_6 
REMARK    3  A    between atoms: C_9  and  C_7 
REMARK    4  A    between atoms: N_16  and  C_7 
REMARK    5  A    between atoms: O_18  and  C_8 
REMARK    6  A    between atoms: C_9  and  O_19 
REMARK    7  A    between atoms: C_10  and  O_20 
REMARK    8  A    between atoms: O_21  and  C_10 
REMARK    9  A    between atoms: O_21  and  C_11 
ROOT
HETATM    1  C   UNK N   1      36.563  14.550  10.441  0.00  0.00     0.135 C 
HETATM    2  N   UNK N   1      35.552  14.617   9.639  0.00  0.00    -0.361 N 
ATOM      3  HN  UNK N   1      34.919  13.819   9.588  1.00  0.00     0.162 HD
ENDROOT
BRANCH   1   4
HETATM    4  C   UNK N   1      36.865  13.276  11.195  0.00  0.00     0.155 C 
HETATM    5  C   UNK N   1      38.299  12.787  11.003  0.00  0.00     0.041 C 
BRANCH   4   6
HETATM    6  N   UNK N   1      36.580  13.477  12.605  0.00  0.00    -0.339 N 
HETATM    7  C   UNK N   1      35.390  13.501  13.111  0.00  0.00     0.259 C 
ATOM      8  HN  UNK N   1      37.369  13.608  13.238  1.00  0.00     0.164 HD
BRANCH   7   9
HETATM    9  O   UNK N   1      34.301  13.348  12.319  0.00  0.00    -0.327 OA
HETATM   10  H   UNK N   1      33.707  12.634  12.198  0.00  0.00     0.221 HD
ENDBRANCH   7   9
BRANCH   7  11
HETATM   11  O   UNK N   1      35.246  13.616  14.457  0.00  0.00    -0.307 OA
BRANCH  11  12
HETATM   12  C   UNK N   1      35.134  12.555  15.339  0.00  0.00     0.060 C 
HETATM   13  C   UNK N   1      34.096  11.550  14.867  0.00  0.00     0.046 C 
HETATM   14  C   UNK N   1      34.699  13.095  16.685  0.00  0.00     0.046 C 
HETATM   15  C   UNK N   1      36.476  11.862  15.523  0.00  0.00     0.046 C 
ENDBRANCH  11  12
ENDBRANCH   7  11
ENDBRANCH   4   6
ENDBRANCH   1   4
BRANCH   1  16
HETATM   16  O   UNK N   1      37.401  15.600  10.580  0.00  0.00    -0.348 OA
HETATM   17  H   UNK N   1      38.132  16.177  10.683  0.00  0.00     0.219 HD
ENDBRANCH   1  16
BRANCH   2  18
HETATM   18  C   UNK N   1      35.270  15.770   8.807  0.00  0.00     0.153 C 
HETATM   19  C   UNK N   1      34.500  15.304   7.585  0.00  0.00     0.041 C 
BRANCH  18  20
HETATM   20  C   UNK N   1      34.473  16.802   9.558  0.00  0.00     0.132 C 
HETATM   21  N   UNK N   1      33.319  17.157   9.123  0.00  0.00    -0.382 N 
HETATM   22  H   UNK N   1      32.810  17.902   9.519  0.00  0.00     0.158 HD
ATOM     23  HN  UNK N   1      32.913  16.649   8.338  1.00  0.00     0.158 HD
BRANCH  20  24
HETATM   24  O   UNK N   1      34.967  17.371  10.674  0.00  0.00    -0.348 OA
HETATM   25  H   UNK N   1      35.199  18.279  10.679  0.00  0.00     0.219 HD
ENDBRANCH  20  24
ENDBRANCH  18  20
ENDBRANCH   2  18
TORSDOF 9
ENDMDL
MODEL 3
REMARK VINA RESULT:      -5.4      5.264      7.765
REMARK  9 active torsions:
REMARK  status: ('A' for Active; 'I' for Inactive)
REMARK    1  A    between atoms: C_8  and  C_6 
REMARK    2  A    between atoms: N_14  and  C_6 
REMARK    3  A    between atoms: C_9  and  C_7 
REMARK    4  A    between atoms: N_16  and  C_7 
REMARK    5  A    between atoms: O_18  and  C_8 
REMARK    6  A    between atoms: C_9  and  O_19 
REMARK    7  A    between atoms: C_10  and  O_20 
REMARK    8  A    between atoms: O_21  and  C_10 
REMARK    9  A    between atoms: O_21  and  C_11 
ROOT
HETATM    1  C   UNK N   1      35.949  14.072  12.177  0.00  0.00     0.135 C 
HETATM    2  N   UNK N   1      36.867  13.681  13.000  0.00  0.00    -0.361 N 
ATOM      3  HN  UNK N   1      37.833  13.948  12.811  1.00  0.00     0.162 HD
ENDROOT
BRANCH   1   4
HETATM    4  C   UNK N   1      36.315  14.804  10.907  0.00  0.00     0.155 C 
HETATM    5  C   UNK N   1      37.377  14.083  10.081  0.00  0.00     0.041 C 
BRANCH   4   6
HETATM    6  N   UNK N   1      35.115  15.019  10.117  0.00  0.00    -0.339 N 
HETATM    7  C   UNK N   1      34.524  16.162   9.987  0.00  0.00     0.259 C 
ATOM      8  HN  UNK N   1      34.710  14.216   9.634  1.00  0.00     0.164 HD
BRANCH   7   9
HETATM    9  O   UNK N   1      35.005  17.262  10.617  0.00  0.00    -0.327 OA
HETATM   10  H   UNK N   1      35.865  17.496  10.904  0.00  0.00     0.221 HD
ENDBRANCH   7   9
BRANCH   7  11
HETATM   11  O   UNK N   1      33.453  16.262   9.159  0.00  0.00    -0.307 OA
BRANCH  11  12
HETATM   12  C   UNK N   1      33.480  16.801   7.884  0.00  0.00     0.060 C 
HETATM   13  C   UNK N   1      33.681  18.308   7.925  0.00  0.00     0.046 C 
HETATM   14  C   UNK N   1      32.152  16.515   7.214  0.00  0.00     0.046 C 
HETATM   15  C   UNK N   1      34.576  16.158   7.048  0.00  0.00     0.046 C 
ENDBRANCH  11  12
ENDBRANCH   7  11
ENDBRANCH   4   6
ENDBRANCH   1   4
BRANCH   1  16
HETATM   16  O   UNK N   1      34.650  13.786  12.410  0.00  0.00    -0.348 OA
HETATM   17  H   UNK N   1      33.715  13.760  12.450  0.00  0.00     0.219 HD
ENDBRANCH   1  16
BRANCH   2  18
HETATM   18  C   UNK N   1      36.592  12.882  14.178  0.00  0.00     0.153 C 
HETATM   19  C   UNK N   1      37.606  11.754  14.240  0.00  0.00     0.041 C 
BRANCH  18  20
HETATM   20  C   UNK N   1      36.668  13.714  15.429  0.00  0.00     0.132 C 
HETATM   21  N   UNK N   1      35.815  13.531  16.370  0.00  0.00    -0.382 N 
HETATM   22  H   UNK N   1      35.759  14.122  17.157  0.00  0.00     0.158 HD
ATOM     23  HN  UNK N   1      35.169  12.745  16.301  1.00  0.00     0.158 HD
BRANCH  20  24
HETATM   24  O   UNK N   1      37.612  14.665  15.564  0.00  0.00    -0.348 OA
HETATM   25  H   UNK N   1      38.115  14.724  16.353  0.00  0.00     0.219 HD
ENDBRANCH  20  24
ENDBRANCH  18  20
ENDBRANCH   2  18
TORSDOF 9
ENDMDL
MODEL 4
REMARK VINA RESULT:      -5.2      3.785      7.108
REMARK  9 active torsions:
REMARK  status: ('A' for Active; 'I' for Inactive)
REMARK    1  A    between atoms: C_8  and  C_6 
REMARK    2  A    between atoms: N_14  and  C_6 
REMARK    3  A    between atoms: C_9  and  C_7 
REMARK    4  A    between atoms: N_16  and  C_7 
REMARK    5  A    between atoms: O_18  and  C_8 
REMARK    6  A    between atoms: C_9  and  O_19 
REMARK    7  A    between atoms: C_10  and  O_20 
REMARK    8  A    between atoms: O_21  and  C_10 
REMARK    9  A    between atoms: O_21  and  C_11 
ROOT
HETATM    1  C   UNK N   1      33.272  17.716   7.013  0.00  0.00     0.135 C 
HETATM    2  N   UNK N   1      32.511  17.256   6.076  0.00  0.00    -0.361 N 
ATOM      3  HN  UNK N   1      31.551  17.003   6.310  1.00  0.00     0.162 HD
ENDROOT
BRANCH   1   4
HETATM    4  C   UNK N   1      32.787  17.767   8.443  0.00  0.00     0.155 C 
HETATM    5  C   UNK N   1      31.269  17.866   8.562  0.00  0.00     0.041 C 
BRANCH   4   6
HETATM    6  N   UNK N   1      33.278  16.599   9.155  0.00  0.00    -0.339 N 
HETATM    7  C   UNK N   1      34.427  16.538   9.746  0.00  0.00     0.259 C 
ATOM      8  HN  UNK N   1      32.679  15.775   9.191  1.00  0.00     0.164 HD
BRANCH   7   9
HETATM    9  O   UNK N   1      35.274  17.595   9.720  0.00  0.00    -0.327 OA
HETATM   10  H   UNK N   1      35.274  18.412  10.180  0.00  0.00     0.221 HD
ENDBRANCH   7   9
BRANCH   7  11
HETATM   11  O   UNK N   1      34.749  15.421  10.450  0.00  0.00    -0.307 OA
BRANCH  11  12
HETATM   12  C   UNK N   1      35.522  14.376   9.974  0.00  0.00     0.060 C 
HETATM   13  C   UNK N   1      35.470  14.294   8.457  0.00  0.00     0.046 C 
HETATM   14  C   UNK N   1      34.978  13.081  10.541  0.00  0.00     0.046 C 
HETATM   15  C   UNK N   1      36.966  14.519  10.433  0.00  0.00     0.046 C 
ENDBRANCH  11  12
ENDBRANCH   7  11
ENDBRANCH   4   6
ENDBRANCH   1   4
BRANCH   1  16
HETATM   16  O   UNK N   1      34.535  18.110   6.742  0.00  0.00    -0.348 OA
HETATM   17  H   UNK N   1      35.414  18.434   6.761  0.00  0.00     0.219 HD
ENDBRANCH   1  16
BRANCH   2  18
HETATM   18  C   UNK N   1      32.952  17.079   4.706  0.00  0.00     0.153 C 
HETATM   19  C   UNK N   1      33.399  15.640   4.527  0.00  0.00     0.041 C 
BRANCH  18  20
HETATM   20  C   UNK N   1      31.850  17.402   3.734  0.00  0.00     0.132 C 
HETATM   21  N   UNK N   1      30.720  17.829   4.168  0.00  0.00    -0.382 N 
HETATM   22  H   UNK N   1      29.938  17.950   3.581  0.00  0.00     0.158 HD
ATOM     23  HN  UNK N   1      30.628  18.050   5.159  1.00  0.00     0.158 HD
BRANCH  20  24
HETATM   24  O   UNK N   1      32.031  17.230   2.410  0.00  0.00    -0.348 OA
HETATM   25  H   UNK N   1      32.523  16.500   2.091  0.00  0.00     0.219 HD
ENDBRANCH  20  24
ENDBRANCH  18  20
ENDBRANCH   2  18
TORSDOF 9
ENDMDL
MODEL 5
REMARK VINA RESULT:      -5.2      5.290      9.243
REMARK  9 active torsions:
REMARK  status: ('A' for Active; 'I' for Inactive)
REMARK    1  A    between atoms: C_8  and  C_6 
REMARK    2  A    between atoms: N_14  and  C_6 
REMARK    3  A    between atoms: C_9  and  C_7 
REMARK    4  A    between atoms: N_16  and  C_7 
REMARK    5  A    between atoms: O_18  and  C_8 
REMARK    6  A    between atoms: C_9  and  O_19 
REMARK    7  A    between atoms: C_10  and  O_20 
REMARK    8  A    between atoms: O_21  and  C_10 
REMARK    9  A    between atoms: O_21  and  C_11 
ROOT
HETATM    1  C   UNK N   1      34.316  15.209  10.366  0.00  0.00     0.135 C 
HETATM    2  N   UNK N   1      34.589  16.072   9.443  0.00  0.00    -0.361 N 
ATOM      3  HN  UNK N   1      35.522  16.062   9.029  1.00  0.00     0.162 HD
ENDROOT
BRANCH   1   4
HETATM    4  C   UNK N   1      35.388  14.287  10.899  0.00  0.00     0.155 C 
HETATM    5  C   UNK N   1      36.786  14.630  10.389  0.00  0.00     0.041 C 
BRANCH   4   6
HETATM    6  N   UNK N   1      35.356  14.309  12.352  0.00  0.00    -0.339 N 
HETATM    7  C   UNK N   1      34.947  13.325  13.084  0.00  0.00     0.259 C 
ATOM      8  HN  UNK N   1      35.677  15.154  12.824  1.00  0.00     0.164 HD
BRANCH   7   9
HETATM    9  O   UNK N   1      34.495  12.182  12.515  0.00  0.00    -0.327 OA
HETATM   10  H   UNK N   1      34.661  11.278  12.701  0.00  0.00     0.221 HD
ENDBRANCH   7   9
BRANCH   7  11
HETATM   11  O   UNK N   1      35.037  13.426  14.436  0.00  0.00    -0.307 OA
BRANCH  11  12
HETATM   12  C   UNK N   1      36.165  13.135  15.183  0.00  0.00     0.060 C 
HETATM   13  C   UNK N   1      37.061  12.137  14.467  0.00  0.00     0.046 C 
HETATM   14  C   UNK N   1      35.726  12.525  16.497  0.00  0.00     0.046 C 
HETATM   15  C   UNK N   1      36.950  14.402  15.492  0.00  0.00     0.046 C 
ENDBRANCH  11  12
ENDBRANCH   7  11
ENDBRANCH   4   6
ENDBRANCH   1   4
BRANCH   1  16
HETATM   16  O   UNK N   1      33.081  15.151  10.909  0.00  0.00    -0.348 OA
HETATM   17  H   UNK N   1      32.199  15.297  11.187  0.00  0.00     0.219 HD
ENDBRANCH   1  16
BRANCH   2  18
HETATM   18  C   UNK N   1      33.637  17.056   8.965  0.00  0.00     0.153 C 
HETATM   19  C   UNK N   1      34.398  18.143   8.229  0.00  0.00     0.041 C 
BRANCH  18  20
HETATM   20  C   UNK N   1      32.619  16.429   8.053  0.00  0.00     0.132 C 
HETATM   21  N   UNK N   1      31.396  16.335   8.430  0.00  0.00    -0.382 N 
HETATM   22  H   UNK N   1      30.719  15.838   7.914  0.00  0.00     0.158 HD
ATOM     23  HN  UNK N   1      31.113  16.792   9.297  1.00  0.00     0.158 HD
BRANCH  20  24
HETATM   24  O   UNK N   1      32.982  15.946   6.849  0.00  0.00    -0.348 OA
HETATM   25  H   UNK N   1      32.747  15.074   6.598  0.00  0.00     0.219 HD
ENDBRANCH  20  24
ENDBRANCH  18  20
ENDBRANCH   2  18
TORSDOF 9
ENDMDL
MODEL 6
REMARK VINA RESULT:      -5.2      1.295      1.698
REMARK  9 active torsions:
REMARK  status: ('A' for Active; 'I' for Inactive)
REMARK    1  A    between atoms: C_8  and  C_6 
REMARK    2  A    between atoms: N_14  and  C_6 
REMARK    3  A    between atoms: C_9  and  C_7 
REMARK    4  A    between atoms: N_16  and  C_7 
REMARK    5  A    between atoms: O_18  and  C_8 
REMARK    6  A    between atoms: C_9  and  O_19 
REMARK    7  A    between atoms: C_10  and  O_20 
REMARK    8  A    between atoms: O_21  and  C_10 
REMARK    9  A    between atoms: O_21  and  C_11 
ROOT
HETATM    1  C   UNK N   1      31.245  16.999   8.745  0.00  0.00     0.135 C 
HETATM    2  N   UNK N   1      32.035  17.607   7.922  0.00  0.00    -0.361 N 
ATOM      3  HN  UNK N   1      31.682  18.427   7.428  1.00  0.00     0.162 HD
ENDROOT
BRANCH   1   4
HETATM    4  C   UNK N   1      29.802  17.422   8.883  0.00  0.00     0.155 C 
HETATM    5  C   UNK N   1      29.616  18.654   9.764  0.00  0.00     0.041 C 
BRANCH   4   6
HETATM    6  N   UNK N   1      29.244  17.653   7.561  0.00  0.00    -0.339 N 
HETATM    7  C   UNK N   1      28.030  17.363   7.223  0.00  0.00     0.259 C 
ATOM      8  HN  UNK N   1      29.849  18.071   6.853  1.00  0.00     0.164 HD
BRANCH   7   9
HETATM    9  O   UNK N   1      27.184  16.792   8.114  0.00  0.00    -0.327 OA
HETATM   10  H   UNK N   1      26.835  15.925   8.183  0.00  0.00     0.221 HD
ENDBRANCH   7   9
BRANCH   7  11
HETATM   11  O   UNK N   1      27.592  17.697   5.981  0.00  0.00    -0.307 OA
BRANCH  11  12
HETATM   12  C   UNK N   1      27.665  16.881   4.865  0.00  0.00     0.060 C 
HETATM   13  C   UNK N   1      26.432  17.030   3.988  0.00  0.00     0.046 C 
HETATM   14  C   UNK N   1      27.750  15.442   5.328  0.00  0.00     0.046 C 
HETATM   15  C   UNK N   1      28.915  17.188   4.052  0.00  0.00     0.046 C 
ENDBRANCH  11  12
ENDBRANCH   7  11
ENDBRANCH   4   6
ENDBRANCH   1   4
BRANCH   1  16
HETATM   16  O   UNK N   1      31.681  15.938   9.458  0.00  0.00    -0.348 OA
HETATM   17  H   UNK N   1      32.176  15.272   9.893  0.00  0.00     0.219 HD
ENDBRANCH   1  16
BRANCH   2  18
HETATM   18  C   UNK N   1      33.397  17.183   7.663  0.00  0.00     0.153 C 
HETATM   19  C   UNK N   1      33.745  17.536   6.228  0.00  0.00     0.041 C 
BRANCH  18  20
HETATM   20  C   UNK N   1      34.362  17.847   8.607  0.00  0.00     0.132 C 
HETATM   21  N   UNK N   1      34.602  17.317   9.750  0.00  0.00    -0.382 N 
HETATM   22  H   UNK N   1      35.140  17.768  10.441  0.00  0.00     0.158 HD
ATOM     23  HN  UNK N   1      34.220  16.393   9.953  1.00  0.00     0.158 HD
BRANCH  20  24
HETATM   24  O   UNK N   1      34.963  19.004   8.271  0.00  0.00    -0.348 OA
HETATM   25  H   UNK N   1      35.184  19.632   8.931  0.00  0.00     0.219 HD
ENDBRANCH  20  24
ENDBRANCH  18  20
ENDBRANCH   2  18
TORSDOF 9
ENDMDL
MODEL 7
REMARK VINA RESULT:      -5.1      9.978     11.966
REMARK  9 active torsions:
REMARK  status: ('A' for Active; 'I' for Inactive)
REMARK    1  A    between atoms: C_8  and  C_6 
REMARK    2  A    between atoms: N_14  and  C_6 
REMARK    3  A    between atoms: C_9  and  C_7 
REMARK    4  A    between atoms: N_16  and  C_7 
REMARK    5  A    between atoms: O_18  and  C_8 
REMARK    6  A    between atoms: C_9  and  O_19 
REMARK    7  A    between atoms: C_10  and  O_20 
REMARK    8  A    between atoms: O_21  and  C_10 
REMARK    9  A    between atoms: O_21  and  C_11 
ROOT
HETATM    1  C   UNK N   1      19.945  17.631   2.921  0.00  0.00     0.135 C 
HETATM    2  N   UNK N   1      20.967  18.365   2.623  0.00  0.00    -0.361 N 
ATOM      3  HN  UNK N   1      21.885  17.922   2.573  1.00  0.00     0.162 HD
ENDROOT
BRANCH   1   4
HETATM    4  C   UNK N   1      20.125  16.180   3.299  0.00  0.00     0.155 C 
HETATM    5  C   UNK N   1      21.223  15.480   2.503  0.00  0.00     0.041 C 
BRANCH   4   6
HETATM    6  N   UNK N   1      20.392  16.088   4.725  0.00  0.00    -0.339 N 
HETATM    7  C   UNK N   1      19.578  15.569   5.586  0.00  0.00     0.259 C 
ATOM      8  HN  UNK N   1      21.278  16.457   5.069  1.00  0.00     0.164 HD
BRANCH   7   9
HETATM    9  O   UNK N   1      18.379  15.077   5.191  0.00  0.00    -0.327 OA
HETATM   10  H   UNK N   1      17.659  14.717   5.671  0.00  0.00     0.221 HD
ENDBRANCH   7   9
BRANCH   7  11
HETATM   11  O   UNK N   1      19.967  15.465   6.883  0.00  0.00    -0.307 OA
BRANCH  11  12
HETATM   12  C   UNK N   1      20.876  14.540   7.370  0.00  0.00     0.060 C 
HETATM   13  C   UNK N   1      20.784  13.224   6.614  0.00  0.00     0.046 C 
HETATM   14  C   UNK N   1      20.558  14.278   8.826  0.00  0.00     0.046 C 
HETATM   15  C   UNK N   1      22.295  15.083   7.289  0.00  0.00     0.046 C 
ENDBRANCH  11  12
ENDBRANCH   7  11
ENDBRANCH   4   6
ENDBRANCH   1   4
BRANCH   1  16
HETATM   16  O   UNK N   1      18.704  18.161   2.952  0.00  0.00    -0.348 OA
HETATM   17  H   UNK N   1      17.806  18.374   3.115  0.00  0.00     0.219 HD
ENDBRANCH   1  16
BRANCH   2  18
HETATM   18  C   UNK N   1      20.876  19.787   2.357  0.00  0.00     0.153 C 
HETATM   19  C   UNK N   1      22.188  20.436   2.758  0.00  0.00     0.041 C 
BRANCH  18  20
HETATM   20  C   UNK N   1      20.591  20.052   0.904  0.00  0.00     0.132 C 
HETATM   21  N   UNK N   1      20.401  21.254   0.499  0.00  0.00    -0.382 N 
HETATM   22  H   UNK N   1      20.107  21.465  -0.417  0.00  0.00     0.158 HD
ATOM     23  HN  UNK N   1      20.560  22.022   1.152  1.00  0.00     0.158 HD
BRANCH  20  24
HETATM   24  O   UNK N   1      20.515  19.035   0.024  0.00  0.00    -0.348 OA
HETATM   25  H   UNK N   1      21.290  18.706  -0.388  0.00  0.00     0.219 HD
ENDBRANCH  20  24
ENDBRANCH  18  20
ENDBRANCH   2  18
TORSDOF 9
ENDMDL
MODEL 8
REMARK VINA RESULT:      -5.1      6.090     10.106
REMARK  9 active torsions:
REMARK  status: ('A' for Active; 'I' for Inactive)
REMARK    1  A    between atoms: C_8  and  C_6 
REMARK    2  A    between atoms: N_14  and  C_6 
REMARK    3  A    between atoms: C_9  and  C_7 
REMARK    4  A    between atoms: N_16  and  C_7 
REMARK    5  A    between atoms: O_18  and  C_8 
REMARK    6  A    between atoms: C_9  and  O_19 
REMARK    7  A    between atoms: C_10  and  O_20 
REMARK    8  A    between atoms: O_21  and  C_10 
REMARK    9  A    between atoms: O_21  and  C_11 
ROOT
HETATM    1  C   UNK N   1      36.729  14.580  10.324  0.00  0.00     0.135 C 
HETATM    2  N   UNK N   1      35.629  14.478   9.653  0.00  0.00    -0.361 N 
ATOM      3  HN  UNK N   1      35.299  13.546   9.402  1.00  0.00     0.162 HD
ENDROOT
BRANCH   1   4
HETATM    4  C   UNK N   1      37.563  13.357  10.625  0.00  0.00     0.155 C 
HETATM    5  C   UNK N   1      38.979  13.439  10.059  0.00  0.00     0.041 C 
BRANCH   4   6
HETATM    6  N   UNK N   1      37.601  13.147  12.062  0.00  0.00    -0.339 N 
HETATM    7  C   UNK N   1      37.081  12.126  12.662  0.00  0.00     0.259 C 
ATOM      8  HN  UNK N   1      38.068  13.850  12.636  1.00  0.00     0.164 HD
BRANCH   7   9
HETATM    9  O   UNK N   1      36.435  11.167  11.956  0.00  0.00    -0.327 OA
HETATM   10  H   UNK N   1      35.552  11.098  11.651  0.00  0.00     0.221 HD
ENDBRANCH   7   9
BRANCH   7  11
HETATM   11  O   UNK N   1      37.247  11.993  14.004  0.00  0.00    -0.307 OA
BRANCH  11  12
HETATM   12  C   UNK N   1      36.386  12.495  14.966  0.00  0.00     0.060 C 
HETATM   13  C   UNK N   1      36.263  11.546  16.148  0.00  0.00     0.046 C 
HETATM   14  C   UNK N   1      35.017  12.662  14.343  0.00  0.00     0.046 C 
HETATM   15  C   UNK N   1      36.853  13.861  15.449  0.00  0.00     0.046 C 
ENDBRANCH  11  12
ENDBRANCH   7  11
ENDBRANCH   4   6
ENDBRANCH   1   4
BRANCH   1  16
HETATM   16  O   UNK N   1      37.181  15.789  10.723  0.00  0.00    -0.348 OA
HETATM   17  H   UNK N   1      37.316  16.697  10.909  0.00  0.00     0.219 HD
ENDBRANCH   1  16
BRANCH   2  18
HETATM   18  C   UNK N   1      34.839  15.622   9.239  0.00  0.00     0.153 C 
HETATM   19  C   UNK N   1      34.750  15.620   7.724  0.00  0.00     0.041 C 
BRANCH  18  20
HETATM   20  C   UNK N   1      33.460  15.576   9.838  0.00  0.00     0.132 C 
HETATM   21  N   UNK N   1      32.476  16.114   9.215  0.00  0.00    -0.382 N 
HETATM   22  H   UNK N   1      31.580  16.203   9.616  0.00  0.00     0.158 HD
ATOM     23  HN  UNK N   1      32.626  16.463   8.268  1.00  0.00     0.158 HD
BRANCH  20  24
HETATM   24  O   UNK N   1      33.251  14.992  11.033  0.00  0.00    -0.348 OA
HETATM   25  H   UNK N   1      33.667  15.327  11.803  0.00  0.00     0.219 HD
ENDBRANCH  20  24
ENDBRANCH  18  20
ENDBRANCH   2  18
TORSDOF 9
ENDMDL
MODEL 9
REMARK VINA RESULT:      -5.0     11.736     13.507
REMARK  9 active torsions:
REMARK  status: ('A' for Active; 'I' for Inactive)
REMARK    1  A    between atoms: C_8  and  C_6 
REMARK    2  A    between atoms: N_14  and  C_6 
REMARK    3  A    between atoms: C_9  and  C_7 
REMARK    4  A    between atoms: N_16  and  C_7 
REMARK    5  A    between atoms: O_18  and  C_8 
REMARK    6  A    between atoms: C_9  and  O_19 
REMARK    7  A    between atoms: C_10  and  O_20 
REMARK    8  A    between atoms: O_21  and  C_10 
REMARK    9  A    between atoms: O_21  and  C_11 
ROOT
HETATM    1  C   UNK N   1      30.279  23.515  -2.988  0.00  0.00     0.135 C 
HETATM    2  N   UNK N   1      30.624  22.716  -3.944  0.00  0.00    -0.361 N 
ATOM      3  HN  UNK N   1      30.572  23.057  -4.904  1.00  0.00     0.162 HD
ENDROOT
BRANCH   1   4
HETATM    4  C   UNK N   1      29.704  24.878  -3.294  0.00  0.00     0.155 C 
HETATM    5  C   UNK N   1      30.771  25.942  -3.534  0.00  0.00     0.041 C 
BRANCH   4   6
HETATM    6  N   UNK N   1      28.819  24.776  -4.443  0.00  0.00    -0.339 N 
HETATM    7  C   UNK N   1      27.606  25.223  -4.469  0.00  0.00     0.259 C 
ATOM      8  HN  UNK N   1      29.178  24.322  -5.283  1.00  0.00     0.164 HD
BRANCH   7   9
HETATM    9  O   UNK N   1      27.069  25.822  -3.379  0.00  0.00    -0.327 OA
HETATM   10  H   UNK N   1      27.444  26.108  -2.569  0.00  0.00     0.221 HD
ENDBRANCH   7   9
BRANCH   7  11
HETATM   11  O   UNK N   1      26.897  25.144  -5.625  0.00  0.00    -0.307 OA
BRANCH  11  12
HETATM   12  C   UNK N   1      26.400  26.227  -6.330  0.00  0.00     0.060 C 
HETATM   13  C   UNK N   1      25.053  26.673  -5.783  0.00  0.00     0.046 C 
HETATM   14  C   UNK N   1      26.216  25.814  -7.775  0.00  0.00     0.046 C 
HETATM   15  C   UNK N   1      27.381  27.390  -6.295  0.00  0.00     0.046 C 
ENDBRANCH  11  12
ENDBRANCH   7  11
ENDBRANCH   4   6
ENDBRANCH   1   4
BRANCH   1  16
HETATM   16  O   UNK N   1      30.375  23.126  -1.699  0.00  0.00    -0.348 OA
HETATM   17  H   UNK N   1      30.570  22.707  -0.884  0.00  0.00     0.219 HD
ENDBRANCH   1  16
BRANCH   2  18
HETATM   18  C   UNK N   1      31.078  21.357  -3.721  0.00  0.00     0.153 C 
HETATM   19  C   UNK N   1      30.940  20.585  -5.021  0.00  0.00     0.041 C 
BRANCH  18  20
HETATM   20  C   UNK N   1      32.508  21.332  -3.255  0.00  0.00     0.132 C 
HETATM   21  N   UNK N   1      33.459  21.480  -4.103  0.00  0.00    -0.382 N 
HETATM   22  H   UNK N   1      34.408  21.364  -3.862  0.00  0.00     0.158 HD
ATOM     23  HN  UNK N   1      33.225  21.727  -5.065  1.00  0.00     0.158 HD
BRANCH  20  24
HETATM   24  O   UNK N   1      32.802  21.137  -1.955  0.00  0.00    -0.348 OA
HETATM   25  H   UNK N   1      33.280  21.784  -1.475  0.00  0.00     0.219 HD
ENDBRANCH  20  24
ENDBRANCH  18  20
ENDBRANCH   2  18
TORSDOF 9
ENDMDL
