MODEL 1
REMARK VINA RESULT:      -6.3      0.000      0.000
REMARK  13 active torsions:
REMARK  status: ('A' for Active; 'I' for Inactive)
REMARK    1  A    between atoms: C_8  and  C_4 
REMARK    2  A    between atoms: C_13  and  C_8 
REMARK    3  A    between atoms: C_8  and  N_20 
REMARK    4  A    between atoms: C_11  and  C_9 
REMARK    5  A    between atoms: C_14  and  C_10 
REMARK    6  A    between atoms: C_12  and  C_11 
REMARK    7  A    between atoms: C_12  and  O_28 
REMARK    8  A    between atoms: O_29  and  C_14 
REMARK    9  A    between atoms: C_17  and  C_15 
REMARK   10  A    between atoms: O_32  and  C_15 
REMARK   11  A    between atoms: N_18  and  C_16 
REMARK   12  A    between atoms: O_33  and  C_17 
REMARK   13  A    between atoms: O_33  and  N_25 
ROOT
HETATM    1  C   UNK N   1      23.277  18.783   4.375  0.00  0.00     0.132 C 
HETATM    2  N   UNK N   1      24.401  19.417   4.262  0.00  0.00    -0.259 N 
ATOM      3  HN  UNK N   1      24.454  20.212   3.625  1.00  0.00     0.194 HD
ENDROOT
BRANCH   1   4
HETATM    4  C   UNK N   1      22.201  19.139   3.426  0.00  0.00     0.074 A 
HETATM    5  C   UNK N   1      22.204  20.329   2.663  0.00  0.00     0.085 A 
HETATM    6  S   UNK N   1      20.705  20.385   1.952  0.00  0.00    -0.064 SA
HETATM    7  C   UNK N   1      20.103  18.998   2.592  0.00  0.00     0.142 A 
HETATM    8  N   UNK N   1      21.027  18.414   3.385  0.00  0.00    -0.335 N 
HETATM    9  H   UNK N   1      20.880  17.574   3.875  0.00  0.00     0.168 HD
BRANCH   7  10
HETATM   10  N   UNK N   1      18.909  18.568   2.450  0.00  0.00    -0.380 N 
HETATM   11  H   UNK N   1      18.659  17.616   2.423  0.00  0.00     0.158 HD
ATOM     12  HN  UNK N   1      18.164  19.258   2.359  1.00  0.00     0.158 HD
ENDBRANCH   7  10
ENDBRANCH   1   4
BRANCH   1  13
HETATM   13  C   UNK N   1      23.219  17.460   5.060  0.00  0.00     0.168 C 
HETATM   14  N   UNK N   1      23.808  16.385   4.641  0.00  0.00    -0.355 N 
ATOM     15  HN  UNK N   1      23.814  15.596   5.288  1.00  0.00     0.162 HD
BRANCH  14  16
HETATM   16  C   UNK N   1      24.460  16.166   3.362  0.00  0.00     0.177 C 
BRANCH  16  17
HETATM   17  C   UNK N   1      25.880  15.717   3.568  0.00  0.00     0.259 C 
HETATM   18  O   UNK N   1      26.813  16.339   3.091  0.00  0.00    -0.305 OA
ENDBRANCH  16  17
BRANCH  16  19
HETATM   19  C   UNK N   1      23.650  15.038   2.700  0.00  0.00     0.173 C 
HETATM   20  N   UNK N   1      22.431  15.609   2.171  0.00  0.00    -0.368 N 
HETATM   21  C   UNK N   1      21.557  14.952   1.487  0.00  0.00     0.109 C 
ATOM     22  HN  UNK N   1      22.250  16.597   2.351  1.00  0.00     0.161 HD
HETATM   23  C   UNK N   1      21.817  13.529   1.090  0.00  0.00    -0.025 C 
HETATM   24  C   UNK N   1      20.842  12.765   0.597  0.00  0.00     0.022 C 
HETATM   25  C   UNK N   1      23.168  12.899   1.312  0.00  0.00     0.116 C 
HETATM   26  S   UNK N   1      24.515  14.143   1.375  0.00  0.00    -0.137 SA
BRANCH  21  27
HETATM   27  C   UNK N   1      20.312  15.667   1.126  0.00  0.00     0.193 C 
HETATM   28  O   UNK N   1      20.269  16.441   0.184  0.00  0.00    -0.645 OA
BRANCH  27  29
HETATM   29  O   UNK N   1      19.203  15.452   1.851  0.00  0.00    -0.772 OA
HETATM   30  H   UNK N   1      19.167  15.600   2.775  0.00  0.00     0.167 HD
ENDBRANCH  27  29
ENDBRANCH  21  27
ENDBRANCH  16  19
ENDBRANCH  14  16
BRANCH  13  31
HETATM   31  O   UNK N   1      22.502  17.384   6.196  0.00  0.00    -0.344 OA
HETATM   32  H   UNK N   1      22.071  16.889   6.865  0.00  0.00     0.219 HD
ENDBRANCH  13  31
ENDBRANCH   1  13
BRANCH   2  33
HETATM   33  O   UNK N   1      25.482  19.071   4.940  0.00  0.00    -0.258 OA
BRANCH  33  34
HETATM   34  C   UNK N   1      26.663  19.804   4.875  0.00  0.00     0.166 C 
HETATM   35  C   UNK N   1      26.775  20.380   3.476  0.00  0.00     0.060 C 
HETATM   36  C   UNK N   1      26.651  20.984   5.850  0.00  0.00     0.060 C 
BRANCH  34  37
HETATM   37  C   UNK N   1      27.868  18.924   5.148  0.00  0.00     0.178 C 
HETATM   38  O   UNK N   1      28.167  18.622   6.291  0.00  0.00    -0.648 OA
BRANCH  37  39
HETATM   39  O   UNK N   1      28.606  18.437   4.130  0.00  0.00    -0.774 OA
HETATM   40  H   UNK N   1      29.128  17.658   4.108  0.00  0.00     0.167 HD
ENDBRANCH  37  39
ENDBRANCH  34  37
ENDBRANCH  33  34
ENDBRANCH   2  33
TORSDOF 13
ENDMDL
MODEL 2
REMARK VINA RESULT:      -6.3      6.679     10.107
REMARK  13 active torsions:
REMARK  status: ('A' for Active; 'I' for Inactive)
REMARK    1  A    between atoms: C_8  and  C_4 
REMARK    2  A    between atoms: C_13  and  C_8 
REMARK    3  A    between atoms: C_8  and  N_20 
REMARK    4  A    between atoms: C_11  and  C_9 
REMARK    5  A    between atoms: C_14  and  C_10 
REMARK    6  A    between atoms: C_12  and  C_11 
REMARK    7  A    between atoms: C_12  and  O_28 
REMARK    8  A    between atoms: O_29  and  C_14 
REMARK    9  A    between atoms: C_17  and  C_15 
REMARK   10  A    between atoms: O_32  and  C_15 
REMARK   11  A    between atoms: N_18  and  C_16 
REMARK   12  A    between atoms: O_33  and  C_17 
REMARK   13  A    between atoms: O_33  and  N_25 
ROOT
HETATM    1  C   UNK N   1      32.927  16.482   7.680  0.00  0.00     0.132 C 
HETATM    2  N   UNK N   1      33.300  15.474   8.401  0.00  0.00    -0.259 N 
ATOM      3  HN  UNK N   1      33.352  14.552   7.966  1.00  0.00     0.194 HD
ENDROOT
BRANCH   1   4
HETATM    4  C   UNK N   1      32.415  16.192   6.324  0.00  0.00     0.074 A 
HETATM    5  C   UNK N   1      32.170  14.882   5.853  0.00  0.00     0.085 A 
HETATM    6  S   UNK N   1      31.845  15.063   4.235  0.00  0.00    -0.064 SA
HETATM    7  C   UNK N   1      32.024  16.694   4.153  0.00  0.00     0.142 A 
HETATM    8  N   UNK N   1      32.339  17.187   5.369  0.00  0.00    -0.335 N 
HETATM    9  H   UNK N   1      32.496  18.141   5.553  0.00  0.00     0.168 HD
BRANCH   7  10
HETATM   10  N   UNK N   1      31.970  17.397   3.089  0.00  0.00    -0.380 N 
HETATM   11  H   UNK N   1      32.751  17.802   2.647  0.00  0.00     0.158 HD
ATOM     12  HN  UNK N   1      31.054  17.549   2.666  1.00  0.00     0.158 HD
ENDBRANCH   7  10
ENDBRANCH   1   4
BRANCH   1  13
HETATM   13  C   UNK N   1      32.562  17.778   8.321  0.00  0.00     0.168 C 
HETATM   14  N   UNK N   1      31.373  18.091   8.731  0.00  0.00    -0.355 N 
ATOM     15  HN  UNK N   1      31.301  18.941   9.290  1.00  0.00     0.162 HD
BRANCH  14  16
HETATM   16  C   UNK N   1      30.131  17.377   8.491  0.00  0.00     0.177 C 
BRANCH  16  17
HETATM   17  C   UNK N   1      29.309  17.320   9.748  0.00  0.00     0.259 C 
HETATM   18  O   UNK N   1      29.530  16.484  10.608  0.00  0.00    -0.305 OA
ENDBRANCH  16  17
BRANCH  16  19
HETATM   19  C   UNK N   1      29.399  18.217   7.430  0.00  0.00     0.173 C 
HETATM   20  N   UNK N   1      29.057  17.349   6.325  0.00  0.00    -0.368 N 
HETATM   21  C   UNK N   1      28.371  17.716   5.298  0.00  0.00     0.109 C 
ATOM     22  HN  UNK N   1      29.381  16.382   6.361  1.00  0.00     0.161 HD
HETATM   23  C   UNK N   1      27.769  19.089   5.237  0.00  0.00    -0.025 C 
HETATM   24  C   UNK N   1      27.264  19.568   4.100  0.00  0.00     0.022 C 
HETATM   25  C   UNK N   1      27.788  19.995   6.441  0.00  0.00     0.116 C 
HETATM   26  S   UNK N   1      27.897  19.059   8.015  0.00  0.00    -0.137 SA
BRANCH  21  27
HETATM   27  C   UNK N   1      28.216  16.728   4.205  0.00  0.00     0.193 C 
HETATM   28  O   UNK N   1      28.865  16.808   3.175  0.00  0.00    -0.645 OA
BRANCH  27  29
HETATM   29  O   UNK N   1      27.345  15.719   4.357  0.00  0.00    -0.772 OA
HETATM   30  H   UNK N   1      26.971  15.494   5.186  0.00  0.00     0.167 HD
ENDBRANCH  27  29
ENDBRANCH  21  27
ENDBRANCH  16  19
ENDBRANCH  14  16
BRANCH  13  31
HETATM   31  O   UNK N   1      33.543  18.684   8.483  0.00  0.00    -0.344 OA
HETATM   32  H   UNK N   1      33.911  19.533   8.332  0.00  0.00     0.219 HD
ENDBRANCH  13  31
ENDBRANCH   1  13
BRANCH   2  33
HETATM   33  O   UNK N   1      33.616  15.593   9.679  0.00  0.00    -0.258 OA
BRANCH  33  34
HETATM   34  C   UNK N   1      34.831  15.143  10.187  0.00  0.00     0.166 C 
HETATM   35  C   UNK N   1      34.552  14.443  11.503  0.00  0.00     0.060 C 
HETATM   36  C   UNK N   1      35.488  14.119   9.259  0.00  0.00     0.060 C 
BRANCH  34  37
HETATM   37  C   UNK N   1      35.782  16.300  10.431  0.00  0.00     0.178 C 
HETATM   38  O   UNK N   1      35.429  17.447  10.216  0.00  0.00    -0.648 OA
BRANCH  37  39
HETATM   39  O   UNK N   1      37.019  16.079  10.919  0.00  0.00    -0.774 OA
HETATM   40  H   UNK N   1      37.265  15.736  11.756  0.00  0.00     0.167 HD
ENDBRANCH  37  39
ENDBRANCH  34  37
ENDBRANCH  33  34
ENDBRANCH   2  33
TORSDOF 13
ENDMDL
MODEL 3
REMARK VINA RESULT:      -6.2     10.974     13.858
REMARK  13 active torsions:
REMARK  status: ('A' for Active; 'I' for Inactive)
REMARK    1  A    between atoms: C_8  and  C_4 
REMARK    2  A    between atoms: C_13  and  C_8 
REMARK    3  A    between atoms: C_8  and  N_20 
REMARK    4  A    between atoms: C_11  and  C_9 
REMARK    5  A    between atoms: C_14  and  C_10 
REMARK    6  A    between atoms: C_12  and  C_11 
REMARK    7  A    between atoms: C_12  and  O_28 
REMARK    8  A    between atoms: O_29  and  C_14 
REMARK    9  A    between atoms: C_17  and  C_15 
REMARK   10  A    between atoms: O_32  and  C_15 
REMARK   11  A    between atoms: N_18  and  C_16 
REMARK   12  A    between atoms: O_33  and  C_17 
REMARK   13  A    between atoms: O_33  and  N_25 
ROOT
HETATM    1  C   UNK N   1      27.470  24.313  -5.053  0.00  0.00     0.132 C 
HETATM    2  N   UNK N   1      28.631  23.737  -5.046  0.00  0.00    -0.259 N 
ATOM      3  HN  UNK N   1      28.950  23.267  -5.894  1.00  0.00     0.194 HD
ENDROOT
BRANCH   1   4
HETATM    4  C   UNK N   1      26.606  24.082  -6.230  0.00  0.00     0.074 A 
HETATM    5  C   UNK N   1      26.066  22.817  -6.557  0.00  0.00     0.085 A 
HETATM    6  S   UNK N   1      25.386  23.017  -8.058  0.00  0.00    -0.064 SA
HETATM    7  C   UNK N   1      25.775  24.599  -8.269  0.00  0.00     0.142 A 
HETATM    8  N   UNK N   1      26.446  25.059  -7.192  0.00  0.00    -0.335 N 
HETATM    9  H   UNK N   1      26.780  25.980  -7.103  0.00  0.00     0.168 HD
BRANCH   7  10
HETATM   10  N   UNK N   1      25.566  25.283  -9.326  0.00  0.00    -0.380 N 
HETATM   11  H   UNK N   1      24.757  25.218  -9.883  0.00  0.00     0.158 HD
ATOM     12  HN  UNK N   1      26.288  25.944  -9.614  1.00  0.00     0.158 HD
ENDBRANCH   7  10
ENDBRANCH   1   4
BRANCH   1  13
HETATM   13  C   UNK N   1      26.839  24.759  -3.778  0.00  0.00     0.168 C 
HETATM   14  N   UNK N   1      26.386  25.953  -3.555  0.00  0.00    -0.355 N 
ATOM     15  HN  UNK N   1      25.840  26.073  -2.702  1.00  0.00     0.162 HD
BRANCH  14  16
HETATM   16  C   UNK N   1      26.564  27.140  -4.374  0.00  0.00     0.177 C 
BRANCH  16  17
HETATM   17  C   UNK N   1      25.230  27.664  -4.830  0.00  0.00     0.259 C 
HETATM   18  O   UNK N   1      24.600  27.102  -5.709  0.00  0.00    -0.305 OA
ENDBRANCH  16  17
BRANCH  16  19
HETATM   19  C   UNK N   1      27.230  28.162  -3.437  0.00  0.00     0.173 C 
HETATM   20  N   UNK N   1      28.663  28.015  -3.556  0.00  0.00    -0.368 N 
HETATM   21  C   UNK N   1      29.523  28.769  -2.961  0.00  0.00     0.109 C 
ATOM     22  HN  UNK N   1      29.017  27.264  -4.149  1.00  0.00     0.161 HD
HETATM   23  C   UNK N   1      29.070  29.959  -2.167  0.00  0.00    -0.025 C 
HETATM   24  C   UNK N   1      29.910  30.605  -1.359  0.00  0.00     0.022 C 
HETATM   25  C   UNK N   1      27.633  30.409  -2.203  0.00  0.00     0.116 C 
HETATM   26  S   UNK N   1      26.780  29.897  -3.744  0.00  0.00    -0.137 SA
BRANCH  21  27
HETATM   27  C   UNK N   1      30.951  28.400  -3.101  0.00  0.00     0.193 C 
HETATM   28  O   UNK N   1      31.406  27.397  -2.576  0.00  0.00    -0.645 OA
BRANCH  27  29
HETATM   29  O   UNK N   1      31.759  29.186  -3.828  0.00  0.00    -0.772 OA
HETATM   30  H   UNK N   1      31.915  30.084  -3.616  0.00  0.00     0.167 HD
ENDBRANCH  27  29
ENDBRANCH  21  27
ENDBRANCH  16  19
ENDBRANCH  14  16
BRANCH  13  31
HETATM   31  O   UNK N   1      26.733  23.851  -2.791  0.00  0.00    -0.344 OA
HETATM   32  H   UNK N   1      26.333  23.094  -2.410  0.00  0.00     0.219 HD
ENDBRANCH  13  31
ENDBRANCH   1  13
BRANCH   2  33
HETATM   33  O   UNK N   1      29.415  23.735  -3.983  0.00  0.00    -0.258 OA
BRANCH  33  34
HETATM   34  C   UNK N   1      30.580  22.976  -3.924  0.00  0.00     0.166 C 
HETATM   35  C   UNK N   1      30.348  21.708  -4.724  0.00  0.00     0.060 C 
HETATM   36  C   UNK N   1      31.764  23.705  -4.564  0.00  0.00     0.060 C 
BRANCH  34  37
HETATM   37  C   UNK N   1      30.918  22.605  -2.492  0.00  0.00     0.178 C 
HETATM   38  O   UNK N   1      31.882  21.900  -2.247  0.00  0.00    -0.648 OA
BRANCH  37  39
HETATM   39  O   UNK N   1      30.176  23.075  -1.469  0.00  0.00    -0.774 OA
HETATM   40  H   UNK N   1      29.794  22.599  -0.758  0.00  0.00     0.167 HD
ENDBRANCH  37  39
ENDBRANCH  34  37
ENDBRANCH  33  34
ENDBRANCH   2  33
TORSDOF 13
ENDMDL
MODEL 4
REMARK VINA RESULT:      -6.2      5.128      8.896
REMARK  13 active torsions:
REMARK  status: ('A' for Active; 'I' for Inactive)
REMARK    1  A    between atoms: C_8  and  C_4 
REMARK    2  A    between atoms: C_13  and  C_8 
REMARK    3  A    between atoms: C_8  and  N_20 
REMARK    4  A    between atoms: C_11  and  C_9 
REMARK    5  A    between atoms: C_14  and  C_10 
REMARK    6  A    between atoms: C_12  and  C_11 
REMARK    7  A    between atoms: C_12  and  O_28 
REMARK    8  A    between atoms: O_29  and  C_14 
REMARK    9  A    between atoms: C_17  and  C_15 
REMARK   10  A    between atoms: O_32  and  C_15 
REMARK   11  A    between atoms: N_18  and  C_16 
REMARK   12  A    between atoms: O_33  and  C_17 
REMARK   13  A    between atoms: O_33  and  N_25 
ROOT
HETATM    1  C   UNK N   1      28.159  16.903   5.525  0.00  0.00     0.132 C 
HETATM    2  N   UNK N   1      28.268  16.751   6.807  0.00  0.00    -0.259 N 
ATOM      3  HN  UNK N   1      27.512  16.289   7.312  1.00  0.00     0.194 HD
ENDROOT
BRANCH   1   4
HETATM    4  C   UNK N   1      26.857  16.567   4.912  0.00  0.00     0.074 A 
HETATM    5  C   UNK N   1      26.724  16.103   3.583  0.00  0.00     0.085 A 
HETATM    6  S   UNK N   1      25.089  16.100   3.293  0.00  0.00    -0.064 SA
HETATM    7  C   UNK N   1      24.602  16.666   4.756  0.00  0.00     0.142 A 
HETATM    8  N   UNK N   1      25.673  16.884   5.549  0.00  0.00    -0.335 N 
HETATM    9  H   UNK N   1      25.617  17.227   6.469  0.00  0.00     0.168 HD
BRANCH   7  10
HETATM   10  N   UNK N   1      23.402  16.954   5.082  0.00  0.00    -0.380 N 
HETATM   11  H   UNK N   1      23.093  17.853   5.338  0.00  0.00     0.158 HD
ATOM     12  HN  UNK N   1      22.715  16.200   5.077  1.00  0.00     0.158 HD
ENDBRANCH   7  10
ENDBRANCH   1   4
BRANCH   1  13
HETATM   13  C   UNK N   1      29.084  17.811   4.788  0.00  0.00     0.168 C 
HETATM   14  N   UNK N   1      30.262  17.479   4.363  0.00  0.00    -0.355 N 
ATOM     15  HN  UNK N   1      30.718  18.146   3.740  1.00  0.00     0.162 HD
BRANCH  14  16
HETATM   16  C   UNK N   1      31.012  16.272   4.666  0.00  0.00     0.177 C 
BRANCH  16  17
HETATM   17  C   UNK N   1      31.797  15.828   3.463  0.00  0.00     0.259 C 
HETATM   18  O   UNK N   1      31.742  14.677   3.066  0.00  0.00    -0.305 OA
ENDBRANCH  16  17
BRANCH  16  19
HETATM   19  C   UNK N   1      31.977  16.686   5.791  0.00  0.00     0.173 C 
HETATM   20  N   UNK N   1      31.859  15.722   6.863  0.00  0.00    -0.368 N 
HETATM   21  C   UNK N   1      32.582  15.730   7.930  0.00  0.00     0.109 C 
ATOM     22  HN  UNK N   1      31.157  14.989   6.768  1.00  0.00     0.161 HD
HETATM   23  C   UNK N   1      33.708  16.710   8.078  0.00  0.00    -0.025 C 
HETATM   24  C   UNK N   1      34.309  16.894   9.253  0.00  0.00     0.022 C 
HETATM   25  C   UNK N   1      34.138  17.573   6.920  0.00  0.00     0.116 C 
HETATM   26  S   UNK N   1      33.722  16.822   5.299  0.00  0.00    -0.137 SA
BRANCH  21  27
HETATM   27  C   UNK N   1      32.245  14.738   8.976  0.00  0.00     0.193 C 
HETATM   28  O   UNK N   1      32.419  13.543   8.804  0.00  0.00    -0.645 OA
BRANCH  27  29
HETATM   29  O   UNK N   1      31.742  15.167  10.144  0.00  0.00    -0.772 OA
HETATM   30  H   UNK N   1      32.129  15.863  10.636  0.00  0.00     0.167 HD
ENDBRANCH  27  29
ENDBRANCH  21  27
ENDBRANCH  16  19
ENDBRANCH  14  16
BRANCH  13  31
HETATM   31  O   UNK N   1      28.658  19.064   4.551  0.00  0.00    -0.344 OA
HETATM   32  H   UNK N   1      27.978  19.708   4.511  0.00  0.00     0.219 HD
ENDBRANCH  13  31
ENDBRANCH   1  13
BRANCH   2  33
HETATM   33  O   UNK N   1      29.321  17.173   7.484  0.00  0.00    -0.258 OA
BRANCH  33  34
HETATM   34  C   UNK N   1      29.202  17.974   8.616  0.00  0.00     0.166 C 
HETATM   35  C   UNK N   1      30.569  18.555   8.919  0.00  0.00     0.060 C 
HETATM   36  C   UNK N   1      28.252  19.150   8.380  0.00  0.00     0.060 C 
BRANCH  34  37
HETATM   37  C   UNK N   1      28.730  17.164   9.810  0.00  0.00     0.178 C 
HETATM   38  O   UNK N   1      27.581  16.759   9.867  0.00  0.00    -0.648 OA
BRANCH  37  39
HETATM   39  O   UNK N   1      29.582  16.854  10.808  0.00  0.00    -0.774 OA
HETATM   40  H   UNK N   1      30.503  17.019  10.862  0.00  0.00     0.167 HD
ENDBRANCH  37  39
ENDBRANCH  34  37
ENDBRANCH  33  34
ENDBRANCH   2  33
TORSDOF 13
ENDMDL
MODEL 5
REMARK VINA RESULT:      -6.2     11.594     15.397
REMARK  13 active torsions:
REMARK  status: ('A' for Active; 'I' for Inactive)
REMARK    1  A    between atoms: C_8  and  C_4 
REMARK    2  A    between atoms: C_13  and  C_8 
REMARK    3  A    between atoms: C_8  and  N_20 
REMARK    4  A    between atoms: C_11  and  C_9 
REMARK    5  A    between atoms: C_14  and  C_10 
REMARK    6  A    between atoms: C_12  and  C_11 
REMARK    7  A    between atoms: C_12  and  O_28 
REMARK    8  A    between atoms: O_29  and  C_14 
REMARK    9  A    between atoms: C_17  and  C_15 
REMARK   10  A    between atoms: O_32  and  C_15 
REMARK   11  A    between atoms: N_18  and  C_16 
REMARK   12  A    between atoms: O_33  and  C_17 
REMARK   13  A    between atoms: O_33  and  N_25 
ROOT
HETATM    1  C   UNK N   1      37.923  13.727  10.311  0.00  0.00     0.132 C 
HETATM    2  N   UNK N   1      37.934  12.909  11.315  0.00  0.00    -0.259 N 
ATOM      3  HN  UNK N   1      38.507  12.066  11.254  1.00  0.00     0.194 HD
ENDROOT
BRANCH   1   4
HETATM    4  C   UNK N   1      38.591  13.284   9.069  0.00  0.00     0.074 A 
HETATM    5  C   UNK N   1      38.875  11.929   8.784  0.00  0.00     0.085 A 
HETATM    6  S   UNK N   1      39.823  11.968   7.422  0.00  0.00    -0.064 SA
HETATM    7  C   UNK N   1      39.872  13.598   7.231  0.00  0.00     0.142 A 
HETATM    8  N   UNK N   1      39.157  14.201   8.205  0.00  0.00    -0.335 N 
HETATM    9  H   UNK N   1      39.051  15.175   8.289  0.00  0.00     0.168 HD
BRANCH   7  10
HETATM   10  N   UNK N   1      40.556  14.227   6.355  0.00  0.00    -0.380 N 
HETATM   11  H   UNK N   1      40.421  15.172   6.114  0.00  0.00     0.158 HD
ATOM     12  HN  UNK N   1      41.295  13.714   5.873  1.00  0.00     0.158 HD
ENDBRANCH   7  10
ENDBRANCH   1   4
BRANCH   1  13
HETATM   13  C   UNK N   1      36.901  14.810  10.228  0.00  0.00     0.168 C 
HETATM   14  N   UNK N   1      35.814  14.747   9.526  0.00  0.00    -0.355 N 
ATOM     15  HN  UNK N   1      35.134  15.490   9.685  1.00  0.00     0.162 HD
BRANCH  14  16
HETATM   16  C   UNK N   1      35.448  13.746   8.538  0.00  0.00     0.177 C 
BRANCH  16  17
HETATM   17  C   UNK N   1      34.435  12.794   9.111  0.00  0.00     0.259 C 
HETATM   18  O   UNK N   1      33.253  13.089   9.166  0.00  0.00    -0.305 OA
ENDBRANCH  16  17
BRANCH  16  19
HETATM   19  C   UNK N   1      34.813  14.549   7.389  0.00  0.00     0.173 C 
HETATM   20  N   UNK N   1      34.576  15.896   7.857  0.00  0.00    -0.368 N 
HETATM   21  C   UNK N   1      34.120  16.852   7.122  0.00  0.00     0.109 C 
ATOM     22  HN  UNK N   1      34.783  16.104   8.834  1.00  0.00     0.161 HD
HETATM   23  C   UNK N   1      33.905  16.643   5.652  0.00  0.00    -0.025 C 
HETATM   24  C   UNK N   1      33.220  17.526   4.926  0.00  0.00     0.022 C 
HETATM   25  C   UNK N   1      34.389  15.389   4.971  0.00  0.00     0.116 C 
HETATM   26  S   UNK N   1      35.793  14.611   5.859  0.00  0.00    -0.137 SA
BRANCH  21  27
HETATM   27  C   UNK N   1      33.827  18.137   7.797  0.00  0.00     0.193 C 
HETATM   28  O   UNK N   1      32.701  18.419   8.173  0.00  0.00    -0.645 OA
BRANCH  27  29
HETATM   29  O   UNK N   1      34.826  19.008   8.003  0.00  0.00    -0.772 OA
HETATM   30  H   UNK N   1      35.428  19.256   7.329  0.00  0.00     0.167 HD
ENDBRANCH  27  29
ENDBRANCH  21  27
ENDBRANCH  16  19
ENDBRANCH  14  16
BRANCH  13  31
HETATM   31  O   UNK N   1      37.130  15.930  10.936  0.00  0.00    -0.344 OA
HETATM   32  H   UNK N   1      37.145  16.864  11.015  0.00  0.00     0.219 HD
ENDBRANCH  13  31
ENDBRANCH   1  13
BRANCH   2  33
HETATM   33  O   UNK N   1      37.232  13.124  12.414  0.00  0.00    -0.258 OA
BRANCH  33  34
HETATM   34  C   UNK N   1      36.377  12.163  12.946  0.00  0.00     0.166 C 
HETATM   35  C   UNK N   1      36.296  11.016  11.957  0.00  0.00     0.060 C 
HETATM   36  C   UNK N   1      36.916  11.592  14.259  0.00  0.00     0.060 C 
BRANCH  34  37
HETATM   37  C   UNK N   1      34.987  12.731  13.164  0.00  0.00     0.178 C 
HETATM   38  O   UNK N   1      34.284  12.315  14.069  0.00  0.00    -0.648 OA
BRANCH  37  39
HETATM   39  O   UNK N   1      34.522  13.726  12.381  0.00  0.00    -0.774 OA
HETATM   40  H   UNK N   1      34.975  14.206  11.716  0.00  0.00     0.167 HD
ENDBRANCH  37  39
ENDBRANCH  34  37
ENDBRANCH  33  34
ENDBRANCH   2  33
TORSDOF 13
ENDMDL
MODEL 6
REMARK VINA RESULT:      -6.1     11.278     12.691
REMARK  13 active torsions:
REMARK  status: ('A' for Active; 'I' for Inactive)
REMARK    1  A    between atoms: C_8  and  C_4 
REMARK    2  A    between atoms: C_13  and  C_8 
REMARK    3  A    between atoms: C_8  and  N_20 
REMARK    4  A    between atoms: C_11  and  C_9 
REMARK    5  A    between atoms: C_14  and  C_10 
REMARK    6  A    between atoms: C_12  and  C_11 
REMARK    7  A    between atoms: C_12  and  O_28 
REMARK    8  A    between atoms: O_29  and  C_14 
REMARK    9  A    between atoms: C_17  and  C_15 
REMARK   10  A    between atoms: O_32  and  C_15 
REMARK   11  A    between atoms: N_18  and  C_16 
REMARK   12  A    between atoms: O_33  and  C_17 
REMARK   13  A    between atoms: O_33  and  N_25 
ROOT
HETATM    1  C   UNK N   1      26.724  25.136  -5.132  0.00  0.00     0.132 C 
HETATM    2  N   UNK N   1      27.086  26.375  -5.232  0.00  0.00    -0.259 N 
ATOM      3  HN  UNK N   1      26.913  26.868  -6.109  1.00  0.00     0.194 HD
ENDROOT
BRANCH   1   4
HETATM    4  C   UNK N   1      26.258  24.465  -6.364  0.00  0.00     0.074 A 
HETATM    5  C   UNK N   1      26.282  25.080  -7.637  0.00  0.00     0.085 A 
HETATM    6  S   UNK N   1      25.452  24.040  -8.630  0.00  0.00    -0.064 SA
HETATM    7  C   UNK N   1      25.083  22.903  -7.504  0.00  0.00     0.142 A 
HETATM    8  N   UNK N   1      25.583  23.262  -6.301  0.00  0.00    -0.335 N 
HETATM    9  H   UNK N   1      25.478  22.731  -5.480  0.00  0.00     0.168 HD
BRANCH   7  10
HETATM   10  N   UNK N   1      24.352  21.874  -7.695  0.00  0.00    -0.380 N 
HETATM   11  H   UNK N   1      23.951  21.333  -6.977  0.00  0.00     0.158 HD
ATOM     12  HN  UNK N   1      24.170  21.594  -8.658  1.00  0.00     0.158 HD
ENDBRANCH   7  10
ENDBRANCH   1   4
BRANCH   1  13
HETATM   13  C   UNK N   1      27.203  24.296  -3.997  0.00  0.00     0.168 C 
HETATM   14  N   UNK N   1      28.425  23.899  -3.836  0.00  0.00    -0.355 N 
ATOM     15  HN  UNK N   1      28.642  23.466  -2.937  1.00  0.00     0.162 HD
BRANCH  14  16
HETATM   16  C   UNK N   1      29.525  23.994  -4.780  0.00  0.00     0.177 C 
BRANCH  16  17
HETATM   17  C   UNK N   1      30.776  24.450  -4.081  0.00  0.00     0.259 C 
HETATM   18  O   UNK N   1      30.724  25.011  -3.000  0.00  0.00    -0.305 OA
ENDBRANCH  16  17
BRANCH  16  19
HETATM   19  C   UNK N   1      29.716  22.559  -5.301  0.00  0.00     0.173 C 
HETATM   20  N   UNK N   1      29.044  22.450  -6.577  0.00  0.00    -0.368 N 
HETATM   21  C   UNK N   1      29.068  21.400  -7.324  0.00  0.00     0.109 C 
ATOM     22  HN  UNK N   1      28.515  23.257  -6.907  1.00  0.00     0.161 HD
HETATM   23  C   UNK N   1      29.920  20.223  -6.952  0.00  0.00    -0.025 C 
HETATM   24  C   UNK N   1      29.781  19.051  -7.572  0.00  0.00     0.022 C 
HETATM   25  C   UNK N   1      30.903  20.309  -5.812  0.00  0.00     0.116 C 
HETATM   26  S   UNK N   1      31.446  22.032  -5.490  0.00  0.00    -0.137 SA
BRANCH  21  27
HETATM   27  C   UNK N   1      28.226  21.423  -8.542  0.00  0.00     0.193 C 
HETATM   28  O   UNK N   1      27.218  20.741  -8.634  0.00  0.00    -0.645 OA
BRANCH  27  29
HETATM   29  O   UNK N   1      28.579  22.216  -9.565  0.00  0.00    -0.772 OA
HETATM   30  H   UNK N   1      29.431  22.191  -9.952  0.00  0.00     0.167 HD
ENDBRANCH  27  29
ENDBRANCH  21  27
ENDBRANCH  16  19
ENDBRANCH  14  16
BRANCH  13  31
HETATM   31  O   UNK N   1      26.294  23.928  -3.076  0.00  0.00    -0.344 OA
HETATM   32  H   UNK N   1      25.457  24.020  -2.664  0.00  0.00     0.219 HD
ENDBRANCH  13  31
ENDBRANCH   1  13
BRANCH   2  33
HETATM   33  O   UNK N   1      27.673  27.025  -4.242  0.00  0.00    -0.258 OA
BRANCH  33  34
HETATM   34  C   UNK N   1      27.604  28.410  -4.122  0.00  0.00     0.166 C 
HETATM   35  C   UNK N   1      28.690  28.845  -3.156  0.00  0.00     0.060 C 
HETATM   36  C   UNK N   1      27.878  29.108  -5.456  0.00  0.00     0.060 C 
BRANCH  34  37
HETATM   37  C   UNK N   1      26.255  28.844  -3.581  0.00  0.00     0.178 C 
HETATM   38  O   UNK N   1      25.485  28.025  -3.108  0.00  0.00    -0.648 OA
BRANCH  37  39
HETATM   39  O   UNK N   1      25.900  30.145  -3.587  0.00  0.00    -0.774 OA
HETATM   40  H   UNK N   1      25.138  30.545  -3.215  0.00  0.00     0.167 HD
ENDBRANCH  37  39
ENDBRANCH  34  37
ENDBRANCH  33  34
ENDBRANCH   2  33
TORSDOF 13
ENDMDL
MODEL 7
REMARK VINA RESULT:      -6.1      7.198     10.950
REMARK  13 active torsions:
REMARK  status: ('A' for Active; 'I' for Inactive)
REMARK    1  A    between atoms: C_8  and  C_4 
REMARK    2  A    between atoms: C_13  and  C_8 
REMARK    3  A    between atoms: C_8  and  N_20 
REMARK    4  A    between atoms: C_11  and  C_9 
REMARK    5  A    between atoms: C_14  and  C_10 
REMARK    6  A    between atoms: C_12  and  C_11 
REMARK    7  A    between atoms: C_12  and  O_28 
REMARK    8  A    between atoms: O_29  and  C_14 
REMARK    9  A    between atoms: C_17  and  C_15 
REMARK   10  A    between atoms: O_32  and  C_15 
REMARK   11  A    between atoms: N_18  and  C_16 
REMARK   12  A    between atoms: O_33  and  C_17 
REMARK   13  A    between atoms: O_33  and  N_25 
ROOT
HETATM    1  C   UNK N   1      34.309  15.932   7.102  0.00  0.00     0.132 C 
HETATM    2  N   UNK N   1      34.578  15.535   5.899  0.00  0.00    -0.259 N 
ATOM      3  HN  UNK N   1      35.097  14.665   5.774  1.00  0.00     0.194 HD
ENDROOT
BRANCH   1   4
HETATM    4  C   UNK N   1      34.942  15.195   8.216  0.00  0.00     0.074 A 
HETATM    5  C   UNK N   1      35.432  13.874   8.091  0.00  0.00     0.085 A 
HETATM    6  S   UNK N   1      35.817  13.412   9.638  0.00  0.00    -0.064 SA
HETATM    7  C   UNK N   1      35.371  14.796  10.401  0.00  0.00     0.142 A 
HETATM    8  N   UNK N   1      34.905  15.692   9.504  0.00  0.00    -0.335 N 
HETATM    9  H   UNK N   1      34.579  16.589   9.739  0.00  0.00     0.168 HD
BRANCH   7  10
HETATM   10  N   UNK N   1      35.368  14.984  11.664  0.00  0.00    -0.380 N 
HETATM   11  H   UNK N   1      35.261  15.861  12.098  0.00  0.00     0.158 HD
ATOM     12  HN  UNK N   1      35.485  14.168  12.265  1.00  0.00     0.158 HD
ENDBRANCH   7  10
ENDBRANCH   1   4
BRANCH   1  13
HETATM   13  C   UNK N   1      33.815  17.317   7.350  0.00  0.00     0.168 C 
HETATM   14  N   UNK N   1      32.614  17.615   7.735  0.00  0.00    -0.355 N 
ATOM     15  HN  UNK N   1      32.461  18.583   8.018  1.00  0.00     0.162 HD
BRANCH  14  16
HETATM   16  C   UNK N   1      31.459  16.736   7.813  0.00  0.00     0.177 C 
BRANCH  16  17
HETATM   17  C   UNK N   1      31.288  16.221   9.215  0.00  0.00     0.259 C 
HETATM   18  O   UNK N   1      31.846  15.201   9.584  0.00  0.00    -0.305 OA
ENDBRANCH  16  17
BRANCH  16  19
HETATM   19  C   UNK N   1      30.264  17.631   7.440  0.00  0.00     0.173 C 
HETATM   20  N   UNK N   1      29.729  17.165   6.180  0.00  0.00    -0.368 N 
HETATM   21  C   UNK N   1      28.676  17.647   5.615  0.00  0.00     0.109 C 
ATOM     22  HN  UNK N   1      30.218  16.405   5.707  1.00  0.00     0.161 HD
HETATM   23  C   UNK N   1      27.847  18.685   6.313  0.00  0.00    -0.025 C 
HETATM   24  C   UNK N   1      26.902  19.362   5.660  0.00  0.00     0.022 C 
HETATM   25  C   UNK N   1      28.112  19.047   7.751  0.00  0.00     0.116 C 
HETATM   26  S   UNK N   1      28.929  17.686   8.673  0.00  0.00    -0.137 SA
BRANCH  21  27
HETATM   27  C   UNK N   1      28.339  17.130   4.269  0.00  0.00     0.193 C 
HETATM   28  O   UNK N   1      27.439  16.324   4.101  0.00  0.00    -0.645 OA
BRANCH  27  29
HETATM   29  O   UNK N   1      29.039  17.564   3.210  0.00  0.00    -0.772 OA
HETATM   30  H   UNK N   1      29.959  17.738   3.248  0.00  0.00     0.167 HD
ENDBRANCH  27  29
ENDBRANCH  21  27
ENDBRANCH  16  19
ENDBRANCH  14  16
BRANCH  13  31
HETATM   31  O   UNK N   1      34.683  18.326   7.159  0.00  0.00    -0.344 OA
HETATM   32  H   UNK N   1      35.160  19.071   7.471  0.00  0.00     0.219 HD
ENDBRANCH  13  31
ENDBRANCH   1  13
BRANCH   2  33
HETATM   33  O   UNK N   1      34.207  16.215   4.828  0.00  0.00    -0.258 OA
BRANCH  33  34
HETATM   34  C   UNK N   1      33.144  15.810   4.026  0.00  0.00     0.166 C 
HETATM   35  C   UNK N   1      33.723  15.153   2.787  0.00  0.00     0.060 C 
HETATM   36  C   UNK N   1      32.272  14.766   4.726  0.00  0.00     0.060 C 
BRANCH  34  37
HETATM   37  C   UNK N   1      32.294  16.995   3.608  0.00  0.00     0.178 C 
HETATM   38  O   UNK N   1      31.975  17.845   4.422  0.00  0.00    -0.648 OA
BRANCH  37  39
HETATM   39  O   UNK N   1      31.904  17.141   2.325  0.00  0.00    -0.774 OA
HETATM   40  H   UNK N   1      31.074  17.426   1.996  0.00  0.00     0.167 HD
ENDBRANCH  37  39
ENDBRANCH  34  37
ENDBRANCH  33  34
ENDBRANCH   2  33
TORSDOF 13
ENDMDL
MODEL 8
REMARK VINA RESULT:      -6.1      3.305      5.519
REMARK  13 active torsions:
REMARK  status: ('A' for Active; 'I' for Inactive)
REMARK    1  A    between atoms: C_8  and  C_4 
REMARK    2  A    between atoms: C_13  and  C_8 
REMARK    3  A    between atoms: C_8  and  N_20 
REMARK    4  A    between atoms: C_11  and  C_9 
REMARK    5  A    between atoms: C_14  and  C_10 
REMARK    6  A    between atoms: C_12  and  C_11 
REMARK    7  A    between atoms: C_12  and  O_28 
REMARK    8  A    between atoms: O_29  and  C_14 
REMARK    9  A    between atoms: C_17  and  C_15 
REMARK   10  A    between atoms: O_32  and  C_15 
REMARK   11  A    between atoms: N_18  and  C_16 
REMARK   12  A    between atoms: O_33  and  C_17 
REMARK   13  A    between atoms: O_33  and  N_25 
ROOT
HETATM    1  C   UNK N   1      23.498  18.631   4.402  0.00  0.00     0.132 C 
HETATM    2  N   UNK N   1      22.702  19.101   3.494  0.00  0.00    -0.259 N 
ATOM      3  HN  UNK N   1      23.072  19.770   2.817  1.00  0.00     0.194 HD
ENDROOT
BRANCH   1   4
HETATM    4  C   UNK N   1      24.839  19.244   4.511  0.00  0.00     0.074 A 
HETATM    5  C   UNK N   1      25.574  19.701   3.393  0.00  0.00     0.085 A 
HETATM    6  S   UNK N   1      27.077  20.071   3.992  0.00  0.00    -0.064 SA
HETATM    7  C   UNK N   1      26.801  19.659   5.557  0.00  0.00     0.142 A 
HETATM    8  N   UNK N   1      25.533  19.217   5.704  0.00  0.00    -0.335 N 
HETATM    9  H   UNK N   1      25.151  18.913   6.557  0.00  0.00     0.168 HD
BRANCH   7  10
HETATM   10  N   UNK N   1      27.669  19.658   6.493  0.00  0.00    -0.380 N 
HETATM   11  H   UNK N   1      28.604  19.950   6.387  0.00  0.00     0.158 HD
ATOM     12  HN  UNK N   1      27.374  19.335   7.414  1.00  0.00     0.158 HD
ENDBRANCH   7  10
ENDBRANCH   1   4
BRANCH   1  13
HETATM   13  C   UNK N   1      22.954  17.886   5.574  0.00  0.00     0.168 C 
HETATM   14  N   UNK N   1      23.277  16.673   5.893  0.00  0.00    -0.355 N 
ATOM     15  HN  UNK N   1      22.951  16.347   6.803  1.00  0.00     0.162 HD
BRANCH  14  16
HETATM   16  C   UNK N   1      24.048  15.722   5.112  0.00  0.00     0.177 C 
BRANCH  16  17
HETATM   17  C   UNK N   1      25.320  15.364   5.830  0.00  0.00     0.259 C 
HETATM   18  O   UNK N   1      26.242  16.159   5.911  0.00  0.00    -0.305 OA
ENDBRANCH  16  17
BRANCH  16  19
HETATM   19  C   UNK N   1      23.145  14.480   5.010  0.00  0.00     0.173 C 
HETATM   20  N   UNK N   1      22.366  14.389   6.225  0.00  0.00    -0.368 N 
HETATM   21  C   UNK N   1      21.453  13.504   6.438  0.00  0.00     0.109 C 
ATOM     22  HN  UNK N   1      22.552  15.068   6.962  1.00  0.00     0.161 HD
HETATM   23  C   UNK N   1      21.052  12.549   5.353  0.00  0.00    -0.025 C 
HETATM   24  C   UNK N   1      20.292  11.487   5.618  0.00  0.00     0.022 C 
HETATM   25  C   UNK N   1      21.563  12.720   3.945  0.00  0.00     0.116 C 
HETATM   26  S   UNK N   1      22.025  14.458   3.578  0.00  0.00    -0.137 SA
BRANCH  21  27
HETATM   27  C   UNK N   1      20.838  13.485   7.785  0.00  0.00     0.193 C 
HETATM   28  O   UNK N   1      20.015  14.320   8.124  0.00  0.00    -0.645 OA
BRANCH  27  29
HETATM   29  O   UNK N   1      21.192  12.522   8.650  0.00  0.00    -0.772 OA
HETATM   30  H   UNK N   1      21.397  11.649   8.379  0.00  0.00     0.167 HD
ENDBRANCH  27  29
ENDBRANCH  21  27
ENDBRANCH  16  19
ENDBRANCH  14  16
BRANCH  13  31
HETATM   31  O   UNK N   1      22.063  18.527   6.352  0.00  0.00    -0.344 OA
HETATM   32  H   UNK N   1      21.596  18.624   7.159  0.00  0.00     0.219 HD
ENDBRANCH  13  31
ENDBRANCH   1  13
BRANCH   2  33
HETATM   33  O   UNK N   1      21.431  18.750   3.413  0.00  0.00    -0.258 OA
BRANCH  33  34
HETATM   34  C   UNK N   1      20.614  19.163   2.365  0.00  0.00     0.166 C 
HETATM   35  C   UNK N   1      20.623  18.070   1.313  0.00  0.00     0.060 C 
HETATM   36  C   UNK N   1      19.163  19.344   2.817  0.00  0.00     0.060 C 
BRANCH  34  37
HETATM   37  C   UNK N   1      21.126  20.451   1.748  0.00  0.00     0.178 C 
HETATM   38  O   UNK N   1      21.275  20.542   0.541  0.00  0.00    -0.648 OA
BRANCH  37  39
HETATM   39  O   UNK N   1      21.393  21.523   2.521  0.00  0.00    -0.774 OA
HETATM   40  H   UNK N   1      20.995  22.371   2.501  0.00  0.00     0.167 HD
ENDBRANCH  37  39
ENDBRANCH  34  37
ENDBRANCH  33  34
ENDBRANCH   2  33
TORSDOF 13
ENDMDL
MODEL 9
REMARK VINA RESULT:      -6.1      9.179     11.670
REMARK  13 active torsions:
REMARK  status: ('A' for Active; 'I' for Inactive)
REMARK    1  A    between atoms: C_8  and  C_4 
REMARK    2  A    between atoms: C_13  and  C_8 
REMARK    3  A    between atoms: C_8  and  N_20 
REMARK    4  A    between atoms: C_11  and  C_9 
REMARK    5  A    between atoms: C_14  and  C_10 
REMARK    6  A    between atoms: C_12  and  C_11 
REMARK    7  A    between atoms: C_12  and  O_28 
REMARK    8  A    between atoms: O_29  and  C_14 
REMARK    9  A    between atoms: C_17  and  C_15 
REMARK   10  A    between atoms: O_32  and  C_15 
REMARK   11  A    between atoms: N_18  and  C_16 
REMARK   12  A    between atoms: O_33  and  C_17 
REMARK   13  A    between atoms: O_33  and  N_25 
ROOT
HETATM    1  C   UNK N   1      32.920  16.436   7.603  0.00  0.00     0.132 C 
HETATM    2  N   UNK N   1      33.425  15.581   8.434  0.00  0.00    -0.259 N 
ATOM      3  HN  UNK N   1      32.832  15.212   9.180  1.00  0.00     0.194 HD
ENDROOT
BRANCH   1   4
HETATM    4  C   UNK N   1      31.574  16.965   7.910  0.00  0.00     0.074 A 
HETATM    5  C   UNK N   1      30.554  17.094   6.940  0.00  0.00     0.085 A 
HETATM    6  S   UNK N   1      29.345  17.940   7.701  0.00  0.00    -0.064 SA
HETATM    7  C   UNK N   1      30.088  18.134   9.152  0.00  0.00     0.142 A 
HETATM    8  N   UNK N   1      31.308  17.554   9.130  0.00  0.00    -0.335 N 
HETATM    9  H   UNK N   1      31.930  17.551   9.891  0.00  0.00     0.168 HD
BRANCH   7  10
HETATM   10  N   UNK N   1      29.638  18.812  10.136  0.00  0.00    -0.380 N 
HETATM   11  H   UNK N   1      29.419  19.771  10.099  0.00  0.00     0.158 HD
ATOM     12  HN  UNK N   1      29.495  18.325  11.021  1.00  0.00     0.158 HD
ENDBRANCH   7  10
ENDBRANCH   1   4
BRANCH   1  13
HETATM   13  C   UNK N   1      33.803  17.213   6.686  0.00  0.00     0.168 C 
HETATM   14  N   UNK N   1      33.827  17.081   5.397  0.00  0.00    -0.355 N 
ATOM     15  HN  UNK N   1      34.361  17.784   4.885  1.00  0.00     0.162 HD
BRANCH  14  16
HETATM   16  C   UNK N   1      33.186  16.055   4.593  0.00  0.00     0.177 C 
BRANCH  16  17
HETATM   17  C   UNK N   1      33.014  16.531   3.177  0.00  0.00     0.259 C 
HETATM   18  O   UNK N   1      31.939  16.943   2.778  0.00  0.00    -0.305 OA
ENDBRANCH  16  17
BRANCH  16  19
HETATM   19  C   UNK N   1      34.164  14.868   4.626  0.00  0.00     0.173 C 
HETATM   20  N   UNK N   1      33.624  13.864   5.517  0.00  0.00    -0.368 N 
HETATM   21  C   UNK N   1      34.157  12.708   5.718  0.00  0.00     0.109 C 
ATOM     22  HN  UNK N   1      32.765  14.086   6.020  1.00  0.00     0.161 HD
HETATM   23  C   UNK N   1      35.355  12.275   4.924  0.00  0.00    -0.025 C 
HETATM   24  C   UNK N   1      36.058  11.199   5.275  0.00  0.00     0.022 C 
HETATM   25  C   UNK N   1      35.843  13.092   3.755  0.00  0.00     0.116 C 
HETATM   26  S   UNK N   1      34.510  14.109   3.011  0.00  0.00    -0.137 SA
BRANCH  21  27
HETATM   27  C   UNK N   1      33.534  11.852   6.753  0.00  0.00     0.193 C 
HETATM   28  O   UNK N   1      33.930  11.854   7.907  0.00  0.00    -0.645 OA
BRANCH  27  29
HETATM   29  O   UNK N   1      32.506  11.059   6.412  0.00  0.00    -0.772 OA
HETATM   30  H   UNK N   1      32.535  10.128   6.503  0.00  0.00     0.167 HD
ENDBRANCH  27  29
ENDBRANCH  21  27
ENDBRANCH  16  19
ENDBRANCH  14  16
BRANCH  13  31
HETATM   31  O   UNK N   1      34.631  18.114   7.243  0.00  0.00    -0.344 OA
HETATM   32  H   UNK N   1      35.287  18.780   7.175  0.00  0.00     0.219 HD
ENDBRANCH  13  31
ENDBRANCH   1  13
BRANCH   2  33
HETATM   33  O   UNK N   1      34.678  15.168   8.355  0.00  0.00    -0.258 OA
BRANCH  33  34
HETATM   34  C   UNK N   1      35.427  14.854   9.485  0.00  0.00     0.166 C 
HETATM   35  C   UNK N   1      34.528  14.092  10.440  0.00  0.00     0.060 C 
HETATM   36  C   UNK N   1      36.606  13.939   9.145  0.00  0.00     0.060 C 
BRANCH  34  37
HETATM   37  C   UNK N   1      35.932  16.109  10.171  0.00  0.00     0.178 C 
HETATM   38  O   UNK N   1      35.339  17.167  10.040  0.00  0.00    -0.648 OA
BRANCH  37  39
HETATM   39  O   UNK N   1      37.023  16.067  10.962  0.00  0.00    -0.774 OA
HETATM   40  H   UNK N   1      37.088  16.251  11.878  0.00  0.00     0.167 HD
ENDBRANCH  37  39
ENDBRANCH  34  37
ENDBRANCH  33  34
ENDBRANCH   2  33
TORSDOF 13
ENDMDL
