MODEL 1
REMARK VINA RESULT:      -4.8      0.000      0.000
REMARK  5 active torsions:
REMARK  status: ('A' for Active; 'I' for Inactive)
REMARK    1  A    between atoms: O_1  and  S_2 
REMARK    2  A    between atoms: S_2  and  C_5 
REMARK    3  A    between atoms: C_5  and  C_6 
REMARK    4  A    between atoms: C_6  and  C_7 
REMARK    5  A    between atoms: C_7  and  N_8 
ROOT
HETATM    1  C   UNK N   1      35.348  16.364  10.102  0.00  0.00     0.047 C 
ENDROOT
BRANCH   1   2
HETATM    2  C   UNK N   1      34.132  16.443   9.203  0.00  0.00     0.157 C 
BRANCH   2   3
HETATM    3  S   UNK N   1      34.233  17.947   8.196  0.00  0.00     0.094 S 
HETATM    4  O   UNK N   1      32.880  18.662   8.072  0.00  0.00    -0.601 OA
HETATM    5  O   UNK N   1      34.559  17.635   6.729  0.00  0.00    -0.601 OA
BRANCH   3   6
HETATM    6  O   UNK N   1      35.342  19.180   8.643  0.00  0.00    -0.296 OA
HETATM    7  H   UNK N   1      36.141  19.098   9.187  0.00  0.00     0.232 HD
ENDBRANCH   3   6
ENDBRANCH   2   3
ENDBRANCH   1   2
BRANCH   1   8
HETATM    8  C   UNK N   1      36.117  15.095   9.793  0.00  0.00     0.273 C 
BRANCH   8   9
HETATM    9  N   UNK N   1      36.244  14.269  10.982  0.00  0.00     0.092 N 
HETATM   10  C   UNK N   1      36.066  15.161  12.129  0.00  0.00     0.298 C 
HETATM   11  C   UNK N   1      35.935  14.336  13.411  0.00  0.00     0.198 C 
HETATM   12  O   UNK N   1      34.804  13.507  13.312  0.00  0.00    -0.388 OA
HETATM   13  C   UNK N   1      35.087  12.564  12.311  0.00  0.00     0.198 C 
HETATM   14  C   UNK N   1      35.164  13.274  10.956  0.00  0.00     0.298 C 
ENDBRANCH   8   9
ENDBRANCH   1   8
TORSDOF 5
ENDMDL
MODEL 2
REMARK VINA RESULT:      -4.8      3.948      5.712
REMARK  5 active torsions:
REMARK  status: ('A' for Active; 'I' for Inactive)
REMARK    1  A    between atoms: O_1  and  S_2 
REMARK    2  A    between atoms: S_2  and  C_5 
REMARK    3  A    between atoms: C_5  and  C_6 
REMARK    4  A    between atoms: C_6  and  C_7 
REMARK    5  A    between atoms: C_7  and  N_8 
ROOT
HETATM    1  C   UNK N   1      30.717  17.479   7.463  0.00  0.00     0.047 C 
ENDROOT
BRANCH   1   2
HETATM    2  C   UNK N   1      29.236  17.163   7.453  0.00  0.00     0.157 C 
BRANCH   2   3
HETATM    3  S   UNK N   1      28.439  17.997   8.851  0.00  0.00     0.094 S 
HETATM    4  O   UNK N   1      29.456  18.566   9.851  0.00  0.00    -0.601 OA
HETATM    5  O   UNK N   1      27.650  17.016   9.730  0.00  0.00    -0.601 OA
BRANCH   3   6
HETATM    6  O   UNK N   1      27.353  19.290   8.545  0.00  0.00    -0.296 OA
HETATM    7  H   UNK N   1      26.874  19.489   7.725  0.00  0.00     0.232 HD
ENDBRANCH   3   6
ENDBRANCH   2   3
ENDBRANCH   1   2
BRANCH   1   8
HETATM    8  C   UNK N   1      31.460  16.374   8.187  0.00  0.00     0.273 C 
BRANCH   8   9
HETATM    9  N   UNK N   1      32.896  16.572   8.086  0.00  0.00     0.092 N 
HETATM   10  C   UNK N   1      33.120  18.018   8.103  0.00  0.00     0.298 C 
HETATM   11  C   UNK N   1      34.615  18.309   8.253  0.00  0.00     0.198 C 
HETATM   12  O   UNK N   1      35.069  17.774   9.471  0.00  0.00    -0.388 OA
HETATM   13  C   UNK N   1      34.990  16.377   9.347  0.00  0.00     0.198 C 
HETATM   14  C   UNK N   1      33.518  15.960   9.268  0.00  0.00     0.298 C 
ENDBRANCH   8   9
ENDBRANCH   1   8
TORSDOF 5
ENDMDL
MODEL 3
REMARK VINA RESULT:      -4.7      0.838      1.917
REMARK  5 active torsions:
REMARK  status: ('A' for Active; 'I' for Inactive)
REMARK    1  A    between atoms: O_1  and  S_2 
REMARK    2  A    between atoms: S_2  and  C_5 
REMARK    3  A    between atoms: C_5  and  C_6 
REMARK    4  A    between atoms: C_6  and  C_7 
REMARK    5  A    between atoms: C_7  and  N_8 
ROOT
HETATM    1  C   UNK N   1      35.086  16.720  10.481  0.00  0.00     0.047 C 
ENDROOT
BRANCH   1   2
HETATM    2  C   UNK N   1      34.816  16.408   9.024  0.00  0.00     0.157 C 
BRANCH   2   3
HETATM    3  S   UNK N   1      34.320  17.928   8.172  0.00  0.00     0.094 S 
HETATM    4  O   UNK N   1      34.488  17.829   6.649  0.00  0.00    -0.601 OA
HETATM    5  O   UNK N   1      35.244  19.106   8.513  0.00  0.00    -0.601 OA
BRANCH   3   6
HETATM    6  O   UNK N   1      32.729  18.533   8.398  0.00  0.00    -0.296 OA
HETATM    7  H   UNK N   1      32.215  18.574   9.220  0.00  0.00     0.232 HD
ENDBRANCH   3   6
ENDBRANCH   2   3
ENDBRANCH   1   2
BRANCH   1   8
HETATM    8  C   UNK N   1      36.077  15.715  11.034  0.00  0.00     0.273 C 
BRANCH   8   9
HETATM    9  N   UNK N   1      35.405  14.747  11.884  0.00  0.00     0.092 N 
HETATM   10  C   UNK N   1      35.551  13.446  11.232  0.00  0.00     0.298 C 
HETATM   11  C   UNK N   1      35.092  12.336  12.180  0.00  0.00     0.198 C 
HETATM   12  O   UNK N   1      35.898  12.349  13.331  0.00  0.00    -0.388 OA
HETATM   13  C   UNK N   1      35.603  13.542  14.011  0.00  0.00     0.198 C 
HETATM   14  C   UNK N   1      36.095  14.731  13.181  0.00  0.00     0.298 C 
ENDBRANCH   8   9
ENDBRANCH   1   8
TORSDOF 5
ENDMDL
MODEL 4
REMARK VINA RESULT:      -4.5      4.905      6.525
REMARK  5 active torsions:
REMARK  status: ('A' for Active; 'I' for Inactive)
REMARK    1  A    between atoms: O_1  and  S_2 
REMARK    2  A    between atoms: S_2  and  C_5 
REMARK    3  A    between atoms: C_5  and  C_6 
REMARK    4  A    between atoms: C_6  and  C_7 
REMARK    5  A    between atoms: C_7  and  N_8 
ROOT
HETATM    1  C   UNK N   1      31.677  16.769   7.900  0.00  0.00     0.047 C 
ENDROOT
BRANCH   1   2
HETATM    2  C   UNK N   1      32.382  18.029   8.357  0.00  0.00     0.157 C 
BRANCH   2   3
HETATM    3  S   UNK N   1      34.151  17.889   7.985  0.00  0.00     0.094 S 
HETATM    4  O   UNK N   1      34.849  16.826   8.844  0.00  0.00    -0.601 OA
HETATM    5  O   UNK N   1      34.921  19.160   8.371  0.00  0.00    -0.601 OA
BRANCH   3   6
HETATM    6  O   UNK N   1      34.642  17.546   6.376  0.00  0.00    -0.296 OA
HETATM    7  H   UNK N   1      34.115  17.601   5.563  0.00  0.00     0.232 HD
ENDBRANCH   3   6
ENDBRANCH   2   3
ENDBRANCH   1   2
BRANCH   1   8
HETATM    8  C   UNK N   1      30.697  17.115   6.796  0.00  0.00     0.273 C 
BRANCH   8   9
HETATM    9  N   UNK N   1      31.081  16.472   5.551  0.00  0.00     0.092 N 
HETATM   10  C   UNK N   1      31.711  17.504   4.726  0.00  0.00     0.298 C 
HETATM   11  C   UNK N   1      32.368  16.860   3.503  0.00  0.00     0.198 C 
HETATM   12  O   UNK N   1      33.363  15.963   3.931  0.00  0.00    -0.388 OA
HETATM   13  C   UNK N   1      32.697  14.907   4.575  0.00  0.00     0.198 C 
HETATM   14  C   UNK N   1      32.060  15.425   5.868  0.00  0.00     0.298 C 
ENDBRANCH   8   9
ENDBRANCH   1   8
TORSDOF 5
ENDMDL
MODEL 5
REMARK VINA RESULT:      -4.5      1.987      2.668
REMARK  5 active torsions:
REMARK  status: ('A' for Active; 'I' for Inactive)
REMARK    1  A    between atoms: O_1  and  S_2 
REMARK    2  A    between atoms: S_2  and  C_5 
REMARK    3  A    between atoms: C_5  and  C_6 
REMARK    4  A    between atoms: C_6  and  C_7 
REMARK    5  A    between atoms: C_7  and  N_8 
ROOT
HETATM    1  C   UNK N   1      35.987  13.472   9.978  0.00  0.00     0.047 C 
ENDROOT
BRANCH   1   2
HETATM    2  C   UNK N   1      35.840  14.806   9.275  0.00  0.00     0.157 C 
BRANCH   2   3
HETATM    3  S   UNK N   1      34.583  15.794  10.131  0.00  0.00     0.094 S 
HETATM    4  O   UNK N   1      33.660  16.540   9.156  0.00  0.00    -0.601 OA
HETATM    5  O   UNK N   1      35.205  16.952  10.923  0.00  0.00    -0.601 OA
BRANCH   3   6
HETATM    6  O   UNK N   1      33.522  15.021  11.236  0.00  0.00    -0.296 OA
HETATM    7  H   UNK N   1      32.554  14.956  11.193  0.00  0.00     0.232 HD
ENDBRANCH   3   6
ENDBRANCH   2   3
ENDBRANCH   1   2
BRANCH   1   8
HETATM    8  C   UNK N   1      37.084  13.573  11.019  0.00  0.00     0.273 C 
BRANCH   8   9
HETATM    9  N   UNK N   1      36.658  12.974  12.272  0.00  0.00     0.092 N 
HETATM   10  C   UNK N   1      36.337  14.080  13.175  0.00  0.00     0.298 C 
HETATM   11  C   UNK N   1      35.644  13.542  14.429  0.00  0.00     0.198 C 
HETATM   12  O   UNK N   1      34.445  12.909  14.057  0.00  0.00    -0.388 OA
HETATM   13  C   UNK N   1      34.808  11.762  13.331  0.00  0.00     0.198 C 
HETATM   14  C   UNK N   1      35.448  12.186  12.006  0.00  0.00     0.298 C 
ENDBRANCH   8   9
ENDBRANCH   1   8
TORSDOF 5
ENDMDL
MODEL 6
REMARK VINA RESULT:      -4.4      4.526      6.314
REMARK  5 active torsions:
REMARK  status: ('A' for Active; 'I' for Inactive)
REMARK    1  A    between atoms: O_1  and  S_2 
REMARK    2  A    between atoms: S_2  and  C_5 
REMARK    3  A    between atoms: C_5  and  C_6 
REMARK    4  A    between atoms: C_6  and  C_7 
REMARK    5  A    between atoms: C_7  and  N_8 
ROOT
HETATM    1  C   UNK N   1      32.843  18.106   8.148  0.00  0.00     0.047 C 
ENDROOT
BRANCH   1   2
HETATM    2  C   UNK N   1      34.262  17.611   7.961  0.00  0.00     0.157 C 
BRANCH   2   3
HETATM    3  S   UNK N   1      34.718  16.565   9.369  0.00  0.00     0.094 S 
HETATM    4  O   UNK N   1      35.606  17.300  10.383  0.00  0.00    -0.601 OA
HETATM    5  O   UNK N   1      35.624  15.399   8.948  0.00  0.00    -0.601 OA
BRANCH   3   6
HETATM    6  O   UNK N   1      33.478  15.844  10.312  0.00  0.00    -0.296 OA
HETATM    7  H   UNK N   1      32.554  15.682  10.063  0.00  0.00     0.232 HD
ENDBRANCH   3   6
ENDBRANCH   2   3
ENDBRANCH   1   2
BRANCH   1   8
HETATM    8  C   UNK N   1      31.893  17.203   7.385  0.00  0.00     0.273 C 
BRANCH   8   9
HETATM    9  N   UNK N   1      30.602  17.141   8.048  0.00  0.00     0.092 N 
HETATM   10  C   UNK N   1      30.535  18.299   8.939  0.00  0.00     0.298 C 
HETATM   11  C   UNK N   1      29.114  18.450   9.487  0.00  0.00     0.198 C 
HETATM   12  O   UNK N   1      28.226  18.660   8.417  0.00  0.00    -0.388 OA
HETATM   13  C   UNK N   1      28.199  17.464   7.682  0.00  0.00     0.198 C 
HETATM   14  C   UNK N   1      29.561  17.248   7.017  0.00  0.00     0.298 C 
ENDBRANCH   8   9
ENDBRANCH   1   8
TORSDOF 5
ENDMDL
MODEL 7
REMARK VINA RESULT:      -4.4     16.446     18.354
REMARK  5 active torsions:
REMARK  status: ('A' for Active; 'I' for Inactive)
REMARK    1  A    between atoms: O_1  and  S_2 
REMARK    2  A    between atoms: S_2  and  C_5 
REMARK    3  A    between atoms: C_5  and  C_6 
REMARK    4  A    between atoms: C_6  and  C_7 
REMARK    5  A    between atoms: C_7  and  N_8 
ROOT
HETATM    1  C   UNK N   1      30.274  24.368  -4.314  0.00  0.00     0.047 C 
ENDROOT
BRANCH   1   2
HETATM    2  C   UNK N   1      31.497  23.493  -4.131  0.00  0.00     0.157 C 
BRANCH   2   3
HETATM    3  S   UNK N   1      31.176  22.291  -2.813  0.00  0.00     0.094 S 
HETATM    4  O   UNK N   1      30.114  21.256  -3.209  0.00  0.00    -0.601 OA
HETATM    5  O   UNK N   1      30.533  22.946  -1.582  0.00  0.00    -0.601 OA
BRANCH   3   6
HETATM    6  O   UNK N   1      32.481  21.365  -2.190  0.00  0.00    -0.296 OA
HETATM    7  H   UNK N   1      32.448  20.491  -1.770  0.00  0.00     0.232 HD
ENDBRANCH   3   6
ENDBRANCH   2   3
ENDBRANCH   1   2
BRANCH   1   8
HETATM    8  C   UNK N   1      29.565  23.976  -5.595  0.00  0.00     0.273 C 
BRANCH   8   9
HETATM    9  N   UNK N   1      28.211  23.528  -5.315  0.00  0.00     0.092 N 
HETATM   10  C   UNK N   1      27.535  24.639  -4.645  0.00  0.00     0.298 C 
HETATM   11  C   UNK N   1      26.037  24.344  -4.538  0.00  0.00     0.198 C 
HETATM   12  O   UNK N   1      25.500  24.210  -5.831  0.00  0.00    -0.388 OA
HETATM   13  C   UNK N   1      26.054  23.040  -6.373  0.00  0.00     0.198 C 
HETATM   14  C   UNK N   1      27.555  23.249  -6.598  0.00  0.00     0.298 C 
ENDBRANCH   8   9
ENDBRANCH   1   8
TORSDOF 5
ENDMDL
MODEL 8
REMARK VINA RESULT:      -4.3      5.070      7.428
REMARK  5 active torsions:
REMARK  status: ('A' for Active; 'I' for Inactive)
REMARK    1  A    between atoms: O_1  and  S_2 
REMARK    2  A    between atoms: S_2  and  C_5 
REMARK    3  A    between atoms: C_5  and  C_6 
REMARK    4  A    between atoms: C_6  and  C_7 
REMARK    5  A    between atoms: C_7  and  N_8 
ROOT
HETATM    1  C   UNK N   1      31.702  16.744   7.406  0.00  0.00     0.047 C 
ENDROOT
BRANCH   1   2
HETATM    2  C   UNK N   1      32.353  17.847   8.214  0.00  0.00     0.157 C 
BRANCH   2   3
HETATM    3  S   UNK N   1      34.126  17.892   7.841  0.00  0.00     0.094 S 
HETATM    4  O   UNK N   1      34.409  17.854   6.332  0.00  0.00    -0.601 OA
HETATM    5  O   UNK N   1      34.847  16.626   8.327  0.00  0.00    -0.601 OA
BRANCH   3   6
HETATM    6  O   UNK N   1      35.073  19.196   8.432  0.00  0.00    -0.296 OA
HETATM    7  H   UNK N   1      36.034  19.228   8.562  0.00  0.00     0.232 HD
ENDBRANCH   3   6
ENDBRANCH   2   3
ENDBRANCH   1   2
BRANCH   1   8
HETATM    8  C   UNK N   1      30.455  17.284   6.734  0.00  0.00     0.273 C 
BRANCH   8   9
HETATM    9  N   UNK N   1      30.104  16.474   5.580  0.00  0.00     0.092 N 
HETATM   10  C   UNK N   1      29.259  17.309   4.726  0.00  0.00     0.298 C 
HETATM   11  C   UNK N   1      29.050  16.624   3.374  0.00  0.00     0.198 C 
HETATM   12  O   UNK N   1      30.296  16.459   2.743  0.00  0.00    -0.388 OA
HETATM   13  C   UNK N   1      31.010  15.524   3.509  0.00  0.00     0.198 C 
HETATM   14  C   UNK N   1      31.346  16.138   4.871  0.00  0.00     0.298 C 
ENDBRANCH   8   9
ENDBRANCH   1   8
TORSDOF 5
ENDMDL
MODEL 9
REMARK VINA RESULT:      -4.3     17.048     19.191
REMARK  5 active torsions:
REMARK  status: ('A' for Active; 'I' for Inactive)
REMARK    1  A    between atoms: O_1  and  S_2 
REMARK    2  A    between atoms: S_2  and  C_5 
REMARK    3  A    between atoms: C_5  and  C_6 
REMARK    4  A    between atoms: C_6  and  C_7 
REMARK    5  A    between atoms: C_7  and  N_8 
ROOT
HETATM    1  C   UNK N   1      28.590  25.196  -4.041  0.00  0.00     0.047 C 
ENDROOT
BRANCH   1   2
HETATM    2  C   UNK N   1      29.907  24.617  -3.567  0.00  0.00     0.157 C 
BRANCH   2   3
HETATM    3  S   UNK N   1      29.580  23.171  -2.525  0.00  0.00     0.094 S 
HETATM    4  O   UNK N   1      30.598  23.028  -1.384  0.00  0.00    -0.601 OA
HETATM    5  O   UNK N   1      29.780  21.855  -3.290  0.00  0.00    -0.601 OA
BRANCH   3   6
HETATM    6  O   UNK N   1      28.047  23.015  -1.768  0.00  0.00    -0.296 OA
HETATM    7  H   UNK N   1      27.855  22.776  -0.847  0.00  0.00     0.232 HD
ENDBRANCH   3   6
ENDBRANCH   2   3
ENDBRANCH   1   2
BRANCH   1   8
HETATM    8  C   UNK N   1      28.862  26.355  -4.980  0.00  0.00     0.273 C 
BRANCH   8   9
HETATM    9  N   UNK N   1      27.857  27.393  -4.817  0.00  0.00     0.092 N 
HETATM   10  C   UNK N   1      26.566  26.711  -4.726  0.00  0.00     0.298 C 
HETATM   11  C   UNK N   1      25.483  27.707  -4.304  0.00  0.00     0.198 C 
HETATM   12  O   UNK N   1      25.803  28.227  -3.037  0.00  0.00    -0.388 OA
HETATM   13  C   UNK N   1      26.958  29.008  -3.207  0.00  0.00     0.198 C 
HETATM   14  C   UNK N   1      28.137  28.096  -3.559  0.00  0.00     0.298 C 
ENDBRANCH   8   9
ENDBRANCH   1   8
TORSDOF 5
ENDMDL
