MODEL 1
REMARK VINA RESULT:      -4.5      0.000      0.000
REMARK  6 active torsions:
REMARK  status: ('A' for Active; 'I' for Inactive)
REMARK    1  A    between atoms: O_1  and  C_2 
REMARK    2  A    between atoms: C_2  and  C_4 
REMARK    3  A    between atoms: C_4  and  C_5 
REMARK    4  A    between atoms: C_5  and  P_6 
REMARK    5  A    between atoms: P_6  and  O_7 
REMARK    6  A    between atoms: P_6  and  O_8 
ROOT
HETATM    1  C   UNK N   1      33.222  16.154   8.592  0.00  0.00     0.135 C 
ENDROOT
BRANCH   1   2
HETATM    2  C   UNK N   1      33.130  17.666   8.484  0.00  0.00     0.121 C 
BRANCH   2   3
HETATM    3  C   UNK N   1      34.301  18.269   7.786  0.00  0.00     0.139 C 
HETATM    4  O   UNK N   1      34.481  18.056   6.595  0.00  0.00    -0.650 OA
BRANCH   3   5
HETATM    5  O   UNK N   1      35.096  19.138   8.436  0.00  0.00    -0.776 OA
HETATM    6  H   UNK N   1      35.094  20.044   8.197  0.00  0.00     0.167 HD
ENDBRANCH   3   5
ENDBRANCH   2   3
ENDBRANCH   1   2
BRANCH   1   7
HETATM    7  P   UNK N   1      34.292  15.763  10.064  0.00  0.00     0.236 P 
HETATM    8  O   UNK N   1      35.492  14.898   9.596  0.00  0.00    -0.653 OA
BRANCH   7   9
HETATM    9  O   UNK N   1      33.555  14.802  11.307  0.00  0.00    -0.329 OA
HETATM   10  H   UNK N   1      32.790  14.937  11.888  0.00  0.00     0.220 HD
ENDBRANCH   7   9
BRANCH   7  11
HETATM   11  O   UNK N   1      35.046  17.123  10.837  0.00  0.00    -0.329 OA
HETATM   12  H   UNK N   1      34.939  17.877  11.438  0.00  0.00     0.220 HD
ENDBRANCH   7  11
ENDBRANCH   1   7
TORSDOF 6
ENDMDL
MODEL 2
REMARK VINA RESULT:      -4.2      2.326      4.273
REMARK  6 active torsions:
REMARK  status: ('A' for Active; 'I' for Inactive)
REMARK    1  A    between atoms: O_1  and  C_2 
REMARK    2  A    between atoms: C_2  and  C_4 
REMARK    3  A    between atoms: C_4  and  C_5 
REMARK    4  A    between atoms: C_5  and  P_6 
REMARK    5  A    between atoms: P_6  and  O_7 
REMARK    6  A    between atoms: P_6  and  O_8 
ROOT
HETATM    1  C   UNK N   1      34.638  16.370   9.113  0.00  0.00     0.135 C 
ENDROOT
BRANCH   1   2
HETATM    2  C   UNK N   1      35.118  16.823  10.482  0.00  0.00     0.121 C 
BRANCH   2   3
HETATM    3  C   UNK N   1      36.054  15.852  11.117  0.00  0.00     0.139 C 
HETATM    4  O   UNK N   1      35.650  15.089  11.984  0.00  0.00    -0.650 OA
BRANCH   3   5
HETATM    5  O   UNK N   1      37.313  15.735  10.660  0.00  0.00    -0.776 OA
HETATM    6  H   UNK N   1      37.859  15.037  10.964  0.00  0.00     0.167 HD
ENDBRANCH   3   5
ENDBRANCH   2   3
ENDBRANCH   1   2
BRANCH   1   7
HETATM    7  P   UNK N   1      34.343  17.897   8.091  0.00  0.00     0.236 P 
HETATM    8  O   UNK N   1      32.884  18.375   8.313  0.00  0.00    -0.653 OA
BRANCH   7   9
HETATM    9  O   UNK N   1      34.451  17.693   6.371  0.00  0.00    -0.329 OA
HETATM   10  H   UNK N   1      35.194  17.568   5.760  0.00  0.00     0.220 HD
ENDBRANCH   7   9
BRANCH   7  11
HETATM   11  O   UNK N   1      35.296  19.287   8.511  0.00  0.00    -0.329 OA
HETATM   12  H   UNK N   1      35.449  20.003   9.147  0.00  0.00     0.220 HD
ENDBRANCH   7  11
ENDBRANCH   1   7
TORSDOF 6
ENDMDL
MODEL 3
REMARK VINA RESULT:      -4.2      1.045      2.165
REMARK  6 active torsions:
REMARK  status: ('A' for Active; 'I' for Inactive)
REMARK    1  A    between atoms: O_1  and  C_2 
REMARK    2  A    between atoms: C_2  and  C_4 
REMARK    3  A    between atoms: C_4  and  C_5 
REMARK    4  A    between atoms: C_5  and  P_6 
REMARK    5  A    between atoms: P_6  and  O_7 
REMARK    6  A    between atoms: P_6  and  O_8 
ROOT
HETATM    1  C   UNK N   1      34.653  15.908   8.841  0.00  0.00     0.135 C 
ENDROOT
BRANCH   1   2
HETATM    2  C   UNK N   1      33.811  17.170   8.764  0.00  0.00     0.121 C 
BRANCH   2   3
HETATM    3  C   UNK N   1      34.417  18.218   7.895  0.00  0.00     0.139 C 
HETATM    4  O   UNK N   1      35.057  19.133   8.393  0.00  0.00    -0.650 OA
BRANCH   3   5
HETATM    5  O   UNK N   1      34.359  18.097   6.556  0.00  0.00    -0.776 OA
HETATM    6  H   UNK N   1      34.648  18.800   6.008  0.00  0.00     0.167 HD
ENDBRANCH   3   5
ENDBRANCH   2   3
ENDBRANCH   1   2
BRANCH   1   7
HETATM    7  P   UNK N   1      35.399  15.836  10.544  0.00  0.00     0.236 P 
HETATM    8  O   UNK N   1      35.299  17.241  11.195  0.00  0.00    -0.653 OA
BRANCH   7   9
HETATM    9  O   UNK N   1      37.094  15.471  10.618  0.00  0.00    -0.329 OA
HETATM   10  H   UNK N   1      37.878  15.860  10.201  0.00  0.00     0.220 HD
ENDBRANCH   7   9
BRANCH   7  11
HETATM   11  O   UNK N   1      34.594  14.801  11.683  0.00  0.00    -0.329 OA
HETATM   12  H   UNK N   1      34.457  14.573  12.616  0.00  0.00     0.220 HD
ENDBRANCH   7  11
ENDBRANCH   1   7
TORSDOF 6
ENDMDL
MODEL 4
REMARK VINA RESULT:      -4.1      1.945      4.304
REMARK  6 active torsions:
REMARK  status: ('A' for Active; 'I' for Inactive)
REMARK    1  A    between atoms: O_1  and  C_2 
REMARK    2  A    between atoms: C_2  and  C_4 
REMARK    3  A    between atoms: C_4  and  C_5 
REMARK    4  A    between atoms: C_5  and  P_6 
REMARK    5  A    between atoms: P_6  and  O_7 
REMARK    6  A    between atoms: P_6  and  O_8 
ROOT
HETATM    1  C   UNK N   1      34.747  16.192   8.590  0.00  0.00     0.135 C 
ENDROOT
BRANCH   1   2
HETATM    2  C   UNK N   1      34.811  16.224  10.108  0.00  0.00     0.121 C 
BRANCH   2   3
HETATM    3  C   UNK N   1      34.202  15.018  10.738  0.00  0.00     0.139 C 
HETATM    4  O   UNK N   1      34.910  14.081  11.077  0.00  0.00    -0.650 OA
BRANCH   3   5
HETATM    5  O   UNK N   1      32.891  15.006  11.037  0.00  0.00    -0.776 OA
HETATM    6  H   UNK N   1      32.455  15.803  11.268  0.00  0.00     0.167 HD
ENDBRANCH   3   5
ENDBRANCH   2   3
ENDBRANCH   1   2
BRANCH   1   7
HETATM    7  P   UNK N   1      34.246  17.889   8.015  0.00  0.00     0.236 P 
HETATM    8  O   UNK N   1      34.313  17.934   6.466  0.00  0.00    -0.653 OA
BRANCH   7   9
HETATM    9  O   UNK N   1      35.276  19.195   8.509  0.00  0.00    -0.329 OA
HETATM   10  H   UNK N   1      35.409  19.658   9.351  0.00  0.00     0.220 HD
ENDBRANCH   7   9
BRANCH   7  11
HETATM   11  O   UNK N   1      32.610  18.357   8.366  0.00  0.00    -0.329 OA
HETATM   12  H   UNK N   1      31.790  18.752   8.031  0.00  0.00     0.220 HD
ENDBRANCH   7  11
ENDBRANCH   1   7
TORSDOF 6
ENDMDL
MODEL 5
REMARK VINA RESULT:      -4.0     14.483     15.608
REMARK  6 active torsions:
REMARK  status: ('A' for Active; 'I' for Inactive)
REMARK    1  A    between atoms: O_1  and  C_2 
REMARK    2  A    between atoms: C_2  and  C_4 
REMARK    3  A    between atoms: C_4  and  C_5 
REMARK    4  A    between atoms: C_5  and  P_6 
REMARK    5  A    between atoms: P_6  and  O_7 
REMARK    6  A    between atoms: P_6  and  O_8 
ROOT
HETATM    1  C   UNK N   1      21.926  18.695   3.251  0.00  0.00     0.135 C 
ENDROOT
BRANCH   1   2
HETATM    2  C   UNK N   1      20.554  18.164   3.629  0.00  0.00     0.121 C 
BRANCH   2   3
HETATM    3  C   UNK N   1      19.621  18.094   2.469  0.00  0.00     0.139 C 
HETATM    4  O   UNK N   1      19.847  17.325   1.546  0.00  0.00    -0.650 OA
BRANCH   3   5
HETATM    5  O   UNK N   1      18.472  18.793   2.488  0.00  0.00    -0.776 OA
HETATM    6  H   UNK N   1      18.087  19.041   3.306  0.00  0.00     0.167 HD
ENDBRANCH   3   5
ENDBRANCH   2   3
ENDBRANCH   1   2
BRANCH   1   7
HETATM    7  P   UNK N   1      21.695  20.416   2.582  0.00  0.00     0.236 P 
HETATM    8  O   UNK N   1      22.967  21.249   2.893  0.00  0.00    -0.653 OA
BRANCH   7   9
HETATM    9  O   UNK N   1      20.413  21.343   3.294  0.00  0.00    -0.329 OA
HETATM   10  H   UNK N   1      20.304  21.781   4.152  0.00  0.00     0.220 HD
ENDBRANCH   7   9
BRANCH   7  11
HETATM   11  O   UNK N   1      21.535  20.545   0.857  0.00  0.00    -0.329 OA
HETATM   12  H   UNK N   1      21.346  20.086   0.024  0.00  0.00     0.220 HD
ENDBRANCH   7  11
ENDBRANCH   1   7
TORSDOF 6
ENDMDL
MODEL 6
REMARK VINA RESULT:      -3.8      1.725      2.357
REMARK  6 active torsions:
REMARK  status: ('A' for Active; 'I' for Inactive)
REMARK    1  A    between atoms: O_1  and  C_2 
REMARK    2  A    between atoms: C_2  and  C_4 
REMARK    3  A    between atoms: C_4  and  C_5 
REMARK    4  A    between atoms: C_5  and  P_6 
REMARK    5  A    between atoms: P_6  and  O_7 
REMARK    6  A    between atoms: P_6  and  O_8 
ROOT
HETATM    1  C   UNK N   1      34.384  15.745   8.375  0.00  0.00     0.135 C 
ENDROOT
BRANCH   1   2
HETATM    2  C   UNK N   1      34.231  17.119   9.005  0.00  0.00     0.121 C 
BRANCH   2   3
HETATM    3  C   UNK N   1      34.575  18.227   8.069  0.00  0.00     0.139 C 
HETATM    4  O   UNK N   1      35.099  19.247   8.494  0.00  0.00    -0.650 OA
BRANCH   3   5
HETATM    5  O   UNK N   1      34.416  18.061   6.744  0.00  0.00    -0.776 OA
HETATM    6  H   UNK N   1      33.903  17.348   6.419  0.00  0.00     0.167 HD
ENDBRANCH   3   5
ENDBRANCH   2   3
ENDBRANCH   1   2
BRANCH   1   7
HETATM    7  P   UNK N   1      33.185  14.603   9.224  0.00  0.00     0.236 P 
HETATM    8  O   UNK N   1      32.346  13.867   8.146  0.00  0.00    -0.653 OA
BRANCH   7   9
HETATM    9  O   UNK N   1      31.989  15.364  10.225  0.00  0.00    -0.329 OA
HETATM   10  H   UNK N   1      31.301  16.026  10.056  0.00  0.00     0.220 HD
ENDBRANCH   7   9
BRANCH   7  11
HETATM   11  O   UNK N   1      33.890  13.311  10.145  0.00  0.00    -0.329 OA
HETATM   12  H   UNK N   1      34.640  12.704  10.249  0.00  0.00     0.220 HD
ENDBRANCH   7  11
ENDBRANCH   1   7
TORSDOF 6
ENDMDL
MODEL 7
REMARK VINA RESULT:      -3.8     14.339     15.446
REMARK  6 active torsions:
REMARK  status: ('A' for Active; 'I' for Inactive)
REMARK    1  A    between atoms: O_1  and  C_2 
REMARK    2  A    between atoms: C_2  and  C_4 
REMARK    3  A    between atoms: C_4  and  C_5 
REMARK    4  A    between atoms: C_5  and  P_6 
REMARK    5  A    between atoms: P_6  and  O_7 
REMARK    6  A    between atoms: P_6  and  O_8 
ROOT
HETATM    1  C   UNK N   1      22.041  18.767   3.671  0.00  0.00     0.135 C 
ENDROOT
BRANCH   1   2
HETATM    2  C   UNK N   1      21.355  17.531   3.114  0.00  0.00     0.121 C 
BRANCH   2   3
HETATM    3  C   UNK N   1      20.038  17.260   3.758  0.00  0.00     0.139 C 
HETATM    4  O   UNK N   1      19.993  16.804   4.891  0.00  0.00    -0.650 OA
BRANCH   3   5
HETATM    5  O   UNK N   1      18.901  17.622   3.138  0.00  0.00    -0.776 OA
HETATM    6  H   UNK N   1      18.168  17.920   3.640  0.00  0.00     0.167 HD
ENDBRANCH   3   5
ENDBRANCH   2   3
ENDBRANCH   1   2
BRANCH   1   7
HETATM    7  P   UNK N   1      21.203  20.254   2.931  0.00  0.00     0.236 P 
HETATM    8  O   UNK N   1      20.137  20.779   3.930  0.00  0.00    -0.653 OA
BRANCH   7   9
HETATM    9  O   UNK N   1      20.298  19.973   1.477  0.00  0.00    -0.329 OA
HETATM   10  H   UNK N   1      20.183  19.200   0.902  0.00  0.00     0.220 HD
ENDBRANCH   7   9
BRANCH   7  11
HETATM   11  O   UNK N   1      22.216  21.637   2.653  0.00  0.00    -0.329 OA
HETATM   12  H   UNK N   1      23.119  21.968   2.527  0.00  0.00     0.220 HD
ENDBRANCH   7  11
ENDBRANCH   1   7
TORSDOF 6
ENDMDL
MODEL 8
REMARK VINA RESULT:      -3.7     10.764     12.226
REMARK  6 active torsions:
REMARK  status: ('A' for Active; 'I' for Inactive)
REMARK    1  A    between atoms: O_1  and  C_2 
REMARK    2  A    between atoms: C_2  and  C_4 
REMARK    3  A    between atoms: C_4  and  C_5 
REMARK    4  A    between atoms: C_5  and  P_6 
REMARK    5  A    between atoms: P_6  and  O_7 
REMARK    6  A    between atoms: P_6  and  O_8 
ROOT
HETATM    1  C   UNK N   1      42.853  21.169   2.330  0.00  0.00     0.135 C 
ENDROOT
BRANCH   1   2
HETATM    2  C   UNK N   1      43.225  21.522   3.760  0.00  0.00     0.121 C 
BRANCH   2   3
HETATM    3  C   UNK N   1      44.244  22.607   3.842  0.00  0.00     0.139 C 
HETATM    4  O   UNK N   1      43.905  23.776   3.735  0.00  0.00    -0.650 OA
BRANCH   3   5
HETATM    5  O   UNK N   1      45.520  22.308   4.147  0.00  0.00    -0.776 OA
HETATM    6  H   UNK N   1      45.838  22.442   5.018  0.00  0.00     0.167 HD
ENDBRANCH   3   5
ENDBRANCH   2   3
ENDBRANCH   1   2
BRANCH   1   7
HETATM    7  P   UNK N   1      41.266  22.055   1.930  0.00  0.00     0.236 P 
HETATM    8  O   UNK N   1      40.972  21.897   0.415  0.00  0.00    -0.653 OA
BRANCH   7   9
HETATM    9  O   UNK N   1      41.271  23.773   2.170  0.00  0.00    -0.329 OA
HETATM   10  H   UNK N   1      41.701  24.509   1.707  0.00  0.00     0.220 HD
ENDBRANCH   7   9
BRANCH   7  11
HETATM   11  O   UNK N   1      39.835  21.428   2.690  0.00  0.00    -0.329 OA
HETATM   12  H   UNK N   1      39.359  21.275   3.521  0.00  0.00     0.220 HD
ENDBRANCH   7  11
ENDBRANCH   1   7
TORSDOF 6
ENDMDL
MODEL 9
REMARK VINA RESULT:      -3.7      3.535      5.400
REMARK  6 active torsions:
REMARK  status: ('A' for Active; 'I' for Inactive)
REMARK    1  A    between atoms: O_1  and  C_2 
REMARK    2  A    between atoms: C_2  and  C_4 
REMARK    3  A    between atoms: C_4  and  C_5 
REMARK    4  A    between atoms: C_5  and  P_6 
REMARK    5  A    between atoms: P_6  and  O_7 
REMARK    6  A    between atoms: P_6  and  O_8 
ROOT
HETATM    1  C   UNK N   1      36.136  14.216  11.065  0.00  0.00     0.135 C 
ENDROOT
BRANCH   1   2
HETATM    2  C   UNK N   1      35.571  13.299  12.137  0.00  0.00     0.121 C 
BRANCH   2   3
HETATM    3  C   UNK N   1      35.733  13.849  13.513  0.00  0.00     0.139 C 
HETATM    4  O   UNK N   1      34.986  13.487  14.409  0.00  0.00    -0.650 OA
BRANCH   3   5
HETATM    5  O   UNK N   1      36.772  14.657  13.795  0.00  0.00    -0.776 OA
HETATM    6  H   UNK N   1      37.555  14.301  14.166  0.00  0.00     0.167 HD
ENDBRANCH   3   5
ENDBRANCH   2   3
ENDBRANCH   1   2
BRANCH   1   7
HETATM    7  P   UNK N   1      34.779  15.384  10.557  0.00  0.00     0.236 P 
HETATM    8  O   UNK N   1      34.636  15.346   9.012  0.00  0.00    -0.653 OA
BRANCH   7   9
HETATM    9  O   UNK N   1      35.052  17.063  10.901  0.00  0.00    -0.329 OA
HETATM   10  H   UNK N   1      34.706  17.670  11.574  0.00  0.00     0.220 HD
ENDBRANCH   7   9
BRANCH   7  11
HETATM   11  O   UNK N   1      33.185  14.990  11.124  0.00  0.00    -0.329 OA
HETATM   12  H   UNK N   1      32.230  15.107  11.005  0.00  0.00     0.220 HD
ENDBRANCH   7  11
ENDBRANCH   1   7
TORSDOF 6
ENDMDL
