MODEL 1
REMARK VINA RESULT:      -4.7      0.000      0.000
REMARK  6 active torsions:
REMARK  status: ('A' for Active; 'I' for Inactive)
REMARK    1  A    between atoms: C_2  and  N_1 
REMARK    2  A    between atoms: C_2  and  C_3 
REMARK    3  A    between atoms: C_2  and  C_8 
REMARK    4  A    between atoms: C_3  and  S_4 
REMARK    5  A    between atoms: S_4  and  O_5 
REMARK    6  A    between atoms: C_8  and  O_9 
ROOT
HETATM    1  C   UNK N   1      19.845  17.824   2.459  0.00  0.00     0.189 C 
ENDROOT
BRANCH   1   2
HETATM    2  N   UNK N   1      18.693  18.677   2.201  0.00  0.00    -0.417 N 
HETATM    3  H   UNK N   1      17.802  18.496   2.663  0.00  0.00     0.150 HD
HETATM    4  H   UNK N   1      18.779  19.461   1.554  0.00  0.00     0.150 HD
ENDBRANCH   1   2
BRANCH   1   5
HETATM    5  C   UNK N   1      20.969  18.648   3.085  0.00  0.00     0.191 C 
BRANCH   5   6
HETATM    6  S   UNK N   1      20.949  20.345   2.412  0.00  0.00     0.096 S 
HETATM    7  O   UNK N   1      20.417  20.508   3.844  0.00  0.00    -0.601 OA
HETATM    8  O   UNK N   1      22.393  19.939   2.743  0.00  0.00    -0.601 OA
BRANCH   6   9
HETATM    9  O   UNK N   1      21.722  21.819   2.829  0.00  0.00    -0.296 OA
HETATM   10  H   UNK N   1      21.544  22.280   3.663  0.00  0.00     0.232 HD
ENDBRANCH   6   9
ENDBRANCH   5   6
ENDBRANCH   1   5
BRANCH   1  11
HETATM   11  C   UNK N   1      20.295  17.149   1.195  0.00  0.00     0.164 C 
HETATM   12  O   UNK N   1      20.643  15.979   1.225  0.00  0.00    -0.648 OA
BRANCH  11  13
HETATM   13  O   UNK N   1      20.282  17.809   0.021  0.00  0.00    -0.775 OA
HETATM   14  H   UNK N   1      20.920  18.450  -0.221  0.00  0.00     0.167 HD
ENDBRANCH  11  13
ENDBRANCH   1  11
TORSDOF 6
ENDMDL
MODEL 2
REMARK VINA RESULT:      -4.5     10.120     10.788
REMARK  6 active torsions:
REMARK  status: ('A' for Active; 'I' for Inactive)
REMARK    1  A    between atoms: C_2  and  N_1 
REMARK    2  A    between atoms: C_2  and  C_3 
REMARK    3  A    between atoms: C_2  and  C_8 
REMARK    4  A    between atoms: C_3  and  S_4 
REMARK    5  A    between atoms: S_4  and  O_5 
REMARK    6  A    between atoms: C_8  and  O_9 
ROOT
HETATM    1  C   UNK N   1      22.793  12.463  11.065  0.00  0.00     0.189 C 
ENDROOT
BRANCH   1   2
HETATM    2  N   UNK N   1      22.407  11.502  12.089  0.00  0.00    -0.417 N 
HETATM    3  H   UNK N   1      21.858  10.680  11.846  0.00  0.00     0.150 HD
HETATM    4  H   UNK N   1      22.690  11.656  13.058  0.00  0.00     0.150 HD
ENDBRANCH   1   2
BRANCH   1   5
HETATM    5  C   UNK N   1      21.819  12.385   9.890  0.00  0.00     0.191 C 
BRANCH   5   6
HETATM    6  S   UNK N   1      20.887  13.948   9.747  0.00  0.00     0.096 S 
HETATM    7  O   UNK N   1      20.651  13.250   8.398  0.00  0.00    -0.601 OA
HETATM    8  O   UNK N   1      20.120  12.973  10.653  0.00  0.00    -0.601 OA
BRANCH   6   9
HETATM    9  O   UNK N   1      19.237  14.353   9.510  0.00  0.00    -0.296 OA
HETATM   10  H   UNK N   1      18.917  14.775   8.697  0.00  0.00     0.232 HD
ENDBRANCH   6   9
ENDBRANCH   5   6
ENDBRANCH   1   5
BRANCH   1  11
HETATM   11  C   UNK N   1      24.209  12.224  10.622  0.00  0.00     0.164 C 
HETATM   12  O   UNK N   1      24.431  11.851   9.481  0.00  0.00    -0.648 OA
BRANCH  11  13
HETATM   13  O   UNK N   1      25.239  12.455  11.459  0.00  0.00    -0.775 OA
HETATM   14  H   UNK N   1      25.299  13.209  12.011  0.00  0.00     0.167 HD
ENDBRANCH  11  13
ENDBRANCH   1  11
TORSDOF 6
ENDMDL
MODEL 3
REMARK VINA RESULT:      -4.4     15.221     16.221
REMARK  6 active torsions:
REMARK  status: ('A' for Active; 'I' for Inactive)
REMARK    1  A    between atoms: C_2  and  N_1 
REMARK    2  A    between atoms: C_2  and  C_3 
REMARK    3  A    between atoms: C_2  and  C_8 
REMARK    4  A    between atoms: C_3  and  S_4 
REMARK    5  A    between atoms: S_4  and  O_5 
REMARK    6  A    between atoms: C_8  and  O_9 
ROOT
HETATM    1  C   UNK N   1      34.515  16.571   8.221  0.00  0.00     0.189 C 
ENDROOT
BRANCH   1   2
HETATM    2  N   UNK N   1      33.659  15.659   7.475  0.00  0.00    -0.417 N 
HETATM    3  H   UNK N   1      33.516  15.787   6.474  0.00  0.00     0.150 HD
HETATM    4  H   UNK N   1      33.200  14.887   7.959  0.00  0.00     0.150 HD
ENDBRANCH   1   2
BRANCH   1   5
HETATM    5  C   UNK N   1      34.053  16.639   9.676  0.00  0.00     0.191 C 
BRANCH   5   6
HETATM    6  S   UNK N   1      35.338  15.945  10.771  0.00  0.00     0.096 S 
HETATM    7  O   UNK N   1      35.687  15.379   9.386  0.00  0.00    -0.601 OA
HETATM    8  O   UNK N   1      35.637  17.427  10.501  0.00  0.00    -0.601 OA
BRANCH   6   9
HETATM    9  O   UNK N   1      37.048  16.056  10.849  0.00  0.00    -0.296 OA
HETATM   10  H   UNK N   1      37.548  15.817  11.646  0.00  0.00     0.232 HD
ENDBRANCH   6   9
ENDBRANCH   5   6
ENDBRANCH   1   5
BRANCH   1  11
HETATM   11  C   UNK N   1      34.522  17.931   7.582  0.00  0.00     0.164 C 
HETATM   12  O   UNK N   1      34.168  18.056   6.420  0.00  0.00    -0.648 OA
BRANCH  11  13
HETATM   13  O   UNK N   1      34.877  19.021   8.289  0.00  0.00    -0.775 OA
HETATM   14  H   UNK N   1      34.497  19.868   8.161  0.00  0.00     0.167 HD
ENDBRANCH  11  13
ENDBRANCH   1  11
TORSDOF 6
ENDMDL
MODEL 4
REMARK VINA RESULT:      -4.4     15.157     15.641
REMARK  6 active torsions:
REMARK  status: ('A' for Active; 'I' for Inactive)
REMARK    1  A    between atoms: C_2  and  N_1 
REMARK    2  A    between atoms: C_2  and  C_3 
REMARK    3  A    between atoms: C_2  and  C_8 
REMARK    4  A    between atoms: C_3  and  S_4 
REMARK    5  A    between atoms: S_4  and  O_5 
REMARK    6  A    between atoms: C_8  and  O_9 
ROOT
HETATM    1  C   UNK N   1      34.212  17.124   9.040  0.00  0.00     0.189 C 
ENDROOT
BRANCH   1   2
HETATM    2  N   UNK N   1      34.887  17.215  10.327  0.00  0.00    -0.417 N 
HETATM    3  H   UNK N   1      35.730  16.670  10.508  0.00  0.00     0.150 HD
HETATM    4  H   UNK N   1      34.513  17.827  11.052  0.00  0.00     0.150 HD
ENDBRANCH   1   2
BRANCH   1   5
HETATM    5  C   UNK N   1      34.457  15.748   8.423  0.00  0.00     0.191 C 
BRANCH   5   6
HETATM    6  S   UNK N   1      33.648  14.459   9.431  0.00  0.00     0.096 S 
HETATM    7  O   UNK N   1      32.551  15.517   9.232  0.00  0.00    -0.601 OA
HETATM    8  O   UNK N   1      33.772  13.975   7.978  0.00  0.00    -0.601 OA
BRANCH   6   9
HETATM    9  O   UNK N   1      32.298  13.422   9.209  0.00  0.00    -0.296 OA
HETATM   10  H   UNK N   1      32.261  12.764   8.497  0.00  0.00     0.232 HD
ENDBRANCH   6   9
ENDBRANCH   5   6
ENDBRANCH   1   5
BRANCH   1  11
HETATM   11  C   UNK N   1      34.667  18.226   8.126  0.00  0.00     0.164 C 
HETATM   12  O   UNK N   1      34.397  18.176   6.936  0.00  0.00    -0.648 OA
BRANCH  11  13
HETATM   13  O   UNK N   1      35.337  19.289   8.611  0.00  0.00    -0.775 OA
HETATM   14  H   UNK N   1      35.115  19.720   9.412  0.00  0.00     0.167 HD
ENDBRANCH  11  13
ENDBRANCH   1  11
TORSDOF 6
ENDMDL
MODEL 5
REMARK VINA RESULT:      -4.2     14.601     15.485
REMARK  6 active torsions:
REMARK  status: ('A' for Active; 'I' for Inactive)
REMARK    1  A    between atoms: C_2  and  N_1 
REMARK    2  A    between atoms: C_2  and  C_3 
REMARK    3  A    between atoms: C_2  and  C_8 
REMARK    4  A    between atoms: C_3  and  S_4 
REMARK    5  A    between atoms: S_4  and  O_5 
REMARK    6  A    between atoms: C_8  and  O_9 
ROOT
HETATM    1  C   UNK N   1      32.980  15.756   9.082  0.00  0.00     0.189 C 
ENDROOT
BRANCH   1   2
HETATM    2  N   UNK N   1      32.680  15.060  10.325  0.00  0.00    -0.417 N 
HETATM    3  H   UNK N   1      31.857  14.463  10.397  0.00  0.00     0.150 HD
HETATM    4  H   UNK N   1      33.299  15.170  11.129  0.00  0.00     0.150 HD
ENDBRANCH   1   2
BRANCH   1   5
HETATM    5  C   UNK N   1      34.127  16.742   9.306  0.00  0.00     0.191 C 
BRANCH   5   6
HETATM    6  S   UNK N   1      35.220  16.136  10.636  0.00  0.00     0.096 S 
HETATM    7  O   UNK N   1      35.675  15.351   9.396  0.00  0.00    -0.601 OA
HETATM    8  O   UNK N   1      35.667  17.540  10.201  0.00  0.00    -0.601 OA
BRANCH   6   9
HETATM    9  O   UNK N   1      36.915  16.148  10.906  0.00  0.00    -0.296 OA
HETATM   10  H   UNK N   1      37.318  16.621  11.652  0.00  0.00     0.232 HD
ENDBRANCH   6   9
ENDBRANCH   5   6
ENDBRANCH   1   5
BRANCH   1  11
HETATM   11  C   UNK N   1      31.756  16.448   8.554  0.00  0.00     0.164 C 
HETATM   12  O   UNK N   1      31.257  16.077   7.503  0.00  0.00    -0.648 OA
BRANCH  11  13
HETATM   13  O   UNK N   1      31.178  17.448   9.248  0.00  0.00    -0.775 OA
HETATM   14  H   UNK N   1      30.288  17.714   9.128  0.00  0.00     0.167 HD
ENDBRANCH  11  13
ENDBRANCH   1  11
TORSDOF 6
ENDMDL
MODEL 6
REMARK VINA RESULT:      -4.2     14.429     15.320
REMARK  6 active torsions:
REMARK  status: ('A' for Active; 'I' for Inactive)
REMARK    1  A    between atoms: C_2  and  N_1 
REMARK    2  A    between atoms: C_2  and  C_3 
REMARK    3  A    between atoms: C_2  and  C_8 
REMARK    4  A    between atoms: C_3  and  S_4 
REMARK    5  A    between atoms: S_4  and  O_5 
REMARK    6  A    between atoms: C_8  and  O_9 
ROOT
HETATM    1  C   UNK N   1      34.564  16.301   9.528  0.00  0.00     0.189 C 
ENDROOT
BRANCH   1   2
HETATM    2  N   UNK N   1      35.034  17.141  10.620  0.00  0.00    -0.417 N 
HETATM    3  H   UNK N   1      35.610  16.748  11.363  0.00  0.00     0.150 HD
HETATM    4  H   UNK N   1      34.785  18.130  10.641  0.00  0.00     0.150 HD
ENDBRANCH   1   2
BRANCH   1   5
HETATM    5  C   UNK N   1      33.531  17.063   8.698  0.00  0.00     0.191 C 
BRANCH   5   6
HETATM    6  S   UNK N   1      33.911  16.895   6.921  0.00  0.00     0.096 S 
HETATM    7  O   UNK N   1      32.492  17.485   6.943  0.00  0.00    -0.601 OA
HETATM    8  O   UNK N   1      34.673  18.097   7.499  0.00  0.00    -0.601 OA
BRANCH   6   9
HETATM    9  O   UNK N   1      34.045  17.989   5.606  0.00  0.00    -0.296 OA
HETATM   10  H   UNK N   1      34.676  17.855   4.881  0.00  0.00     0.232 HD
ENDBRANCH   6   9
ENDBRANCH   5   6
ENDBRANCH   1   5
BRANCH   1  11
HETATM   11  C   UNK N   1      34.003  15.012  10.056  0.00  0.00     0.164 C 
HETATM   12  O   UNK N   1      34.120  13.987   9.402  0.00  0.00    -0.648 OA
BRANCH  11  13
HETATM   13  O   UNK N   1      33.405  14.965  11.263  0.00  0.00    -0.775 OA
HETATM   14  H   UNK N   1      33.497  15.634  11.913  0.00  0.00     0.167 HD
ENDBRANCH  11  13
ENDBRANCH   1  11
TORSDOF 6
ENDMDL
MODEL 7
REMARK VINA RESULT:      -4.1      2.247      3.161
REMARK  6 active torsions:
REMARK  status: ('A' for Active; 'I' for Inactive)
REMARK    1  A    between atoms: C_2  and  N_1 
REMARK    2  A    between atoms: C_2  and  C_3 
REMARK    3  A    between atoms: C_2  and  C_8 
REMARK    4  A    between atoms: C_3  and  S_4 
REMARK    5  A    between atoms: S_4  and  O_5 
REMARK    6  A    between atoms: C_8  and  O_9 
ROOT
HETATM    1  C   UNK N   1      20.354  19.158   2.381  0.00  0.00     0.189 C 
ENDROOT
BRANCH   1   2
HETATM    2  N   UNK N   1      18.929  18.868   2.310  0.00  0.00    -0.417 N 
HETATM    3  H   UNK N   1      18.423  18.558   3.139  0.00  0.00     0.150 HD
HETATM    4  H   UNK N   1      18.434  18.975   1.424  0.00  0.00     0.150 HD
ENDBRANCH   1   2
BRANCH   1   5
HETATM    5  C   UNK N   1      20.728  19.566   3.805  0.00  0.00     0.191 C 
BRANCH   5   6
HETATM    6  S   UNK N   1      21.621  18.206   4.632  0.00  0.00     0.096 S 
HETATM    7  O   UNK N   1      22.740  19.095   4.069  0.00  0.00    -0.601 OA
HETATM    8  O   UNK N   1      21.063  19.172   5.688  0.00  0.00    -0.601 OA
BRANCH   6   9
HETATM    9  O   UNK N   1      22.735  18.106   5.933  0.00  0.00    -0.296 OA
HETATM   10  H   UNK N   1      23.172  17.276   6.180  0.00  0.00     0.232 HD
ENDBRANCH   6   9
ENDBRANCH   5   6
ENDBRANCH   1   5
BRANCH   1  11
HETATM   11  C   UNK N   1      20.727  20.220   1.387  0.00  0.00     0.164 C 
HETATM   12  O   UNK N   1      21.106  21.312   1.782  0.00  0.00    -0.648 OA
BRANCH  11  13
HETATM   13  O   UNK N   1      20.687  19.969   0.064  0.00  0.00    -0.775 OA
HETATM   14  H   UNK N   1      19.908  20.034  -0.452  0.00  0.00     0.167 HD
ENDBRANCH  11  13
ENDBRANCH   1  11
TORSDOF 6
ENDMDL
MODEL 8
REMARK VINA RESULT:      -4.0      2.145      3.600
REMARK  6 active torsions:
REMARK  status: ('A' for Active; 'I' for Inactive)
REMARK    1  A    between atoms: C_2  and  N_1 
REMARK    2  A    between atoms: C_2  and  C_3 
REMARK    3  A    between atoms: C_2  and  C_8 
REMARK    4  A    between atoms: C_3  and  S_4 
REMARK    5  A    between atoms: S_4  and  O_5 
REMARK    6  A    between atoms: C_8  and  O_9 
ROOT
HETATM    1  C   UNK N   1      20.224  18.968   1.875  0.00  0.00     0.189 C 
ENDROOT
BRANCH   1   2
HETATM    2  N   UNK N   1      18.932  19.364   2.418  0.00  0.00    -0.417 N 
HETATM    3  H   UNK N   1      18.524  18.857   3.202  0.00  0.00     0.150 HD
HETATM    4  H   UNK N   1      18.433  20.155   2.011  0.00  0.00     0.150 HD
ENDBRANCH   1   2
BRANCH   1   5
HETATM    5  C   UNK N   1      21.073  18.329   2.973  0.00  0.00     0.191 C 
BRANCH   5   6
HETATM    6  S   UNK N   1      20.805  16.524   2.998  0.00  0.00     0.096 S 
HETATM    7  O   UNK N   1      19.663  17.080   3.863  0.00  0.00    -0.601 OA
HETATM    8  O   UNK N   1      20.366  17.090   1.639  0.00  0.00    -0.601 OA
BRANCH   6   9
HETATM    9  O   UNK N   1      19.539  15.483   2.490  0.00  0.00    -0.296 OA
HETATM   10  H   UNK N   1      19.637  14.518   2.472  0.00  0.00     0.232 HD
ENDBRANCH   6   9
ENDBRANCH   5   6
ENDBRANCH   1   5
BRANCH   1  11
HETATM   11  C   UNK N   1      20.920  20.146   1.256  0.00  0.00     0.164 C 
HETATM   12  O   UNK N   1      21.773  20.747   1.890  0.00  0.00    -0.648 OA
BRANCH  11  13
HETATM   13  O   UNK N   1      20.643  20.522  -0.008  0.00  0.00    -0.775 OA
HETATM   14  H   UNK N   1      21.146  21.154  -0.483  0.00  0.00     0.167 HD
ENDBRANCH  11  13
ENDBRANCH   1  11
TORSDOF 6
ENDMDL
MODEL 9
REMARK VINA RESULT:      -4.0     17.503     18.414
REMARK  6 active torsions:
REMARK  status: ('A' for Active; 'I' for Inactive)
REMARK    1  A    between atoms: C_2  and  N_1 
REMARK    2  A    between atoms: C_2  and  C_3 
REMARK    3  A    between atoms: C_2  and  C_8 
REMARK    4  A    between atoms: C_3  and  S_4 
REMARK    5  A    between atoms: S_4  and  O_5 
REMARK    6  A    between atoms: C_8  and  O_9 
ROOT
HETATM    1  C   UNK N   1      36.483  14.009  11.407  0.00  0.00     0.189 C 
ENDROOT
BRANCH   1   2
HETATM    2  N   UNK N   1      37.793  13.374  11.409  0.00  0.00    -0.417 N 
HETATM    3  H   UNK N   1      38.042  12.706  12.137  0.00  0.00     0.150 HD
HETATM    4  H   UNK N   1      38.466  13.601  10.676  0.00  0.00     0.150 HD
ENDBRANCH   1   2
BRANCH   1   5
HETATM    5  C   UNK N   1      36.534  15.297  10.585  0.00  0.00     0.191 C 
BRANCH   5   6
HETATM    6  S   UNK N   1      34.932  16.167  10.687  0.00  0.00     0.096 S 
HETATM    7  O   UNK N   1      35.964  17.300  10.576  0.00  0.00    -0.601 OA
HETATM    8  O   UNK N   1      35.100  15.559   9.286  0.00  0.00    -0.601 OA
BRANCH   6   9
HETATM    9  O   UNK N   1      34.067  17.229   9.654  0.00  0.00    -0.296 OA
HETATM   10  H   UNK N   1      33.164  17.524   9.853  0.00  0.00     0.232 HD
ENDBRANCH   6   9
ENDBRANCH   5   6
ENDBRANCH   1   5
BRANCH   1  11
HETATM   11  C   UNK N   1      36.019  14.270  12.811  0.00  0.00     0.164 C 
HETATM   12  O   UNK N   1      34.989  13.753  13.215  0.00  0.00    -0.648 OA
BRANCH  11  13
HETATM   13  O   UNK N   1      36.748  15.038  13.644  0.00  0.00    -0.775 OA
HETATM   14  H   UNK N   1      36.842  14.865  14.560  0.00  0.00     0.167 HD
ENDBRANCH  11  13
ENDBRANCH   1  11
TORSDOF 6
ENDMDL
