MODEL 1
REMARK VINA RESULT:      -4.6      0.000      0.000
REMARK  6 active torsions:
REMARK  status: ('A' for Active; 'I' for Inactive)
REMARK    1  A    between atoms: C_1  and  C_2 
REMARK    2  A    between atoms: C_1  and  C_3 
REMARK    3  A    between atoms: C_1  and  O_5 
REMARK    4  A    between atoms: C_2  and  C_6 
REMARK    5  A    between atoms: C_2  and  O_7 
REMARK    6  A    between atoms: C_6  and  O_9 
ROOT
HETATM    1  C   UNK N   1      21.611  20.229   2.125  0.00  0.00     0.249 C 
ENDROOT
BRANCH   1   2
HETATM    2  C   UNK N   1      20.700  19.714   3.270  0.00  0.00     0.089 C 
HETATM    3  C   UNK N   1      21.506  18.937   4.307  0.00  0.00     0.049 C 
BRANCH   2   4
HETATM    4  C   UNK N   1      19.562  18.838   2.731  0.00  0.00     0.036 C 
HETATM    5  C   UNK N   1      20.011  17.507   2.143  0.00  0.00     0.008 C 
ENDBRANCH   2   4
BRANCH   2   6
HETATM    6  O   UNK N   1      20.104  20.804   3.907  0.00  0.00    -0.387 OA
HETATM    7  H   UNK N   1      19.912  21.704   3.600  0.00  0.00     0.210 HD
ENDBRANCH   2   6
ENDBRANCH   1   2
BRANCH   1   8
HETATM    8  C   UNK N   1      20.898  20.925   0.990  0.00  0.00     0.172 C 
HETATM    9  O   UNK N   1      20.542  22.090   1.086  0.00  0.00    -0.648 OA
BRANCH   8  10
HETATM   10  O   UNK N   1      20.643  20.248  -0.145  0.00  0.00    -0.774 OA
HETATM   11  H   UNK N   1      21.110  19.458  -0.333  0.00  0.00     0.167 HD
ENDBRANCH   8  10
ENDBRANCH   1   8
BRANCH   1  12
HETATM   12  O   UNK N   1      22.602  21.079   2.625  0.00  0.00    -0.382 OA
HETATM   13  H   UNK N   1      23.373  21.506   2.218  0.00  0.00     0.210 HD
ENDBRANCH   1  12
TORSDOF 6
ENDMDL
MODEL 2
REMARK VINA RESULT:      -4.3      2.367      3.409
REMARK  6 active torsions:
REMARK  status: ('A' for Active; 'I' for Inactive)
REMARK    1  A    between atoms: C_1  and  C_2 
REMARK    2  A    between atoms: C_1  and  C_3 
REMARK    3  A    between atoms: C_1  and  O_5 
REMARK    4  A    between atoms: C_2  and  C_6 
REMARK    5  A    between atoms: C_2  and  O_7 
REMARK    6  A    between atoms: C_6  and  O_9 
ROOT
HETATM    1  C   UNK N   1      20.476  18.149   1.254  0.00  0.00     0.249 C 
ENDROOT
BRANCH   1   2
HETATM    2  C   UNK N   1      19.748  18.568   2.558  0.00  0.00     0.089 C 
HETATM    3  C   UNK N   1      20.253  19.917   3.060  0.00  0.00     0.049 C 
BRANCH   2   4
HETATM    4  C   UNK N   1      19.908  17.509   3.655  0.00  0.00     0.036 C 
HETATM    5  C   UNK N   1      21.351  17.197   4.030  0.00  0.00     0.008 C 
ENDBRANCH   2   4
BRANCH   2   6
HETATM    6  O   UNK N   1      18.380  18.681   2.302  0.00  0.00    -0.387 OA
HETATM    7  H   UNK N   1      17.886  18.813   1.477  0.00  0.00     0.210 HD
ENDBRANCH   2   6
ENDBRANCH   1   2
BRANCH   1   8
HETATM    8  C   UNK N   1      19.956  16.894   0.594  0.00  0.00     0.172 C 
HETATM    9  O   UNK N   1      20.675  15.920   0.430  0.00  0.00    -0.648 OA
BRANCH   8  10
HETATM   10  O   UNK N   1      18.679  16.850   0.169  0.00  0.00    -0.774 OA
HETATM   11  H   UNK N   1      17.979  16.839   0.793  0.00  0.00     0.167 HD
ENDBRANCH   8  10
ENDBRANCH   1   8
BRANCH   1  12
HETATM   12  O   UNK N   1      20.460  19.189   0.321  0.00  0.00    -0.382 OA
HETATM   13  H   UNK N   1      19.745  19.626  -0.169  0.00  0.00     0.210 HD
ENDBRANCH   1  12
TORSDOF 6
ENDMDL
MODEL 3
REMARK VINA RESULT:      -4.3     10.400     12.101
REMARK  6 active torsions:
REMARK  status: ('A' for Active; 'I' for Inactive)
REMARK    1  A    between atoms: C_1  and  C_2 
REMARK    2  A    between atoms: C_1  and  C_3 
REMARK    3  A    between atoms: C_1  and  O_5 
REMARK    4  A    between atoms: C_2  and  C_6 
REMARK    5  A    between atoms: C_2  and  O_7 
REMARK    6  A    between atoms: C_6  and  O_9 
ROOT
HETATM    1  C   UNK N   1      22.650  11.733  11.099  0.00  0.00     0.249 C 
ENDROOT
BRANCH   1   2
HETATM    2  C   UNK N   1      22.585  12.734   9.916  0.00  0.00     0.089 C 
HETATM    3  C   UNK N   1      21.359  13.635  10.026  0.00  0.00     0.049 C 
BRANCH   2   4
HETATM    4  C   UNK N   1      22.581  12.007   8.565  0.00  0.00     0.036 C 
HETATM    5  C   UNK N   1      23.809  11.145   8.306  0.00  0.00     0.008 C 
ENDBRANCH   2   4
BRANCH   2   6
HETATM    6  O   UNK N   1      23.724  13.541   9.937  0.00  0.00    -0.387 OA
HETATM    7  H   UNK N   1      24.350  13.757  10.646  0.00  0.00     0.210 HD
ENDBRANCH   2   6
ENDBRANCH   1   2
BRANCH   1   8
HETATM    8  C   UNK N   1      23.799  11.933  12.059  0.00  0.00     0.172 C 
HETATM    9  O   UNK N   1      23.602  12.142  13.247  0.00  0.00    -0.648 OA
BRANCH   8  10
HETATM   10  O   UNK N   1      25.063  11.889  11.597  0.00  0.00    -0.774 OA
HETATM   11  H   UNK N   1      25.285  11.305  10.899  0.00  0.00     0.167 HD
ENDBRANCH   8  10
ENDBRANCH   1   8
BRANCH   1  12
HETATM   12  O   UNK N   1      21.453  11.740  11.820  0.00  0.00    -0.382 OA
HETATM   13  H   UNK N   1      20.873  12.453  12.131  0.00  0.00     0.210 HD
ENDBRANCH   1  12
TORSDOF 6
ENDMDL
MODEL 4
REMARK VINA RESULT:      -4.3      1.422      1.948
REMARK  6 active torsions:
REMARK  status: ('A' for Active; 'I' for Inactive)
REMARK    1  A    between atoms: C_1  and  C_2 
REMARK    2  A    between atoms: C_1  and  C_3 
REMARK    3  A    between atoms: C_1  and  O_5 
REMARK    4  A    between atoms: C_2  and  C_6 
REMARK    5  A    between atoms: C_2  and  O_7 
REMARK    6  A    between atoms: C_6  and  O_9 
ROOT
HETATM    1  C   UNK N   1      20.794  19.596   2.610  0.00  0.00     0.249 C 
ENDROOT
BRANCH   1   2
HETATM    2  C   UNK N   1      19.818  18.396   2.492  0.00  0.00     0.089 C 
HETATM    3  C   UNK N   1      19.921  17.481   3.708  0.00  0.00     0.049 C 
BRANCH   2   4
HETATM    4  C   UNK N   1      20.070  17.592   1.210  0.00  0.00     0.036 C 
HETATM    5  C   UNK N   1      20.432  16.131   1.440  0.00  0.00     0.008 C 
ENDBRANCH   2   4
BRANCH   2   6
HETATM    6  O   UNK N   1      18.509  18.877   2.416  0.00  0.00    -0.387 OA
HETATM    7  H   UNK N   1      17.805  18.731   1.765  0.00  0.00     0.210 HD
ENDBRANCH   2   6
ENDBRANCH   1   2
BRANCH   1   8
HETATM    8  C   UNK N   1      20.895  20.476   1.387  0.00  0.00     0.172 C 
HETATM    9  O   UNK N   1      21.959  20.638   0.810  0.00  0.00    -0.648 OA
BRANCH   8  10
HETATM   10  O   UNK N   1      19.793  21.099   0.928  0.00  0.00    -0.774 OA
HETATM   11  H   UNK N   1      19.777  21.438   0.055  0.00  0.00     0.167 HD
ENDBRANCH   8  10
ENDBRANCH   1   8
BRANCH   1  12
HETATM   12  O   UNK N   1      20.469  20.392   3.712  0.00  0.00    -0.382 OA
HETATM   13  H   UNK N   1      20.106  21.288   3.796  0.00  0.00     0.210 HD
ENDBRANCH   1  12
TORSDOF 6
ENDMDL
MODEL 5
REMARK VINA RESULT:      -4.2     14.473     16.159
REMARK  6 active torsions:
REMARK  status: ('A' for Active; 'I' for Inactive)
REMARK    1  A    between atoms: C_1  and  C_2 
REMARK    2  A    between atoms: C_1  and  C_3 
REMARK    3  A    between atoms: C_1  and  O_5 
REMARK    4  A    between atoms: C_2  and  C_6 
REMARK    5  A    between atoms: C_2  and  O_7 
REMARK    6  A    between atoms: C_6  and  O_9 
ROOT
HETATM    1  C   UNK N   1      34.540  15.369  10.168  0.00  0.00     0.249 C 
ENDROOT
BRANCH   1   2
HETATM    2  C   UNK N   1      33.599  15.771   9.003  0.00  0.00     0.089 C 
HETATM    3  C   UNK N   1      32.517  14.718   8.781  0.00  0.00     0.049 C 
BRANCH   2   4
HETATM    4  C   UNK N   1      34.382  15.997   7.703  0.00  0.00     0.036 C 
HETATM    5  C   UNK N   1      34.125  17.341   7.035  0.00  0.00     0.008 C 
ENDBRANCH   2   4
BRANCH   2   6
HETATM    6  O   UNK N   1      32.975  16.980   9.314  0.00  0.00    -0.387 OA
HETATM    7  H   UNK N   1      32.378  17.549   8.803  0.00  0.00     0.210 HD
ENDBRANCH   2   6
ENDBRANCH   1   2
BRANCH   1   8
HETATM    8  C   UNK N   1      35.620  16.369  10.507  0.00  0.00     0.172 C 
HETATM    9  O   UNK N   1      35.404  17.571  10.470  0.00  0.00    -0.648 OA
BRANCH   8  10
HETATM   10  O   UNK N   1      36.846  15.928  10.849  0.00  0.00    -0.774 OA
HETATM   11  H   UNK N   1      37.570  16.522  10.860  0.00  0.00     0.167 HD
ENDBRANCH   8  10
ENDBRANCH   1   8
BRANCH   1  12
HETATM   12  O   UNK N   1      33.805  15.091  11.325  0.00  0.00    -0.382 OA
HETATM   13  H   UNK N   1      34.002  15.180  12.270  0.00  0.00     0.210 HD
ENDBRANCH   1  12
TORSDOF 6
ENDMDL
MODEL 6
REMARK VINA RESULT:      -4.2     14.623     15.659
REMARK  6 active torsions:
REMARK  status: ('A' for Active; 'I' for Inactive)
REMARK    1  A    between atoms: C_1  and  C_2 
REMARK    2  A    between atoms: C_1  and  C_3 
REMARK    3  A    between atoms: C_1  and  O_5 
REMARK    4  A    between atoms: C_2  and  C_6 
REMARK    5  A    between atoms: C_2  and  O_7 
REMARK    6  A    between atoms: C_6  and  O_9 
ROOT
HETATM    1  C   UNK N   1      33.991  17.255   9.060  0.00  0.00     0.249 C 
ENDROOT
BRANCH   1   2
HETATM    2  C   UNK N   1      34.492  15.799   8.875  0.00  0.00     0.089 C 
HETATM    3  C   UNK N   1      33.341  14.803   8.984  0.00  0.00     0.049 C 
BRANCH   2   4
HETATM    4  C   UNK N   1      35.585  15.448   9.893  0.00  0.00     0.036 C 
HETATM    5  C   UNK N   1      35.475  16.188  11.220  0.00  0.00     0.008 C 
ENDBRANCH   2   4
BRANCH   2   6
HETATM    6  O   UNK N   1      35.064  15.669   7.608  0.00  0.00    -0.387 OA
HETATM    7  H   UNK N   1      35.947  15.888   7.273  0.00  0.00     0.210 HD
ENDBRANCH   2   6
ENDBRANCH   1   2
BRANCH   1   8
HETATM    8  C   UNK N   1      34.576  18.271   8.108  0.00  0.00     0.172 C 
HETATM    9  O   UNK N   1      35.281  19.183   8.511  0.00  0.00    -0.648 OA
BRANCH   8  10
HETATM   10  O   UNK N   1      34.310  18.173   6.791  0.00  0.00    -0.774 OA
HETATM   11  H   UNK N   1      33.421  18.163   6.494  0.00  0.00     0.167 HD
ENDBRANCH   8  10
ENDBRANCH   1   8
BRANCH   1  12
HETATM   12  O   UNK N   1      32.596  17.313   8.979  0.00  0.00    -0.382 OA
HETATM   13  H   UNK N   1      31.979  18.005   8.693  0.00  0.00     0.210 HD
ENDBRANCH   1  12
TORSDOF 6
ENDMDL
MODEL 7
REMARK VINA RESULT:      -4.2     12.785     14.304
REMARK  6 active torsions:
REMARK  status: ('A' for Active; 'I' for Inactive)
REMARK    1  A    between atoms: C_1  and  C_2 
REMARK    2  A    between atoms: C_1  and  C_3 
REMARK    3  A    between atoms: C_1  and  O_5 
REMARK    4  A    between atoms: C_2  and  C_6 
REMARK    5  A    between atoms: C_2  and  O_7 
REMARK    6  A    between atoms: C_6  and  O_9 
ROOT
HETATM    1  C   UNK N   1      34.199  16.899   8.781  0.00  0.00     0.249 C 
ENDROOT
BRANCH   1   2
HETATM    2  C   UNK N   1      32.739  16.388   8.667  0.00  0.00     0.089 C 
HETATM    3  C   UNK N   1      32.598  15.374   7.536  0.00  0.00     0.049 C 
BRANCH   2   4
HETATM    4  C   UNK N   1      31.755  17.547   8.457  0.00  0.00     0.036 C 
HETATM    5  C   UNK N   1      30.701  17.296   7.387  0.00  0.00     0.008 C 
ENDBRANCH   2   4
BRANCH   2   6
HETATM    6  O   UNK N   1      32.378  15.763   9.863  0.00  0.00    -0.387 OA
HETATM    7  H   UNK N   1      31.533  15.714  10.335  0.00  0.00     0.210 HD
ENDBRANCH   2   6
ENDBRANCH   1   2
BRANCH   1   8
HETATM    8  C   UNK N   1      34.540  18.094   7.921  0.00  0.00     0.172 C 
HETATM    9  O   UNK N   1      34.916  19.144   8.418  0.00  0.00    -0.648 OA
BRANCH   8  10
HETATM   10  O   UNK N   1      34.418  18.002   6.584  0.00  0.00    -0.774 OA
HETATM   11  H   UNK N   1      33.661  18.352   6.158  0.00  0.00     0.167 HD
ENDBRANCH   8  10
ENDBRANCH   1   8
BRANCH   1  12
HETATM   12  O   UNK N   1      34.519  17.194  10.110  0.00  0.00    -0.382 OA
HETATM   13  H   UNK N   1      34.928  16.677  10.821  0.00  0.00     0.210 HD
ENDBRANCH   1  12
TORSDOF 6
ENDMDL
MODEL 8
REMARK VINA RESULT:      -4.1     22.700     23.948
REMARK  6 active torsions:
REMARK  status: ('A' for Active; 'I' for Inactive)
REMARK    1  A    between atoms: C_1  and  C_2 
REMARK    2  A    between atoms: C_1  and  C_3 
REMARK    3  A    between atoms: C_1  and  O_5 
REMARK    4  A    between atoms: C_2  and  C_6 
REMARK    5  A    between atoms: C_2  and  O_7 
REMARK    6  A    between atoms: C_6  and  O_9 
ROOT
HETATM    1  C   UNK N   1      44.614  23.705   1.963  0.00  0.00     0.249 C 
ENDROOT
BRANCH   1   2
HETATM    2  C   UNK N   1      43.921  23.039   3.180  0.00  0.00     0.089 C 
HETATM    3  C   UNK N   1      44.842  22.023   3.849  0.00  0.00     0.049 C 
BRANCH   2   4
HETATM    4  C   UNK N   1      42.604  22.364   2.774  0.00  0.00     0.036 C 
HETATM    5  C   UNK N   1      41.722  23.198   1.855  0.00  0.00     0.008 C 
ENDBRANCH   2   4
BRANCH   2   6
HETATM    6  O   UNK N   1      43.599  24.021   4.118  0.00  0.00    -0.387 OA
HETATM    7  H   UNK N   1      43.456  23.976   5.076  0.00  0.00     0.210 HD
ENDBRANCH   2   6
ENDBRANCH   1   2
BRANCH   1   8
HETATM    8  C   UNK N   1      45.550  24.844   2.291  0.00  0.00     0.172 C 
HETATM    9  O   UNK N   1      45.138  25.877   2.797  0.00  0.00    -0.648 OA
BRANCH   8  10
HETATM   10  O   UNK N   1      46.862  24.723   2.014  0.00  0.00    -0.774 OA
HETATM   11  H   UNK N   1      47.498  24.886   2.682  0.00  0.00     0.167 HD
ENDBRANCH   8  10
ENDBRANCH   1   8
BRANCH   1  12
HETATM   12  O   UNK N   1      45.308  22.756   1.207  0.00  0.00    -0.382 OA
HETATM   13  H   UNK N   1      45.643  21.867   1.408  0.00  0.00     0.210 HD
ENDBRANCH   1  12
TORSDOF 6
ENDMDL
MODEL 9
REMARK VINA RESULT:      -4.1     19.667     21.095
REMARK  6 active torsions:
REMARK  status: ('A' for Active; 'I' for Inactive)
REMARK    1  A    between atoms: C_1  and  C_2 
REMARK    2  A    between atoms: C_1  and  C_3 
REMARK    3  A    between atoms: C_1  and  O_5 
REMARK    4  A    between atoms: C_2  and  C_6 
REMARK    5  A    between atoms: C_2  and  O_7 
REMARK    6  A    between atoms: C_6  and  O_9 
ROOT
HETATM    1  C   UNK N   1      36.490  13.334  15.021  0.00  0.00     0.249 C 
ENDROOT
BRANCH   1   2
HETATM    2  C   UNK N   1      35.497  13.058  16.180  0.00  0.00     0.089 C 
HETATM    3  C   UNK N   1      35.677  14.068  17.310  0.00  0.00     0.049 C 
BRANCH   2   4
HETATM    4  C   UNK N   1      35.652  11.632  16.724  0.00  0.00     0.036 C 
HETATM    5  C   UNK N   1      35.350  11.485  18.209  0.00  0.00     0.008 C 
ENDBRANCH   2   4
BRANCH   2   6
HETATM    6  O   UNK N   1      34.190  13.168  15.700  0.00  0.00    -0.387 OA
HETATM    7  H   UNK N   1      33.835  13.196  14.798  0.00  0.00     0.210 HD
ENDBRANCH   2   6
ENDBRANCH   1   2
BRANCH   1   8
HETATM    8  C   UNK N   1      35.891  13.970  13.789  0.00  0.00     0.172 C 
HETATM    9  O   UNK N   1      34.973  13.437  13.183  0.00  0.00    -0.648 OA
BRANCH   8  10
HETATM   10  O   UNK N   1      36.382  15.142  13.344  0.00  0.00    -0.774 OA
HETATM   11  H   UNK N   1      37.258  15.394  13.560  0.00  0.00     0.167 HD
ENDBRANCH   8  10
ENDBRANCH   1   8
BRANCH   1  12
HETATM   12  O   UNK N   1      37.558  14.122  15.460  0.00  0.00    -0.382 OA
HETATM   13  H   UNK N   1      38.275  13.967  16.096  0.00  0.00     0.210 HD
ENDBRANCH   1  12
TORSDOF 6
ENDMDL
