MODEL 1
REMARK VINA RESULT:      -7.8      0.000      0.000
REMARK  25 active torsions:
REMARK  status: ('A' for Active; 'I' for Inactive)
REMARK    1  A    between atoms: N_8  and  C_12 
REMARK    2  A    between atoms: C_15  and  C_16 
REMARK    3  A    between atoms: C_16  and  C_17 
REMARK    4  A    between atoms: C_17  and  O_18 
REMARK    5  A    between atoms: C_17  and  C_19 
REMARK    6  A    between atoms: C_19  and  O_20 
REMARK    7  A    between atoms: C_19  and  C_21 
REMARK    8  A    between atoms: C_21  and  O_22 
REMARK    9  A    between atoms: C_21  and  C_23 
REMARK   10  A    between atoms: C_23  and  O_24 
REMARK   11  A    between atoms: C_25  and  O_24 
REMARK   12  A    between atoms: C_27  and  C_28 
REMARK   13  A    between atoms: C_28  and  O_29 
REMARK   14  A    between atoms: P_30  and  O_29 
REMARK   15  A    between atoms: P_30  and  O_31 
REMARK   16  A    between atoms: P_30  and  O_33 
REMARK   17  A    between atoms: C_34  and  O_33 
REMARK   18  A    between atoms: C_34  and  C_35 
REMARK   19  A    between atoms: C_34  and  C_40 
REMARK   20  A    between atoms: C_35  and  C_36 
REMARK   21  A    between atoms: C_36  and  C_37 
REMARK   22  A    between atoms: C_37  and  O_38 
REMARK   23  A    between atoms: C_40  and  O_41 
REMARK   24  A    between atoms: C_43  and  O_44 
REMARK   25  A    between atoms: C_45  and  O_46 
REMARK       I    between atoms: C_52  and  N_53 
ROOT
HETATM    1  C   UNK N   1      25.545  18.712   4.577  0.00  0.00     0.177 C 
ENDROOT
BRANCH   1   2
HETATM    2  C   UNK N   1      26.771  18.544   5.467  0.00  0.00     0.153 C 
BRANCH   2   3
HETATM    3  C   UNK N   1      28.078  18.140   4.785  0.00  0.00     0.073 C 
BRANCH   3   4
HETATM    4  C   UNK N   1      27.876  16.702   4.461  0.00  0.00    -0.056 A 
HETATM    5  C   UNK N   1      27.890  16.279   3.127  0.00  0.00     0.009 A 
HETATM    6  C   UNK N   1      27.393  15.014   2.794  0.00  0.00     0.030 A 
HETATM    7  C   UNK N   1      26.861  14.189   3.794  0.00  0.00     0.031 A 
HETATM    8  C   UNK N   1      26.898  14.606   5.132  0.00  0.00     0.030 A 
HETATM    9  C   UNK N   1      27.418  15.844   5.465  0.00  0.00     0.009 A 
BRANCH   7  10
HETATM   10  N   UNK N   1      26.074  13.070   3.437  0.00  0.00    -0.358 N 
HETATM   11  C   UNK N   1      25.242  13.225   2.275  0.00  0.00     0.251 C 
HETATM   12  N   UNK N   1      23.968  12.755   2.693  0.00  0.00    -0.348 N 
HETATM   13  C   UNK N   1      22.745  13.360   2.256  0.00  0.00     0.146 A 
HETATM   14  C   UNK N   1      24.049  11.948   3.889  0.00  0.00     0.131 C 
HETATM   15  C   UNK N   1      21.573  13.097   2.971  0.00  0.00     0.149 A 
HETATM   16  C   UNK N   1      22.658  14.204   1.127  0.00  0.00     0.290 A 
HETATM   17  N   UNK N   1      21.642  12.318   4.149  0.00  0.00    -0.367 N 
HETATM   18  N   UNK N   1      20.387  13.621   2.562  0.00  0.00    -0.175 N 
HETATM   19  C   UNK N   1      22.900  12.224   4.858  0.00  0.00     0.104 C 
HETATM   20  H   UNK N   1      20.846  11.846   4.483  0.00  0.00     0.161 HD
HETATM   21  C   UNK N   1      22.819  11.153   5.926  0.00  0.00     0.034 C 
HETATM   22  C   UNK N   1      20.319  14.425   1.469  0.00  0.00     0.680 A 
ATOM     23  HN  UNK N   1      19.538  13.408   3.085  1.00  0.00     0.186 HD
HETATM   24  N   UNK N   1      21.441  14.719   0.765  0.00  0.00    -0.154 N 
HETATM   25  N   UNK N   1      19.081  14.968   1.074  0.00  0.00    -0.234 N 
HETATM   26  H   UNK N   1      21.380  15.313  -0.019  0.00  0.00     0.187 HD
HETATM   27  H   UNK N   1      18.222  14.709   1.479  0.00  0.00     0.174 HD
HETATM   28  H   UNK N   1      19.074  15.641   0.355  0.00  0.00     0.174 HD
HETATM   29  O   UNK N   1      23.642  14.478   0.464  0.00  0.00    -0.265 OA
HETATM   30  C   UNK N   1      25.420  12.311   4.482  0.00  0.00     0.107 C 
HETATM   31  C   UNK N   1      26.202  11.051   4.795  0.00  0.00     0.034 C 
ENDBRANCH   7  10
ENDBRANCH   3   4
ENDBRANCH   2   3
BRANCH   2  32
HETATM   32  O   UNK N   1      26.971  19.642   6.305  0.00  0.00    -0.393 OA
HETATM   33  H   UNK N   1      26.936  20.603   6.182  0.00  0.00     0.210 HD
ENDBRANCH   2  32
ENDBRANCH   1   2
BRANCH   1  34
HETATM   34  O   UNK N   1      24.378  18.496   5.315  0.00  0.00    -0.390 OA
HETATM   35  H   UNK N   1      24.118  18.893   6.160  0.00  0.00     0.210 HD
ENDBRANCH   1  34
BRANCH   1  36
HETATM   36  C   UNK N   1      25.497  20.133   3.992  0.00  0.00     0.173 C 
BRANCH  36  37
HETATM   37  O   UNK N   1      26.756  20.556   3.560  0.00  0.00    -0.391 OA
HETATM   38  H   UNK N   1      27.115  20.934   2.743  0.00  0.00     0.210 HD
ENDBRANCH  36  37
BRANCH  36  39
HETATM   39  C   UNK N   1      24.471  20.275   2.863  0.00  0.00     0.205 C 
BRANCH  39  40
HETATM   40  O   UNK N   1      23.264  20.788   3.351  0.00  0.00    -0.356 OA
BRANCH  40  41
HETATM   41  C   UNK N   1      22.337  19.766   3.120  0.00  0.00     0.291 C 
HETATM   42  O   UNK N   1      21.716  19.402   4.321  0.00  0.00    -0.348 OA
HETATM   43  C   UNK N   1      20.617  18.632   3.917  0.00  0.00     0.180 C 
HETATM   44  C   UNK N   1      20.296  19.009   2.476  0.00  0.00     0.182 C 
HETATM   45  C   UNK N   1      21.232  20.160   2.178  0.00  0.00     0.204 C 
BRANCH  43  46
HETATM   46  C   UNK N   1      20.971  17.145   3.985  0.00  0.00     0.215 C 
BRANCH  46  47
HETATM   47  O   UNK N   1      19.831  16.333   3.896  0.00  0.00    -0.294 OA
BRANCH  47  48
HETATM   48  P   UNK N   1      19.443  15.741   5.494  0.00  0.00     0.393 P 
HETATM   49  O   UNK N   1      19.516  14.195   5.387  0.00  0.00    -0.631 OA
BRANCH  48  50
HETATM   50  O   UNK N   1      17.801  16.093   5.932  0.00  0.00    -0.307 OA
HETATM   51  H   UNK N   1      17.296  15.544   6.552  0.00  0.00     0.222 HD
ENDBRANCH  48  50
BRANCH  48  52
HETATM   52  O   UNK N   1      20.563  16.173   6.760  0.00  0.00    -0.281 OA
BRANCH  52  53
HETATM   53  C   UNK N   1      19.793  16.599   7.848  0.00  0.00     0.231 C 
BRANCH  53  54
HETATM   54  C   UNK N   1      19.918  15.637   9.029  0.00  0.00     0.054 C 
BRANCH  54  55
HETATM   55  C   UNK N   1      21.054  14.641   8.849  0.00  0.00     0.113 C 
BRANCH  55  56
HETATM   56  C   UNK N   1      21.043  13.648   9.961  0.00  0.00     0.139 C 
HETATM   57  O   UNK N   1      22.090  13.266  10.458  0.00  0.00    -0.650 OA
BRANCH  56  58
HETATM   58  O   UNK N   1      19.871  13.174  10.421  0.00  0.00    -0.776 OA
HETATM   59  H   UNK N   1      19.761  12.255  10.568  0.00  0.00     0.167 HD
ENDBRANCH  56  58
ENDBRANCH  55  56
ENDBRANCH  54  55
ENDBRANCH  53  54
BRANCH  53  60
HETATM   60  C   UNK N   1      20.167  18.003   8.220  0.00  0.00     0.170 C 
HETATM   61  O   UNK N   1      19.927  18.419   9.341  0.00  0.00    -0.648 OA
BRANCH  60  62
HETATM   62  O   UNK N   1      20.749  18.817   7.317  0.00  0.00    -0.774 OA
HETATM   63  H   UNK N   1      21.273  18.696   6.551  0.00  0.00     0.167 HD
ENDBRANCH  60  62
ENDBRANCH  53  60
ENDBRANCH  52  53
ENDBRANCH  48  52
ENDBRANCH  47  48
ENDBRANCH  46  47
ENDBRANCH  43  46
BRANCH  44  64
HETATM   64  O   UNK N   1      18.955  19.368   2.327  0.00  0.00    -0.390 OA
HETATM   65  H   UNK N   1      18.315  19.319   3.055  0.00  0.00     0.210 HD
ENDBRANCH  44  64
BRANCH  45  66
HETATM   66  O   UNK N   1      20.673  21.369   2.607  0.00  0.00    -0.388 OA
HETATM   67  H   UNK N   1      19.927  21.963   2.786  0.00  0.00     0.210 HD
ENDBRANCH  45  66
ENDBRANCH  40  41
ENDBRANCH  39  40
ENDBRANCH  36  39
ENDBRANCH   1  36
TORSDOF 25
ENDMDL
MODEL 2
REMARK VINA RESULT:      -7.6      4.450      7.202
REMARK  25 active torsions:
REMARK  status: ('A' for Active; 'I' for Inactive)
REMARK    1  A    between atoms: N_8  and  C_12 
REMARK    2  A    between atoms: C_15  and  C_16 
REMARK    3  A    between atoms: C_16  and  C_17 
REMARK    4  A    between atoms: C_17  and  O_18 
REMARK    5  A    between atoms: C_17  and  C_19 
REMARK    6  A    between atoms: C_19  and  O_20 
REMARK    7  A    between atoms: C_19  and  C_21 
REMARK    8  A    between atoms: C_21  and  O_22 
REMARK    9  A    between atoms: C_21  and  C_23 
REMARK   10  A    between atoms: C_23  and  O_24 
REMARK   11  A    between atoms: C_25  and  O_24 
REMARK   12  A    between atoms: C_27  and  C_28 
REMARK   13  A    between atoms: C_28  and  O_29 
REMARK   14  A    between atoms: P_30  and  O_29 
REMARK   15  A    between atoms: P_30  and  O_31 
REMARK   16  A    between atoms: P_30  and  O_33 
REMARK   17  A    between atoms: C_34  and  O_33 
REMARK   18  A    between atoms: C_34  and  C_35 
REMARK   19  A    between atoms: C_34  and  C_40 
REMARK   20  A    between atoms: C_35  and  C_36 
REMARK   21  A    between atoms: C_36  and  C_37 
REMARK   22  A    between atoms: C_37  and  O_38 
REMARK   23  A    between atoms: C_40  and  O_41 
REMARK   24  A    between atoms: C_43  and  O_44 
REMARK   25  A    between atoms: C_45  and  O_46 
REMARK       I    between atoms: C_52  and  N_53 
ROOT
HETATM    1  C   UNK N   1      24.899  18.455   4.301  0.00  0.00     0.177 C 
ENDROOT
BRANCH   1   2
HETATM    2  C   UNK N   1      26.118  17.545   4.385  0.00  0.00     0.153 C 
BRANCH   2   3
HETATM    3  C   UNK N   1      26.121  16.481   5.483  0.00  0.00     0.073 C 
BRANCH   3   4
HETATM    4  C   UNK N   1      27.507  16.531   6.019  0.00  0.00    -0.056 A 
HETATM    5  C   UNK N   1      27.949  17.667   6.707  0.00  0.00     0.009 A 
HETATM    6  C   UNK N   1      29.317  17.856   6.930  0.00  0.00     0.030 A 
HETATM    7  C   UNK N   1      30.239  16.921   6.441  0.00  0.00     0.031 A 
HETATM    8  C   UNK N   1      29.780  15.765   5.796  0.00  0.00     0.030 A 
HETATM    9  C   UNK N   1      28.424  15.562   5.603  0.00  0.00     0.009 A 
BRANCH   7  10
HETATM   10  N   UNK N   1      31.611  17.256   6.374  0.00  0.00    -0.358 N 
HETATM   11  C   UNK N   1      32.216  17.196   5.071  0.00  0.00     0.251 C 
HETATM   12  N   UNK N   1      33.411  16.456   5.275  0.00  0.00    -0.348 N 
HETATM   13  C   UNK N   1      33.912  15.525   4.307  0.00  0.00     0.146 A 
HETATM   14  C   UNK N   1      33.792  16.406   6.668  0.00  0.00     0.131 C 
HETATM   15  C   UNK N   1      34.862  14.583   4.712  0.00  0.00     0.149 A 
HETATM   16  C   UNK N   1      33.504  15.517   2.956  0.00  0.00     0.290 A 
HETATM   17  N   UNK N   1      35.234  14.517   6.075  0.00  0.00    -0.367 N 
HETATM   18  N   UNK N   1      35.390  13.711   3.813  0.00  0.00    -0.175 N 
HETATM   19  C   UNK N   1      34.327  15.034   7.077  0.00  0.00     0.104 C 
HETATM   20  H   UNK N   1      36.097  14.126   6.339  0.00  0.00     0.161 HD
HETATM   21  C   UNK N   1      35.019  15.100   8.424  0.00  0.00     0.034 C 
HETATM   22  C   UNK N   1      34.993  13.721   2.514  0.00  0.00     0.680 A 
ATOM     23  HN  UNK N   1      36.094  13.039   4.120  1.00  0.00     0.186 HD
HETATM   24  N   UNK N   1      34.056  14.608   2.092  0.00  0.00    -0.154 N 
HETATM   25  N   UNK N   1      35.544  12.798   1.605  0.00  0.00    -0.234 N 
HETATM   26  H   UNK N   1      33.767  14.597   1.150  0.00  0.00     0.187 HD
HETATM   27  H   UNK N   1      36.298  12.204   1.825  0.00  0.00     0.174 HD
HETATM   28  H   UNK N   1      35.156  12.743   0.701  0.00  0.00     0.174 HD
HETATM   29  O   UNK N   1      32.676  16.307   2.539  0.00  0.00    -0.265 OA
HETATM   30  C   UNK N   1      32.500  16.779   7.412  0.00  0.00     0.107 C 
HETATM   31  C   UNK N   1      32.778  17.877   8.421  0.00  0.00     0.034 C 
ENDBRANCH   7  10
ENDBRANCH   3   4
ENDBRANCH   2   3
BRANCH   2  32
HETATM   32  O   UNK N   1      26.442  16.979   3.151  0.00  0.00    -0.393 OA
HETATM   33  H   UNK N   1      26.893  16.165   2.876  0.00  0.00     0.210 HD
ENDBRANCH   2  32
ENDBRANCH   1   2
BRANCH   1  34
HETATM   34  O   UNK N   1      24.195  18.433   5.509  0.00  0.00    -0.390 OA
HETATM   35  H   UNK N   1      24.252  19.056   6.250  0.00  0.00     0.210 HD
ENDBRANCH   1  34
BRANCH   1  36
HETATM   36  C   UNK N   1      25.329  19.903   4.013  0.00  0.00     0.173 C 
BRANCH  36  37
HETATM   37  O   UNK N   1      26.718  20.023   3.937  0.00  0.00    -0.391 OA
HETATM   38  H   UNK N   1      27.351  20.757   3.959  0.00  0.00     0.210 HD
ENDBRANCH  36  37
BRANCH  36  39
HETATM   39  C   UNK N   1      24.676  20.475   2.751  0.00  0.00     0.205 C 
BRANCH  39  40
HETATM   40  O   UNK N   1      23.439  21.058   3.053  0.00  0.00    -0.356 OA
BRANCH  40  41
HETATM   41  C   UNK N   1      22.516  20.024   2.866  0.00  0.00     0.291 C 
HETATM   42  O   UNK N   1      21.880  19.723   4.076  0.00  0.00    -0.348 OA
HETATM   43  C   UNK N   1      20.787  18.931   3.699  0.00  0.00     0.180 C 
HETATM   44  C   UNK N   1      20.485  19.230   2.236  0.00  0.00     0.182 C 
HETATM   45  C   UNK N   1      21.423  20.365   1.889  0.00  0.00     0.204 C 
BRANCH  43  46
HETATM   46  C   UNK N   1      21.141  17.451   3.852  0.00  0.00     0.215 C 
BRANCH  46  47
HETATM   47  O   UNK N   1      20.139  16.742   4.530  0.00  0.00    -0.294 OA
BRANCH  47  48
HETATM   48  P   UNK N   1      20.892  15.743   5.750  0.00  0.00     0.393 P 
HETATM   49  O   UNK N   1      21.889  16.676   6.487  0.00  0.00    -0.631 OA
BRANCH  48  50
HETATM   50  O   UNK N   1      21.870  14.492   5.047  0.00  0.00    -0.307 OA
HETATM   51  H   UNK N   1      22.206  13.741   5.561  0.00  0.00     0.222 HD
ENDBRANCH  48  50
BRANCH  48  52
HETATM   52  O   UNK N   1      19.832  15.123   6.989  0.00  0.00    -0.281 OA
BRANCH  52  53
HETATM   53  C   UNK N   1      20.463  15.367   8.215  0.00  0.00     0.231 C 
BRANCH  53  54
HETATM   54  C   UNK N   1      19.516  16.043   9.204  0.00  0.00     0.054 C 
BRANCH  54  55
HETATM   55  C   UNK N   1      18.897  17.314   8.641  0.00  0.00     0.113 C 
BRANCH  55  56
HETATM   56  C   UNK N   1      19.830  18.462   8.827  0.00  0.00     0.139 C 
HETATM   57  O   UNK N   1      19.909  19.024   9.908  0.00  0.00    -0.650 OA
BRANCH  56  58
HETATM   58  O   UNK N   1      20.590  18.877   7.798  0.00  0.00    -0.776 OA
HETATM   59  H   UNK N   1      20.685  19.793   7.622  0.00  0.00     0.167 HD
ENDBRANCH  56  58
ENDBRANCH  55  56
ENDBRANCH  54  55
ENDBRANCH  53  54
BRANCH  53  60
HETATM   60  C   UNK N   1      21.031  14.089   8.758  0.00  0.00     0.170 C 
HETATM   61  O   UNK N   1      21.777  14.118   9.723  0.00  0.00    -0.648 OA
BRANCH  60  62
HETATM   62  O   UNK N   1      20.740  12.909   8.176  0.00  0.00    -0.774 OA
HETATM   63  H   UNK N   1      20.753  12.576   7.301  0.00  0.00     0.167 HD
ENDBRANCH  60  62
ENDBRANCH  53  60
ENDBRANCH  52  53
ENDBRANCH  48  52
ENDBRANCH  47  48
ENDBRANCH  46  47
ENDBRANCH  43  46
BRANCH  44  64
HETATM   64  O   UNK N   1      19.145  19.578   2.051  0.00  0.00    -0.390 OA
HETATM   65  H   UNK N   1      18.429  18.924   2.052  0.00  0.00     0.210 HD
ENDBRANCH  44  64
BRANCH  45  66
HETATM   66  O   UNK N   1      20.858  21.594   2.245  0.00  0.00    -0.388 OA
HETATM   67  H   UNK N   1      20.432  22.203   2.869  0.00  0.00     0.210 HD
ENDBRANCH  45  66
ENDBRANCH  40  41
ENDBRANCH  39  40
ENDBRANCH  36  39
ENDBRANCH   1  36
TORSDOF 25
ENDMDL
MODEL 3
REMARK VINA RESULT:      -7.5      3.030      6.822
REMARK  25 active torsions:
REMARK  status: ('A' for Active; 'I' for Inactive)
REMARK    1  A    between atoms: N_8  and  C_12 
REMARK    2  A    between atoms: C_15  and  C_16 
REMARK    3  A    between atoms: C_16  and  C_17 
REMARK    4  A    between atoms: C_17  and  O_18 
REMARK    5  A    between atoms: C_17  and  C_19 
REMARK    6  A    between atoms: C_19  and  O_20 
REMARK    7  A    between atoms: C_19  and  C_21 
REMARK    8  A    between atoms: C_21  and  O_22 
REMARK    9  A    between atoms: C_21  and  C_23 
REMARK   10  A    between atoms: C_23  and  O_24 
REMARK   11  A    between atoms: C_25  and  O_24 
REMARK   12  A    between atoms: C_27  and  C_28 
REMARK   13  A    between atoms: C_28  and  O_29 
REMARK   14  A    between atoms: P_30  and  O_29 
REMARK   15  A    between atoms: P_30  and  O_31 
REMARK   16  A    between atoms: P_30  and  O_33 
REMARK   17  A    between atoms: C_34  and  O_33 
REMARK   18  A    between atoms: C_34  and  C_35 
REMARK   19  A    between atoms: C_34  and  C_40 
REMARK   20  A    between atoms: C_35  and  C_36 
REMARK   21  A    between atoms: C_36  and  C_37 
REMARK   22  A    between atoms: C_37  and  O_38 
REMARK   23  A    between atoms: C_40  and  O_41 
REMARK   24  A    between atoms: C_43  and  O_44 
REMARK   25  A    between atoms: C_45  and  O_46 
REMARK       I    between atoms: C_52  and  N_53 
ROOT
HETATM    1  C   UNK N   1      20.397  19.802   1.553  0.00  0.00     0.177 C 
ENDROOT
BRANCH   1   2
HETATM    2  C   UNK N   1      21.235  20.031   2.805  0.00  0.00     0.153 C 
BRANCH   2   3
HETATM    3  C   UNK N   1      22.565  20.765   2.630  0.00  0.00     0.073 C 
BRANCH   3   4
HETATM    4  C   UNK N   1      23.536  19.913   3.367  0.00  0.00    -0.056 A 
HETATM    5  C   UNK N   1      24.904  20.021   3.096  0.00  0.00     0.009 A 
HETATM    6  C   UNK N   1      25.781  19.024   3.538  0.00  0.00     0.030 A 
HETATM    7  C   UNK N   1      25.281  17.912   4.227  0.00  0.00     0.031 A 
HETATM    8  C   UNK N   1      23.915  17.841   4.534  0.00  0.00     0.030 A 
HETATM    9  C   UNK N   1      23.052  18.843   4.125  0.00  0.00     0.009 A 
BRANCH   7  10
HETATM   10  N   UNK N   1      26.090  16.764   4.390  0.00  0.00    -0.358 N 
HETATM   11  C   UNK N   1      26.608  16.534   5.710  0.00  0.00     0.251 C 
HETATM   12  N   UNK N   1      27.990  16.279   5.504  0.00  0.00    -0.348 N 
HETATM   13  C   UNK N   1      29.000  16.734   6.413  0.00  0.00     0.146 A 
HETATM   14  C   UNK N   1      28.283  15.932   4.132  0.00  0.00     0.131 C 
HETATM   15  C   UNK N   1      30.327  16.772   5.978  0.00  0.00     0.149 A 
HETATM   16  C   UNK N   1      28.725  17.139   7.738  0.00  0.00     0.290 A 
HETATM   17  N   UNK N   1      30.624  16.446   4.634  0.00  0.00    -0.367 N 
HETATM   18  N   UNK N   1      31.317  17.160   6.825  0.00  0.00    -0.175 N 
HETATM   19  C   UNK N   1      29.583  16.563   3.636  0.00  0.00     0.104 C 
HETATM   20  H   UNK N   1      31.525  16.144   4.381  0.00  0.00     0.161 HD
HETATM   21  C   UNK N   1      30.033  15.929   2.335  0.00  0.00     0.034 C 
HETATM   22  C   UNK N   1      31.036  17.539   8.099  0.00  0.00     0.680 A 
ATOM     23  HN  UNK N   1      32.283  17.168   6.498  1.00  0.00     0.186 HD
HETATM   24  N   UNK N   1      29.755  17.535   8.548  0.00  0.00    -0.154 N 
HETATM   25  N   UNK N   1      32.077  17.951   8.954  0.00  0.00    -0.234 N 
HETATM   26  H   UNK N   1      29.564  17.824   9.470  0.00  0.00     0.187 HD
HETATM   27  H   UNK N   1      33.031  17.876   8.721  0.00  0.00     0.174 HD
HETATM   28  H   UNK N   1      31.839  18.334   9.829  0.00  0.00     0.174 HD
HETATM   29  O   UNK N   1      27.588  17.135   8.178  0.00  0.00    -0.265 OA
HETATM   30  C   UNK N   1      27.052  16.434   3.359  0.00  0.00     0.107 C 
HETATM   31  C   UNK N   1      26.517  15.335   2.462  0.00  0.00     0.034 C 
ENDBRANCH   7  10
ENDBRANCH   3   4
ENDBRANCH   2   3
BRANCH   2  32
HETATM   32  O   UNK N   1      20.493  20.596   3.843  0.00  0.00    -0.393 OA
HETATM   33  H   UNK N   1      20.644  20.724   4.792  0.00  0.00     0.210 HD
ENDBRANCH   2  32
ENDBRANCH   1   2
BRANCH   1  34
HETATM   34  O   UNK N   1      21.075  20.274   0.425  0.00  0.00    -0.390 OA
HETATM   35  H   UNK N   1      21.856  19.897  -0.010  0.00  0.00     0.210 HD
ENDBRANCH   1  34
BRANCH   1  36
HETATM   36  C   UNK N   1      20.114  18.303   1.361  0.00  0.00     0.173 C 
BRANCH  36  37
HETATM   37  O   UNK N   1      20.444  17.877   0.073  0.00  0.00    -0.391 OA
HETATM   38  H   UNK N   1      19.947  17.640  -0.725  0.00  0.00     0.210 HD
ENDBRANCH  36  37
BRANCH  36  39
HETATM   39  C   UNK N   1      20.815  17.430   2.407  0.00  0.00     0.205 C 
BRANCH  39  40
HETATM   40  O   UNK N   1      20.658  16.072   2.104  0.00  0.00    -0.356 OA
BRANCH  40  41
HETATM   41  C   UNK N   1      20.316  15.484   3.326  0.00  0.00     0.291 C 
HETATM   42  O   UNK N   1      19.398  16.292   4.008  0.00  0.00    -0.348 OA
HETATM   43  C   UNK N   1      18.903  15.464   5.024  0.00  0.00     0.180 C 
HETATM   44  C   UNK N   1      19.129  14.020   4.592  0.00  0.00     0.182 C 
HETATM   45  C   UNK N   1      19.663  14.136   3.181  0.00  0.00     0.204 C 
BRANCH  43  46
HETATM   46  C   UNK N   1      19.663  15.729   6.325  0.00  0.00     0.215 C 
BRANCH  46  47
HETATM   47  O   UNK N   1      19.848  14.555   7.069  0.00  0.00    -0.294 OA
BRANCH  47  48
HETATM   48  P   UNK N   1      20.504  14.983   8.632  0.00  0.00     0.393 P 
HETATM   49  O   UNK N   1      19.473  14.461   9.667  0.00  0.00    -0.631 OA
BRANCH  48  50
HETATM   50  O   UNK N   1      20.555  16.703   8.862  0.00  0.00    -0.307 OA
HETATM   51  H   UNK N   1      20.062  17.150   9.567  0.00  0.00     0.222 HD
ENDBRANCH  48  50
BRANCH  48  52
HETATM   52  O   UNK N   1      22.016  14.223   9.057  0.00  0.00    -0.281 OA
BRANCH  52  53
HETATM   53  C   UNK N   1      21.737  12.869   9.273  0.00  0.00     0.231 C 
BRANCH  53  54
HETATM   54  C   UNK N   1      22.510  11.979   8.301  0.00  0.00     0.054 C 
BRANCH  54  55
HETATM   55  C   UNK N   1      21.763  11.760   6.994  0.00  0.00     0.113 C 
BRANCH  55  56
HETATM   56  C   UNK N   1      22.442  12.495   5.889  0.00  0.00     0.139 C 
HETATM   57  O   UNK N   1      22.928  11.886   4.950  0.00  0.00    -0.650 OA
BRANCH  56  58
HETATM   58  O   UNK N   1      22.514  13.838   5.927  0.00  0.00    -0.776 OA
HETATM   59  H   UNK N   1      23.282  14.258   6.262  0.00  0.00     0.167 HD
ENDBRANCH  56  58
ENDBRANCH  55  56
ENDBRANCH  54  55
ENDBRANCH  53  54
BRANCH  53  60
HETATM   60  C   UNK N   1      22.010  12.514  10.705  0.00  0.00     0.170 C 
HETATM   61  O   UNK N   1      21.104  12.107  11.413  0.00  0.00    -0.648 OA
BRANCH  60  62
HETATM   62  O   UNK N   1      23.246  12.660  11.221  0.00  0.00    -0.774 OA
HETATM   63  H   UNK N   1      24.107  12.775  10.870  0.00  0.00     0.167 HD
ENDBRANCH  60  62
ENDBRANCH  53  60
ENDBRANCH  52  53
ENDBRANCH  48  52
ENDBRANCH  47  48
ENDBRANCH  46  47
ENDBRANCH  43  46
BRANCH  44  64
HETATM   64  O   UNK N   1      17.948  13.279   4.650  0.00  0.00    -0.390 OA
HETATM   65  H   UNK N   1      17.913  12.331   4.443  0.00  0.00     0.210 HD
ENDBRANCH  44  64
BRANCH  45  66
HETATM   66  O   UNK N   1      18.610  14.233   2.266  0.00  0.00    -0.388 OA
HETATM   67  H   UNK N   1      17.762  14.589   1.956  0.00  0.00     0.210 HD
ENDBRANCH  45  66
ENDBRANCH  40  41
ENDBRANCH  39  40
ENDBRANCH  36  39
ENDBRANCH   1  36
TORSDOF 25
ENDMDL
MODEL 4
REMARK VINA RESULT:      -7.3      5.363      7.965
REMARK  25 active torsions:
REMARK  status: ('A' for Active; 'I' for Inactive)
REMARK    1  A    between atoms: N_8  and  C_12 
REMARK    2  A    between atoms: C_15  and  C_16 
REMARK    3  A    between atoms: C_16  and  C_17 
REMARK    4  A    between atoms: C_17  and  O_18 
REMARK    5  A    between atoms: C_17  and  C_19 
REMARK    6  A    between atoms: C_19  and  O_20 
REMARK    7  A    between atoms: C_19  and  C_21 
REMARK    8  A    between atoms: C_21  and  O_22 
REMARK    9  A    between atoms: C_21  and  C_23 
REMARK   10  A    between atoms: C_23  and  O_24 
REMARK   11  A    between atoms: C_25  and  O_24 
REMARK   12  A    between atoms: C_27  and  C_28 
REMARK   13  A    between atoms: C_28  and  O_29 
REMARK   14  A    between atoms: P_30  and  O_29 
REMARK   15  A    between atoms: P_30  and  O_31 
REMARK   16  A    between atoms: P_30  and  O_33 
REMARK   17  A    between atoms: C_34  and  O_33 
REMARK   18  A    between atoms: C_34  and  C_35 
REMARK   19  A    between atoms: C_34  and  C_40 
REMARK   20  A    between atoms: C_35  and  C_36 
REMARK   21  A    between atoms: C_36  and  C_37 
REMARK   22  A    between atoms: C_37  and  O_38 
REMARK   23  A    between atoms: C_40  and  O_41 
REMARK   24  A    between atoms: C_43  and  O_44 
REMARK   25  A    between atoms: C_45  and  O_46 
REMARK       I    between atoms: C_52  and  N_53 
ROOT
HETATM    1  C   UNK N   1      26.500  19.388   4.879  0.00  0.00     0.177 C 
ENDROOT
BRANCH   1   2
HETATM    2  C   UNK N   1      27.226  18.376   5.758  0.00  0.00     0.153 C 
BRANCH   2   3
HETATM    3  C   UNK N   1      27.986  18.921   6.967  0.00  0.00     0.073 C 
BRANCH   3   4
HETATM    4  C   UNK N   1      29.088  17.941   7.161  0.00  0.00    -0.056 A 
HETATM    5  C   UNK N   1      29.628  17.742   8.437  0.00  0.00     0.009 A 
HETATM    6  C   UNK N   1      30.851  17.078   8.578  0.00  0.00     0.030 A 
HETATM    7  C   UNK N   1      31.541  16.639   7.440  0.00  0.00     0.031 A 
HETATM    8  C   UNK N   1      30.965  16.802   6.172  0.00  0.00     0.030 A 
HETATM    9  C   UNK N   1      29.740  17.431   6.035  0.00  0.00     0.009 A 
BRANCH   7  10
HETATM   10  N   UNK N   1      32.901  16.268   7.543  0.00  0.00    -0.358 N 
HETATM   11  C   UNK N   1      33.201  14.883   7.302  0.00  0.00     0.251 C 
HETATM   12  N   UNK N   1      34.029  14.509   8.394  0.00  0.00    -0.348 N 
HETATM   13  C   UNK N   1      33.954  13.217   9.008  0.00  0.00     0.146 A 
HETATM   14  C   UNK N   1      34.594  15.656   9.068  0.00  0.00     0.131 C 
HETATM   15  C   UNK N   1      34.516  13.043  10.276  0.00  0.00     0.149 A 
HETATM   16  C   UNK N   1      33.349  12.100   8.393  0.00  0.00     0.290 A 
HETATM   17  N   UNK N   1      35.062  14.160  10.950  0.00  0.00    -0.367 N 
HETATM   18  N   UNK N   1      34.500  11.822  10.873  0.00  0.00    -0.175 N 
HETATM   19  C   UNK N   1      34.615  15.488  10.587  0.00  0.00     0.104 C 
HETATM   20  H   UNK N   1      35.736  14.038  11.656  0.00  0.00     0.161 HD
HETATM   21  C   UNK N   1      35.498  16.533  11.238  0.00  0.00     0.034 C 
HETATM   22  C   UNK N   1      33.920  10.755  10.263  0.00  0.00     0.680 A 
ATOM     23  HN  UNK N   1      34.928  11.707  11.792  1.00  0.00     0.186 HD
HETATM   24  N   UNK N   1      33.345  10.894   9.042  0.00  0.00    -0.154 N 
HETATM   25  N   UNK N   1      33.902   9.503  10.908  0.00  0.00    -0.234 N 
HETATM   26  H   UNK N   1      32.918  10.115   8.616  0.00  0.00     0.187 HD
HETATM   27  H   UNK N   1      34.391   9.316  11.742  0.00  0.00     0.174 HD
HETATM   28  H   UNK N   1      33.374   8.777  10.504  0.00  0.00     0.174 HD
HETATM   29  O   UNK N   1      32.835  12.185   7.291  0.00  0.00    -0.265 OA
HETATM   30  C   UNK N   1      33.699  16.821   8.617  0.00  0.00     0.107 C 
HETATM   31  C   UNK N   1      34.552  17.968   8.111  0.00  0.00     0.034 C 
ENDBRANCH   7  10
ENDBRANCH   3   4
ENDBRANCH   2   3
BRANCH   2  32
HETATM   32  O   UNK N   1      26.403  17.312   6.131  0.00  0.00    -0.393 OA
HETATM   33  H   UNK N   1      26.101  16.955   6.980  0.00  0.00     0.210 HD
ENDBRANCH   2  32
ENDBRANCH   1   2
BRANCH   1  34
HETATM   34  O   UNK N   1      27.219  19.608   3.701  0.00  0.00    -0.390 OA
HETATM   35  H   UNK N   1      27.493  18.961   3.033  0.00  0.00     0.210 HD
ENDBRANCH   1  34
BRANCH   1  36
HETATM   36  C   UNK N   1      25.100  18.871   4.508  0.00  0.00     0.173 C 
BRANCH  36  37
HETATM   37  O   UNK N   1      24.239  18.882   5.608  0.00  0.00    -0.391 OA
HETATM   38  H   UNK N   1      23.543  18.298   5.947  0.00  0.00     0.210 HD
ENDBRANCH  36  37
BRANCH  36  39
HETATM   39  C   UNK N   1      24.477  19.637   3.337  0.00  0.00     0.205 C 
BRANCH  39  40
HETATM   40  O   UNK N   1      23.273  20.239   3.723  0.00  0.00    -0.356 OA
BRANCH  40  41
HETATM   41  C   UNK N   1      22.286  19.364   3.259  0.00  0.00     0.291 C 
HETATM   42  O   UNK N   1      21.620  18.776   4.341  0.00  0.00    -0.348 OA
HETATM   43  C   UNK N   1      20.480  18.197   3.765  0.00  0.00     0.180 C 
HETATM   44  C   UNK N   1      20.212  18.918   2.450  0.00  0.00     0.182 C 
HETATM   45  C   UNK N   1      21.227  20.040   2.429  0.00  0.00     0.204 C 
BRANCH  43  46
HETATM   46  C   UNK N   1      20.734  16.715   3.488  0.00  0.00     0.215 C 
BRANCH  46  47
HETATM   47  O   UNK N   1      19.576  15.945   3.667  0.00  0.00    -0.294 OA
BRANCH  47  48
HETATM   48  P   UNK N   1      19.731  15.042   5.156  0.00  0.00     0.393 P 
HETATM   49  O   UNK N   1      18.778  13.828   5.001  0.00  0.00    -0.631 OA
BRANCH  48  50
HETATM   50  O   UNK N   1      19.123  15.932   6.517  0.00  0.00    -0.307 OA
HETATM   51  H   UNK N   1      18.268  16.390   6.502  0.00  0.00     0.222 HD
ENDBRANCH  48  50
BRANCH  48  52
HETATM   52  O   UNK N   1      21.305  14.361   5.474  0.00  0.00    -0.281 OA
BRANCH  52  53
HETATM   53  C   UNK N   1      21.718  14.866   6.712  0.00  0.00     0.231 C 
BRANCH  53  54
HETATM   54  C   UNK N   1      22.421  13.795   7.545  0.00  0.00     0.054 C 
BRANCH  54  55
HETATM   55  C   UNK N   1      21.442  12.827   8.192  0.00  0.00     0.113 C 
BRANCH  55  56
HETATM   56  C   UNK N   1      20.988  13.362   9.507  0.00  0.00     0.139 C 
HETATM   57  O   UNK N   1      21.726  13.322  10.478  0.00  0.00    -0.650 OA
BRANCH  56  58
HETATM   58  O   UNK N   1      19.758  13.896   9.621  0.00  0.00    -0.776 OA
HETATM   59  H   UNK N   1      19.119  13.754   8.950  0.00  0.00     0.167 HD
ENDBRANCH  56  58
ENDBRANCH  55  56
ENDBRANCH  54  55
ENDBRANCH  53  54
BRANCH  53  60
HETATM   60  C   UNK N   1      22.578  16.078   6.507  0.00  0.00     0.170 C 
HETATM   61  O   UNK N   1      23.723  15.950   6.106  0.00  0.00    -0.648 OA
BRANCH  60  62
HETATM   62  O   UNK N   1      22.101  17.308   6.782  0.00  0.00    -0.774 OA
HETATM   63  H   UNK N   1      22.104  17.873   7.529  0.00  0.00     0.167 HD
ENDBRANCH  60  62
ENDBRANCH  53  60
ENDBRANCH  52  53
ENDBRANCH  48  52
ENDBRANCH  47  48
ENDBRANCH  46  47
ENDBRANCH  43  46
BRANCH  44  64
HETATM   64  O   UNK N   1      18.901  19.392   2.384  0.00  0.00    -0.390 OA
HETATM   65  H   UNK N   1      18.332  19.470   3.166  0.00  0.00     0.210 HD
ENDBRANCH  44  64
BRANCH  45  66
HETATM   66  O   UNK N   1      20.742  21.152   3.125  0.00  0.00    -0.388 OA
HETATM   67  H   UNK N   1      20.050  21.648   3.592  0.00  0.00     0.210 HD
ENDBRANCH  45  66
ENDBRANCH  40  41
ENDBRANCH  39  40
ENDBRANCH  36  39
ENDBRANCH   1  36
TORSDOF 25
ENDMDL
MODEL 5
REMARK VINA RESULT:      -7.2      4.958      7.108
REMARK  25 active torsions:
REMARK  status: ('A' for Active; 'I' for Inactive)
REMARK    1  A    between atoms: N_8  and  C_12 
REMARK    2  A    between atoms: C_15  and  C_16 
REMARK    3  A    between atoms: C_16  and  C_17 
REMARK    4  A    between atoms: C_17  and  O_18 
REMARK    5  A    between atoms: C_17  and  C_19 
REMARK    6  A    between atoms: C_19  and  O_20 
REMARK    7  A    between atoms: C_19  and  C_21 
REMARK    8  A    between atoms: C_21  and  O_22 
REMARK    9  A    between atoms: C_21  and  C_23 
REMARK   10  A    between atoms: C_23  and  O_24 
REMARK   11  A    between atoms: C_25  and  O_24 
REMARK   12  A    between atoms: C_27  and  C_28 
REMARK   13  A    between atoms: C_28  and  O_29 
REMARK   14  A    between atoms: P_30  and  O_29 
REMARK   15  A    between atoms: P_30  and  O_31 
REMARK   16  A    between atoms: P_30  and  O_33 
REMARK   17  A    between atoms: C_34  and  O_33 
REMARK   18  A    between atoms: C_34  and  C_35 
REMARK   19  A    between atoms: C_34  and  C_40 
REMARK   20  A    between atoms: C_35  and  C_36 
REMARK   21  A    between atoms: C_36  and  C_37 
REMARK   22  A    between atoms: C_37  and  O_38 
REMARK   23  A    between atoms: C_40  and  O_41 
REMARK   24  A    between atoms: C_43  and  O_44 
REMARK   25  A    between atoms: C_45  and  O_46 
REMARK       I    between atoms: C_52  and  N_53 
ROOT
HETATM    1  C   UNK N   1      26.449  20.246   5.471  0.00  0.00     0.177 C 
ENDROOT
BRANCH   1   2
HETATM    2  C   UNK N   1      27.053  19.044   6.188  0.00  0.00     0.153 C 
BRANCH   2   3
HETATM    3  C   UNK N   1      27.507  19.249   7.633  0.00  0.00     0.073 C 
BRANCH   3   4
HETATM    4  C   UNK N   1      28.760  18.454   7.725  0.00  0.00    -0.056 A 
HETATM    5  C   UNK N   1      29.648  18.672   8.784  0.00  0.00     0.009 A 
HETATM    6  C   UNK N   1      30.954  18.173   8.711  0.00  0.00     0.030 A 
HETATM    7  C   UNK N   1      31.371  17.480   7.566  0.00  0.00     0.031 A 
HETATM    8  C   UNK N   1      30.457  17.228   6.534  0.00  0.00     0.030 A 
HETATM    9  C   UNK N   1      29.157  17.694   6.621  0.00  0.00     0.009 A 
BRANCH   7  10
HETATM   10  N   UNK N   1      32.750  17.260   7.343  0.00  0.00    -0.358 N 
HETATM   11  C   UNK N   1      33.194  17.347   5.979  0.00  0.00     0.251 C 
HETATM   12  N   UNK N   1      33.976  16.177   5.790  0.00  0.00    -0.348 N 
HETATM   13  C   UNK N   1      33.979  15.446   4.557  0.00  0.00     0.146 A 
HETATM   14  C   UNK N   1      34.383  15.583   7.043  0.00  0.00     0.131 C 
HETATM   15  C   UNK N   1      34.466  14.136   4.555  0.00  0.00     0.149 A 
HETATM   16  C   UNK N   1      33.526  15.987   3.335  0.00  0.00     0.290 A 
HETATM   17  N   UNK N   1      34.857  13.541   5.777  0.00  0.00    -0.367 N 
HETATM   18  N   UNK N   1      34.523  13.426   3.397  0.00  0.00    -0.175 N 
HETATM   19  C   UNK N   1      34.314  14.057   7.015  0.00  0.00     0.104 C 
HETATM   20  H   UNK N   1      35.489  12.787   5.786  0.00  0.00     0.161 HD
HETATM   21  C   UNK N   1      35.048  13.458   8.198  0.00  0.00     0.034 C 
HETATM   22  C   UNK N   1      34.090  13.964   2.227  0.00  0.00     0.680 A 
ATOM     23  HN  UNK N   1      34.895  12.477   3.408  1.00  0.00     0.186 HD
HETATM   24  N   UNK N   1      33.590  15.226   2.197  0.00  0.00    -0.154 N 
HETATM   25  N   UNK N   1      34.144  13.204   1.043  0.00  0.00    -0.234 N 
HETATM   26  H   UNK N   1      33.268  15.600   1.345  0.00  0.00     0.187 HD
HETATM   27  H   UNK N   1      34.590  12.328   0.982  0.00  0.00     0.174 HD
HETATM   28  H   UNK N   1      33.716  13.567   0.234  0.00  0.00     0.174 HD
HETATM   29  O   UNK N   1      33.084  17.120   3.268  0.00  0.00    -0.265 OA
HETATM   30  C   UNK N   1      33.416  16.198   8.068  0.00  0.00     0.107 C 
HETATM   31  C   UNK N   1      34.191  16.760   9.244  0.00  0.00     0.034 C 
ENDBRANCH   7  10
ENDBRANCH   3   4
ENDBRANCH   2   3
BRANCH   2  32
HETATM   32  O   UNK N   1      26.253  17.906   6.079  0.00  0.00    -0.393 OA
HETATM   33  H   UNK N   1      26.175  17.191   5.428  0.00  0.00     0.210 HD
ENDBRANCH   2  32
ENDBRANCH   1   2
BRANCH   1  34
HETATM   34  O   UNK N   1      27.133  21.412   5.824  0.00  0.00    -0.390 OA
HETATM   35  H   UNK N   1      26.809  22.327   5.813  0.00  0.00     0.210 HD
ENDBRANCH   1  34
BRANCH   1  36
HETATM   36  C   UNK N   1      26.544  20.066   3.947  0.00  0.00     0.173 C 
BRANCH  36  37
HETATM   37  O   UNK N   1      27.633  19.269   3.589  0.00  0.00    -0.391 OA
HETATM   38  H   UNK N   1      28.457  18.991   4.018  0.00  0.00     0.210 HD
ENDBRANCH  36  37
BRANCH  36  39
HETATM   39  C   UNK N   1      25.254  19.512   3.334  0.00  0.00     0.205 C 
BRANCH  39  40
HETATM   40  O   UNK N   1      24.143  19.879   4.103  0.00  0.00    -0.356 OA
BRANCH  40  41
HETATM   41  C   UNK N   1      23.055  19.700   3.242  0.00  0.00     0.291 C 
HETATM   42  O   UNK N   1      21.869  19.607   3.981  0.00  0.00    -0.348 OA
HETATM   43  C   UNK N   1      20.858  19.757   3.022  0.00  0.00     0.180 C 
HETATM   44  C   UNK N   1      21.462  20.479   1.824  0.00  0.00     0.182 C 
HETATM   45  C   UNK N   1      22.861  20.837   2.276  0.00  0.00     0.204 C 
BRANCH  43  46
HETATM   46  C   UNK N   1      20.351  18.382   2.583  0.00  0.00     0.215 C 
BRANCH  46  47
HETATM   47  O   UNK N   1      19.454  17.835   3.512  0.00  0.00    -0.294 OA
BRANCH  47  48
HETATM   48  P   UNK N   1      19.954  16.200   3.873  0.00  0.00     0.393 P 
HETATM   49  O   UNK N   1      20.386  15.593   2.512  0.00  0.00    -0.631 OA
BRANCH  48  50
HETATM   50  O   UNK N   1      18.625  15.222   4.411  0.00  0.00    -0.307 OA
HETATM   51  H   UNK N   1      18.728  14.512   5.064  0.00  0.00     0.222 HD
ENDBRANCH  48  50
BRANCH  48  52
HETATM   52  O   UNK N   1      21.344  16.040   4.915  0.00  0.00    -0.281 OA
BRANCH  52  53
HETATM   53  C   UNK N   1      20.947  16.480   6.184  0.00  0.00     0.231 C 
BRANCH  53  54
HETATM   54  C   UNK N   1      21.229  15.425   7.252  0.00  0.00     0.054 C 
BRANCH  54  55
HETATM   55  C   UNK N   1      20.493  15.706   8.554  0.00  0.00     0.113 C 
BRANCH  55  56
HETATM   56  C   UNK N   1      20.597  14.529   9.464  0.00  0.00     0.139 C 
HETATM   57  O   UNK N   1      21.690  14.102   9.798  0.00  0.00    -0.650 OA
BRANCH  56  58
HETATM   58  O   UNK N   1      19.478  13.939   9.921  0.00  0.00    -0.776 OA
HETATM   59  H   UNK N   1      19.470  13.539  10.769  0.00  0.00     0.167 HD
ENDBRANCH  56  58
ENDBRANCH  55  56
ENDBRANCH  54  55
ENDBRANCH  53  54
BRANCH  53  60
HETATM   60  C   UNK N   1      21.602  17.793   6.497  0.00  0.00     0.170 C 
HETATM   61  O   UNK N   1      20.957  18.682   7.027  0.00  0.00    -0.648 OA
BRANCH  60  62
HETATM   62  O   UNK N   1      22.894  18.004   6.179  0.00  0.00    -0.774 OA
HETATM   63  H   UNK N   1      23.401  18.742   5.903  0.00  0.00     0.167 HD
ENDBRANCH  60  62
ENDBRANCH  53  60
ENDBRANCH  52  53
ENDBRANCH  48  52
ENDBRANCH  47  48
ENDBRANCH  46  47
ENDBRANCH  43  46
BRANCH  44  64
HETATM   64  O   UNK N   1      20.715  21.605   1.476  0.00  0.00    -0.390 OA
HETATM   65  H   UNK N   1      19.749  21.588   1.392  0.00  0.00     0.210 HD
ENDBRANCH  44  64
BRANCH  45  66
HETATM   66  O   UNK N   1      22.852  22.044   2.984  0.00  0.00    -0.388 OA
HETATM   67  H   UNK N   1      22.476  22.672   3.621  0.00  0.00     0.210 HD
ENDBRANCH  45  66
ENDBRANCH  40  41
ENDBRANCH  39  40
ENDBRANCH  36  39
ENDBRANCH   1  36
TORSDOF 25
ENDMDL
MODEL 6
REMARK VINA RESULT:      -7.2      1.474      2.640
REMARK  25 active torsions:
REMARK  status: ('A' for Active; 'I' for Inactive)
REMARK    1  A    between atoms: N_8  and  C_12 
REMARK    2  A    between atoms: C_15  and  C_16 
REMARK    3  A    between atoms: C_16  and  C_17 
REMARK    4  A    between atoms: C_17  and  O_18 
REMARK    5  A    between atoms: C_17  and  C_19 
REMARK    6  A    between atoms: C_19  and  O_20 
REMARK    7  A    between atoms: C_19  and  C_21 
REMARK    8  A    between atoms: C_21  and  O_22 
REMARK    9  A    between atoms: C_21  and  C_23 
REMARK   10  A    between atoms: C_23  and  O_24 
REMARK   11  A    between atoms: C_25  and  O_24 
REMARK   12  A    between atoms: C_27  and  C_28 
REMARK   13  A    between atoms: C_28  and  O_29 
REMARK   14  A    between atoms: P_30  and  O_29 
REMARK   15  A    between atoms: P_30  and  O_31 
REMARK   16  A    between atoms: P_30  and  O_33 
REMARK   17  A    between atoms: C_34  and  O_33 
REMARK   18  A    between atoms: C_34  and  C_35 
REMARK   19  A    between atoms: C_34  and  C_40 
REMARK   20  A    between atoms: C_35  and  C_36 
REMARK   21  A    between atoms: C_36  and  C_37 
REMARK   22  A    between atoms: C_37  and  O_38 
REMARK   23  A    between atoms: C_40  and  O_41 
REMARK   24  A    between atoms: C_43  and  O_44 
REMARK   25  A    between atoms: C_45  and  O_46 
REMARK       I    between atoms: C_52  and  N_53 
ROOT
HETATM    1  C   UNK N   1      25.564  19.664   5.323  0.00  0.00     0.177 C 
ENDROOT
BRANCH   1   2
HETATM    2  C   UNK N   1      25.447  18.168   5.058  0.00  0.00     0.153 C 
BRANCH   2   3
HETATM    3  C   UNK N   1      26.622  17.290   5.489  0.00  0.00     0.073 C 
BRANCH   3   4
HETATM    4  C   UNK N   1      26.726  16.281   4.402  0.00  0.00    -0.056 A 
HETATM    5  C   UNK N   1      26.471  16.654   3.077  0.00  0.00     0.009 A 
HETATM    6  C   UNK N   1      26.254  15.670   2.107  0.00  0.00     0.030 A 
HETATM    7  C   UNK N   1      26.268  14.317   2.472  0.00  0.00     0.031 A 
HETATM    8  C   UNK N   1      26.572  13.956   3.792  0.00  0.00     0.030 A 
HETATM    9  C   UNK N   1      26.818  14.929   4.745  0.00  0.00     0.009 A 
BRANCH   7  10
HETATM   10  N   UNK N   1      25.738  13.347   1.591  0.00  0.00    -0.358 N 
HETATM   11  C   UNK N   1      24.469  13.658   0.992  0.00  0.00     0.251 C 
HETATM   12  N   UNK N   1      23.694  12.484   1.187  0.00  0.00    -0.348 N 
HETATM   13  C   UNK N   1      22.291  12.529   1.478  0.00  0.00     0.146 A 
HETATM   14  C   UNK N   1      24.512  11.334   1.495  0.00  0.00     0.131 C 
HETATM   15  C   UNK N   1      21.679  11.391   2.010  0.00  0.00     0.149 A 
HETATM   16  C   UNK N   1      21.488  13.666   1.245  0.00  0.00     0.290 A 
HETATM   17  N   UNK N   1      22.472  10.263   2.326  0.00  0.00    -0.367 N 
HETATM   18  N   UNK N   1      20.344  11.383   2.261  0.00  0.00    -0.175 N 
HETATM   19  C   UNK N   1      23.887  10.444   2.569  0.00  0.00     0.104 C 
HETATM   20  H   UNK N   1      22.068   9.368   2.380  0.00  0.00     0.161 HD
HETATM   21  C   UNK N   1      24.582   9.099   2.633  0.00  0.00     0.034 C 
HETATM   22  C   UNK N   1      19.582  12.483   2.023  0.00  0.00     0.680 A 
ATOM     23  HN  UNK N   1      19.908  10.540   2.635  1.00  0.00     0.186 HD
HETATM   24  N   UNK N   1      20.149  13.613   1.528  0.00  0.00    -0.154 N 
HETATM   25  N   UNK N   1      18.203  12.456   2.306  0.00  0.00    -0.234 N 
HETATM   26  H   UNK N   1      19.588  14.408   1.371  0.00  0.00     0.187 HD
HETATM   27  H   UNK N   1      17.719  11.639   2.565  0.00  0.00     0.174 HD
HETATM   28  H   UNK N   1      17.696  13.297   2.240  0.00  0.00     0.174 HD
HETATM   29  O   UNK N   1      21.959  14.693   0.788  0.00  0.00    -0.265 OA
HETATM   30  C   UNK N   1      25.848  11.946   1.943  0.00  0.00     0.107 C 
HETATM   31  C   UNK N   1      26.996  11.297   1.194  0.00  0.00     0.034 C 
ENDBRANCH   7  10
ENDBRANCH   3   4
ENDBRANCH   2   3
BRANCH   2  32
HETATM   32  O   UNK N   1      24.241  17.641   5.522  0.00  0.00    -0.393 OA
HETATM   33  H   UNK N   1      23.939  16.751   5.760  0.00  0.00     0.210 HD
ENDBRANCH   2  32
ENDBRANCH   1   2
BRANCH   1  34
HETATM   34  O   UNK N   1      26.648  19.924   6.166  0.00  0.00    -0.390 OA
HETATM   35  H   UNK N   1      27.593  19.801   5.985  0.00  0.00     0.210 HD
ENDBRANCH   1  34
BRANCH   1  36
HETATM   36  C   UNK N   1      25.775  20.429   4.006  0.00  0.00     0.173 C 
BRANCH  36  37
HETATM   37  O   UNK N   1      27.025  20.155   3.446  0.00  0.00    -0.391 OA
HETATM   38  H   UNK N   1      27.828  20.666   3.265  0.00  0.00     0.210 HD
ENDBRANCH  36  37
BRANCH  36  39
HETATM   39  C   UNK N   1      24.665  20.166   2.984  0.00  0.00     0.205 C 
BRANCH  39  40
HETATM   40  O   UNK N   1      23.435  20.643   3.454  0.00  0.00    -0.356 OA
BRANCH  40  41
HETATM   41  C   UNK N   1      22.520  19.648   3.094  0.00  0.00     0.291 C 
HETATM   42  O   UNK N   1      22.030  19.010   4.240  0.00  0.00    -0.348 OA
HETATM   43  C   UNK N   1      20.919  18.290   3.781  0.00  0.00     0.180 C 
HETATM   44  C   UNK N   1      20.449  18.944   2.488  0.00  0.00     0.182 C 
HETATM   45  C   UNK N   1      21.318  20.176   2.360  0.00  0.00     0.204 C 
BRANCH  43  46
HETATM   46  C   UNK N   1      21.321  16.841   3.499  0.00  0.00     0.215 C 
BRANCH  46  47
HETATM   47  O   UNK N   1      20.307  15.940   3.856  0.00  0.00    -0.294 OA
BRANCH  47  48
HETATM   48  P   UNK N   1      20.865  14.981   5.206  0.00  0.00     0.393 P 
HETATM   49  O   UNK N   1      22.248  15.572   5.586  0.00  0.00    -0.631 OA
BRANCH  48  50
HETATM   50  O   UNK N   1      21.179  13.337   4.745  0.00  0.00    -0.307 OA
HETATM   51  H   UNK N   1      21.191  13.047   3.820  0.00  0.00     0.222 HD
ENDBRANCH  48  50
BRANCH  48  52
HETATM   52  O   UNK N   1      19.903  15.078   6.658  0.00  0.00    -0.281 OA
BRANCH  52  53
HETATM   53  C   UNK N   1      20.785  14.922   7.734  0.00  0.00     0.231 C 
BRANCH  53  54
HETATM   54  C   UNK N   1      20.607  16.034   8.767  0.00  0.00     0.054 C 
BRANCH  54  55
HETATM   55  C   UNK N   1      19.424  16.936   8.451  0.00  0.00     0.113 C 
BRANCH  55  56
HETATM   56  C   UNK N   1      19.759  18.351   8.779  0.00  0.00     0.139 C 
HETATM   57  O   UNK N   1      20.472  19.005   8.035  0.00  0.00    -0.650 OA
BRANCH  56  58
HETATM   58  O   UNK N   1      19.268  18.910   9.899  0.00  0.00    -0.776 OA
HETATM   59  H   UNK N   1      18.663  18.436  10.436  0.00  0.00     0.167 HD
ENDBRANCH  56  58
ENDBRANCH  55  56
ENDBRANCH  54  55
ENDBRANCH  53  54
BRANCH  53  60
HETATM   60  C   UNK N   1      20.618  13.558   8.337  0.00  0.00     0.170 C 
HETATM   61  O   UNK N   1      20.081  13.437   9.425  0.00  0.00    -0.648 OA
BRANCH  60  62
HETATM   62  O   UNK N   1      21.074  12.466   7.692  0.00  0.00    -0.774 OA
HETATM   63  H   UNK N   1      20.856  11.555   7.687  0.00  0.00     0.167 HD
ENDBRANCH  60  62
ENDBRANCH  53  60
ENDBRANCH  52  53
ENDBRANCH  48  52
ENDBRANCH  47  48
ENDBRANCH  46  47
ENDBRANCH  43  46
BRANCH  44  64
HETATM   64  O   UNK N   1      19.090  19.260   2.540  0.00  0.00    -0.390 OA
HETATM   65  H   UNK N   1      18.605  19.614   1.777  0.00  0.00     0.210 HD
ENDBRANCH  44  64
BRANCH  45  66
HETATM   66  O   UNK N   1      20.769  21.240   3.084  0.00  0.00    -0.388 OA
HETATM   67  H   UNK N   1      20.456  21.662   3.901  0.00  0.00     0.210 HD
ENDBRANCH  45  66
ENDBRANCH  40  41
ENDBRANCH  39  40
ENDBRANCH  36  39
ENDBRANCH   1  36
TORSDOF 25
ENDMDL
MODEL 7
REMARK VINA RESULT:      -7.2     15.049     18.727
REMARK  25 active torsions:
REMARK  status: ('A' for Active; 'I' for Inactive)
REMARK    1  A    between atoms: N_8  and  C_12 
REMARK    2  A    between atoms: C_15  and  C_16 
REMARK    3  A    between atoms: C_16  and  C_17 
REMARK    4  A    between atoms: C_17  and  O_18 
REMARK    5  A    between atoms: C_17  and  C_19 
REMARK    6  A    between atoms: C_19  and  O_20 
REMARK    7  A    between atoms: C_19  and  C_21 
REMARK    8  A    between atoms: C_21  and  O_22 
REMARK    9  A    between atoms: C_21  and  C_23 
REMARK   10  A    between atoms: C_23  and  O_24 
REMARK   11  A    between atoms: C_25  and  O_24 
REMARK   12  A    between atoms: C_27  and  C_28 
REMARK   13  A    between atoms: C_28  and  O_29 
REMARK   14  A    between atoms: P_30  and  O_29 
REMARK   15  A    between atoms: P_30  and  O_31 
REMARK   16  A    between atoms: P_30  and  O_33 
REMARK   17  A    between atoms: C_34  and  O_33 
REMARK   18  A    between atoms: C_34  and  C_35 
REMARK   19  A    between atoms: C_34  and  C_40 
REMARK   20  A    between atoms: C_35  and  C_36 
REMARK   21  A    between atoms: C_36  and  C_37 
REMARK   22  A    between atoms: C_37  and  O_38 
REMARK   23  A    between atoms: C_40  and  O_41 
REMARK   24  A    between atoms: C_43  and  O_44 
REMARK   25  A    between atoms: C_45  and  O_46 
REMARK       I    between atoms: C_52  and  N_53 
ROOT
HETATM    1  C   UNK N   1      36.466  13.564  14.731  0.00  0.00     0.177 C 
ENDROOT
BRANCH   1   2
HETATM    2  C   UNK N   1      35.289  12.777  15.294  0.00  0.00     0.153 C 
BRANCH   2   3
HETATM    3  C   UNK N   1      34.705  13.253  16.625  0.00  0.00     0.073 C 
BRANCH   3   4
HETATM    4  C   UNK N   1      35.310  12.333  17.624  0.00  0.00    -0.056 A 
HETATM    5  C   UNK N   1      35.656  11.029  17.253  0.00  0.00     0.009 A 
HETATM    6  C   UNK N   1      35.922  10.073  18.239  0.00  0.00     0.030 A 
HETATM    7  C   UNK N   1      35.815  10.420  19.593  0.00  0.00     0.031 A 
HETATM    8  C   UNK N   1      35.515  11.741  19.950  0.00  0.00     0.030 A 
HETATM    9  C   UNK N   1      35.283  12.695  18.974  0.00  0.00     0.009 A 
BRANCH   7  10
HETATM   10  N   UNK N   1      35.761   9.405  20.576  0.00  0.00    -0.358 N 
HETATM   11  C   UNK N   1      34.510   9.256  21.267  0.00  0.00     0.251 C 
HETATM   12  N   UNK N   1      34.871   9.209  22.639  0.00  0.00    -0.348 N 
HETATM   13  C   UNK N   1      34.073   9.810  23.666  0.00  0.00     0.146 A 
HETATM   14  C   UNK N   1      36.272   8.908  22.824  0.00  0.00     0.131 C 
HETATM   15  C   UNK N   1      34.652  10.044  24.916  0.00  0.00     0.149 A 
HETATM   16  C   UNK N   1      32.720  10.171  23.484  0.00  0.00     0.290 A 
HETATM   17  N   UNK N   1      36.025   9.764  25.105  0.00  0.00    -0.367 N 
HETATM   18  N   UNK N   1      33.914  10.576  25.926  0.00  0.00    -0.175 N 
HETATM   19  C   UNK N   1      36.900   9.724  23.954  0.00  0.00     0.104 C 
HETATM   20  H   UNK N   1      36.381   9.599  26.007  0.00  0.00     0.161 HD
HETATM   21  C   UNK N   1      38.252   9.162  24.344  0.00  0.00     0.034 C 
HETATM   22  C   UNK N   1      32.611  10.910  25.737  0.00  0.00     0.680 A 
ATOM     23  HN  UNK N   1      34.346  10.726  26.838  1.00  0.00     0.186 HD
HETATM   24  N   UNK N   1      32.023  10.717  24.529  0.00  0.00    -0.154 N 
HETATM   25  N   UNK N   1      31.870  11.473  26.794  0.00  0.00    -0.234 N 
HETATM   26  H   UNK N   1      31.081  10.975  24.401  0.00  0.00     0.187 HD
HETATM   27  H   UNK N   1      32.208  11.540  27.717  0.00  0.00     0.174 HD
HETATM   28  H   UNK N   1      30.968  11.818  26.602  0.00  0.00     0.174 HD
HETATM   29  O   UNK N   1      32.157   9.999  22.417  0.00  0.00    -0.265 OA
HETATM   30  C   UNK N   1      36.897   9.220  21.455  0.00  0.00     0.107 C 
HETATM   31  C   UNK N   1      37.746   8.053  20.991  0.00  0.00     0.034 C 
ENDBRANCH   7  10
ENDBRANCH   3   4
ENDBRANCH   2   3
BRANCH   2  32
HETATM   32  O   UNK N   1      34.278  12.589  14.351  0.00  0.00    -0.393 OA
HETATM   33  H   UNK N   1      34.141  11.967  13.619  0.00  0.00     0.210 HD
ENDBRANCH   2  32
ENDBRANCH   1   2
BRANCH   1  34
HETATM   34  O   UNK N   1      37.608  12.760  14.685  0.00  0.00    -0.390 OA
HETATM   35  H   UNK N   1      38.166  12.463  15.421  0.00  0.00     0.210 HD
ENDBRANCH   1  34
BRANCH   1  36
HETATM   36  C   UNK N   1      36.155  14.053  13.307  0.00  0.00     0.173 C 
BRANCH  36  37
HETATM   37  O   UNK N   1      36.458  15.407  13.149  0.00  0.00    -0.391 OA
HETATM   38  H   UNK N   1      37.007  16.052  13.622  0.00  0.00     0.210 HD
ENDBRANCH  36  37
BRANCH  36  39
HETATM   39  C   UNK N   1      36.855  13.221  12.229  0.00  0.00     0.205 C 
BRANCH  39  40
HETATM   40  O   UNK N   1      36.200  11.997  12.044  0.00  0.00    -0.356 OA
BRANCH  40  41
HETATM   41  C   UNK N   1      35.283  12.248  11.017  0.00  0.00     0.291 C 
HETATM   42  O   UNK N   1      35.960  12.644   9.857  0.00  0.00    -0.348 OA
HETATM   43  C   UNK N   1      34.991  12.548   8.849  0.00  0.00     0.180 C 
HETATM   44  C   UNK N   1      33.918  11.580   9.332  0.00  0.00     0.182 C 
HETATM   45  C   UNK N   1      34.464  11.045  10.638  0.00  0.00     0.204 C 
BRANCH  43  46
HETATM   46  C   UNK N   1      34.361  13.920   8.601  0.00  0.00     0.215 C 
BRANCH  46  47
HETATM   47  O   UNK N   1      35.307  14.951   8.688  0.00  0.00    -0.294 OA
BRANCH  47  48
HETATM   48  P   UNK N   1      34.743  16.128   9.850  0.00  0.00     0.393 P 
HETATM   49  O   UNK N   1      36.004  16.556  10.646  0.00  0.00    -0.631 OA
BRANCH  48  50
HETATM   50  O   UNK N   1      33.679  15.419  11.024  0.00  0.00    -0.307 OA
HETATM   51  H   UNK N   1      33.853  14.558  11.435  0.00  0.00     0.222 HD
ENDBRANCH  48  50
BRANCH  48  52
HETATM   52  O   UNK N   1      34.090  17.603   9.185  0.00  0.00    -0.281 OA
BRANCH  52  53
HETATM   53  C   UNK N   1      33.063  17.228   8.310  0.00  0.00     0.231 C 
BRANCH  53  54
HETATM   54  C   UNK N   1      31.837  18.123   8.474  0.00  0.00     0.054 C 
BRANCH  54  55
HETATM   55  C   UNK N   1      30.566  17.327   8.732  0.00  0.00     0.113 C 
BRANCH  55  56
HETATM   56  C   UNK N   1      29.730  17.286   7.498  0.00  0.00     0.139 C 
HETATM   57  O   UNK N   1      30.209  17.585   6.417  0.00  0.00    -0.650 OA
BRANCH  56  58
HETATM   58  O   UNK N   1      28.440  16.912   7.580  0.00  0.00    -0.776 OA
HETATM   59  H   UNK N   1      28.135  16.432   8.325  0.00  0.00     0.167 HD
ENDBRANCH  56  58
ENDBRANCH  55  56
ENDBRANCH  54  55
ENDBRANCH  53  54
BRANCH  53  60
HETATM   60  C   UNK N   1      33.574  17.219   6.899  0.00  0.00     0.170 C 
HETATM   61  O   UNK N   1      34.509  17.938   6.588  0.00  0.00    -0.648 OA
BRANCH  60  62
HETATM   62  O   UNK N   1      32.994  16.437   5.968  0.00  0.00    -0.774 OA
HETATM   63  H   UNK N   1      32.193  15.955   5.906  0.00  0.00     0.167 HD
ENDBRANCH  60  62
ENDBRANCH  53  60
ENDBRANCH  52  53
ENDBRANCH  48  52
ENDBRANCH  47  48
ENDBRANCH  46  47
ENDBRANCH  43  46
BRANCH  44  64
HETATM   64  O   UNK N   1      33.689  10.565   8.401  0.00  0.00    -0.390 OA
HETATM   65  H   UNK N   1      34.374  10.247   7.792  0.00  0.00     0.210 HD
ENDBRANCH  44  64
BRANCH  45  66
HETATM   66  O   UNK N   1      35.319   9.963  10.405  0.00  0.00    -0.388 OA
HETATM   67  H   UNK N   1      35.806   9.352   9.828  0.00  0.00     0.210 HD
ENDBRANCH  45  66
ENDBRANCH  40  41
ENDBRANCH  39  40
ENDBRANCH  36  39
ENDBRANCH   1  36
TORSDOF 25
ENDMDL
MODEL 8
REMARK VINA RESULT:      -7.1      2.997      6.659
REMARK  25 active torsions:
REMARK  status: ('A' for Active; 'I' for Inactive)
REMARK    1  A    between atoms: N_8  and  C_12 
REMARK    2  A    between atoms: C_15  and  C_16 
REMARK    3  A    between atoms: C_16  and  C_17 
REMARK    4  A    between atoms: C_17  and  O_18 
REMARK    5  A    between atoms: C_17  and  C_19 
REMARK    6  A    between atoms: C_19  and  O_20 
REMARK    7  A    between atoms: C_19  and  C_21 
REMARK    8  A    between atoms: C_21  and  O_22 
REMARK    9  A    between atoms: C_21  and  C_23 
REMARK   10  A    between atoms: C_23  and  O_24 
REMARK   11  A    between atoms: C_25  and  O_24 
REMARK   12  A    between atoms: C_27  and  C_28 
REMARK   13  A    between atoms: C_28  and  O_29 
REMARK   14  A    between atoms: P_30  and  O_29 
REMARK   15  A    between atoms: P_30  and  O_31 
REMARK   16  A    between atoms: P_30  and  O_33 
REMARK   17  A    between atoms: C_34  and  O_33 
REMARK   18  A    between atoms: C_34  and  C_35 
REMARK   19  A    between atoms: C_34  and  C_40 
REMARK   20  A    between atoms: C_35  and  C_36 
REMARK   21  A    between atoms: C_36  and  C_37 
REMARK   22  A    between atoms: C_37  and  O_38 
REMARK   23  A    between atoms: C_40  and  O_41 
REMARK   24  A    between atoms: C_43  and  O_44 
REMARK   25  A    between atoms: C_45  and  O_46 
REMARK       I    between atoms: C_52  and  N_53 
ROOT
HETATM    1  C   UNK N   1      19.727  17.065   1.228  0.00  0.00     0.177 C 
ENDROOT
BRANCH   1   2
HETATM    2  C   UNK N   1      19.961  17.813   2.535  0.00  0.00     0.153 C 
BRANCH   2   3
HETATM    3  C   UNK N   1      20.237  19.314   2.440  0.00  0.00     0.073 C 
BRANCH   3   4
HETATM    4  C   UNK N   1      21.575  19.466   3.071  0.00  0.00    -0.056 A 
HETATM    5  C   UNK N   1      22.419  20.509   2.674  0.00  0.00     0.009 A 
HETATM    6  C   UNK N   1      23.775  20.476   3.018  0.00  0.00     0.030 A 
HETATM    7  C   UNK N   1      24.285  19.385   3.736  0.00  0.00     0.031 A 
HETATM    8  C   UNK N   1      23.419  18.372   4.169  0.00  0.00     0.030 A 
HETATM    9  C   UNK N   1      22.072  18.421   3.856  0.00  0.00     0.009 A 
BRANCH   7  10
HETATM   10  N   UNK N   1      25.682  19.182   3.806  0.00  0.00    -0.358 N 
HETATM   11  C   UNK N   1      26.192  18.030   3.114  0.00  0.00     0.251 C 
HETATM   12  N   UNK N   1      27.038  17.398   4.063  0.00  0.00    -0.348 N 
HETATM   13  C   UNK N   1      27.142  15.973   4.171  0.00  0.00     0.146 A 
HETATM   14  C   UNK N   1      27.408  18.286   5.142  0.00  0.00     0.131 C 
HETATM   15  C   UNK N   1      27.691  15.426   5.334  0.00  0.00     0.149 A 
HETATM   16  C   UNK N   1      26.726  15.086   3.154  0.00  0.00     0.290 A 
HETATM   17  N   UNK N   1      28.046  16.284   6.401  0.00  0.00    -0.367 N 
HETATM   18  N   UNK N   1      27.842  14.081   5.456  0.00  0.00    -0.175 N 
HETATM   19  C   UNK N   1      27.415  17.583   6.499  0.00  0.00     0.104 C 
HETATM   20  H   UNK N   1      28.712  16.003   7.068  0.00  0.00     0.161 HD
HETATM   21  C   UNK N   1      28.116  18.427   7.545  0.00  0.00     0.034 C 
HETATM   22  C   UNK N   1      27.445  13.242   4.465  0.00  0.00     0.680 A 
ATOM     23  HN  UNK N   1      28.259  13.697   6.304  1.00  0.00     0.186 HD
HETATM   24  N   UNK N   1      26.886  13.738   3.331  0.00  0.00    -0.154 N 
HETATM   25  N   UNK N   1      27.598  11.850   4.620  0.00  0.00    -0.234 N 
HETATM   26  H   UNK N   1      26.591  13.118   2.624  0.00  0.00     0.187 HD
HETATM   27  H   UNK N   1      28.088  11.439   5.368  0.00  0.00     0.174 HD
HETATM   28  H   UNK N   1      27.195  11.258   3.945  0.00  0.00     0.174 HD
HETATM   29  O   UNK N   1      26.234  15.497   2.118  0.00  0.00    -0.265 OA
HETATM   30  C   UNK N   1      26.361  19.408   5.065  0.00  0.00     0.107 C 
HETATM   31  C   UNK N   1      27.045  20.761   5.067  0.00  0.00     0.034 C 
ENDBRANCH   7  10
ENDBRANCH   3   4
ENDBRANCH   2   3
BRANCH   2  32
HETATM   32  O   UNK N   1      18.966  17.554   3.478  0.00  0.00    -0.393 OA
HETATM   33  H   UNK N   1      18.899  16.967   4.248  0.00  0.00     0.210 HD
ENDBRANCH   2  32
ENDBRANCH   1   2
BRANCH   1  34
HETATM   34  O   UNK N   1      20.661  17.465   0.268  0.00  0.00    -0.390 OA
HETATM   35  H   UNK N   1      21.599  17.680   0.393  0.00  0.00     0.210 HD
ENDBRANCH   1  34
BRANCH   1  36
HETATM   36  C   UNK N   1      19.867  15.549   1.443  0.00  0.00     0.173 C 
BRANCH  36  37
HETATM   37  O   UNK N   1      18.846  14.842   0.804  0.00  0.00    -0.391 OA
HETATM   38  H   UNK N   1      17.973  14.507   1.060  0.00  0.00     0.210 HD
ENDBRANCH  36  37
BRANCH  36  39
HETATM   39  C   UNK N   1      21.236  15.013   1.013  0.00  0.00     0.205 C 
BRANCH  39  40
HETATM   40  O   UNK N   1      21.299  13.624   1.178  0.00  0.00    -0.356 OA
BRANCH  40  41
HETATM   41  C   UNK N   1      21.935  13.452   2.412  0.00  0.00     0.291 C 
HETATM   42  O   UNK N   1      21.317  12.421   3.130  0.00  0.00    -0.348 OA
HETATM   43  C   UNK N   1      22.220  12.138   4.164  0.00  0.00     0.180 C 
HETATM   44  C   UNK N   1      23.594  12.625   3.721  0.00  0.00     0.182 C 
HETATM   45  C   UNK N   1      23.385  13.071   2.290  0.00  0.00     0.204 C 
BRANCH  43  46
HETATM   46  C   UNK N   1      21.804  12.881   5.435  0.00  0.00     0.215 C 
BRANCH  46  47
HETATM   47  O   UNK N   1      22.437  12.362   6.573  0.00  0.00    -0.294 OA
BRANCH  47  48
HETATM   48  P   UNK N   1      23.306  13.656   7.365  0.00  0.00     0.393 P 
HETATM   49  O   UNK N   1      22.835  14.957   6.662  0.00  0.00    -0.631 OA
BRANCH  48  50
HETATM   50  O   UNK N   1      25.013  13.565   7.066  0.00  0.00    -0.307 OA
HETATM   51  H   UNK N   1      25.641  14.218   7.414  0.00  0.00     0.222 HD
ENDBRANCH  48  50
BRANCH  48  52
HETATM   52  O   UNK N   1      22.952  13.887   9.057  0.00  0.00    -0.281 OA
BRANCH  52  53
HETATM   53  C   UNK N   1      21.698  13.309   9.287  0.00  0.00     0.231 C 
BRANCH  53  54
HETATM   54  C   UNK N   1      21.704  12.447  10.548  0.00  0.00     0.054 C 
BRANCH  54  55
HETATM   55  C   UNK N   1      22.938  11.562  10.641  0.00  0.00     0.113 C 
BRANCH  55  56
HETATM   56  C   UNK N   1      23.757  11.950  11.825  0.00  0.00     0.139 C 
HETATM   57  O   UNK N   1      23.271  11.931  12.944  0.00  0.00    -0.650 OA
BRANCH  56  58
HETATM   58  O   UNK N   1      25.040  12.318  11.657  0.00  0.00    -0.776 OA
HETATM   59  H   UNK N   1      25.722  11.868  12.115  0.00  0.00     0.167 HD
ENDBRANCH  56  58
ENDBRANCH  55  56
ENDBRANCH  54  55
ENDBRANCH  53  54
BRANCH  53  60
HETATM   60  C   UNK N   1      20.645  14.377   9.337  0.00  0.00     0.170 C 
HETATM   61  O   UNK N   1      19.515  14.100   9.702  0.00  0.00    -0.648 OA
BRANCH  60  62
HETATM   62  O   UNK N   1      20.934  15.639   8.962  0.00  0.00    -0.774 OA
HETATM   63  H   UNK N   1      21.573  16.040   8.407  0.00  0.00     0.167 HD
ENDBRANCH  60  62
ENDBRANCH  53  60
ENDBRANCH  52  53
ENDBRANCH  48  52
ENDBRANCH  47  48
ENDBRANCH  46  47
ENDBRANCH  43  46
BRANCH  44  64
HETATM   64  O   UNK N   1      24.553  11.615   3.824  0.00  0.00    -0.390 OA
HETATM   65  H   UNK N   1      24.627  10.895   3.179  0.00  0.00     0.210 HD
ENDBRANCH  44  64
BRANCH  45  66
HETATM   66  O   UNK N   1      23.502  11.984   1.417  0.00  0.00    -0.388 OA
HETATM   67  H   UNK N   1      23.455  11.567   0.542  0.00  0.00     0.210 HD
ENDBRANCH  45  66
ENDBRANCH  40  41
ENDBRANCH  39  40
ENDBRANCH  36  39
ENDBRANCH   1  36
TORSDOF 25
ENDMDL
MODEL 9
REMARK VINA RESULT:      -7.1      4.094      7.414
REMARK  25 active torsions:
REMARK  status: ('A' for Active; 'I' for Inactive)
REMARK    1  A    between atoms: N_8  and  C_12 
REMARK    2  A    between atoms: C_15  and  C_16 
REMARK    3  A    between atoms: C_16  and  C_17 
REMARK    4  A    between atoms: C_17  and  O_18 
REMARK    5  A    between atoms: C_17  and  C_19 
REMARK    6  A    between atoms: C_19  and  O_20 
REMARK    7  A    between atoms: C_19  and  C_21 
REMARK    8  A    between atoms: C_21  and  O_22 
REMARK    9  A    between atoms: C_21  and  C_23 
REMARK   10  A    between atoms: C_23  and  O_24 
REMARK   11  A    between atoms: C_25  and  O_24 
REMARK   12  A    between atoms: C_27  and  C_28 
REMARK   13  A    between atoms: C_28  and  O_29 
REMARK   14  A    between atoms: P_30  and  O_29 
REMARK   15  A    between atoms: P_30  and  O_31 
REMARK   16  A    between atoms: P_30  and  O_33 
REMARK   17  A    between atoms: C_34  and  O_33 
REMARK   18  A    between atoms: C_34  and  C_35 
REMARK   19  A    between atoms: C_34  and  C_40 
REMARK   20  A    between atoms: C_35  and  C_36 
REMARK   21  A    between atoms: C_36  and  C_37 
REMARK   22  A    between atoms: C_37  and  O_38 
REMARK   23  A    between atoms: C_40  and  O_41 
REMARK   24  A    between atoms: C_43  and  O_44 
REMARK   25  A    between atoms: C_45  and  O_46 
REMARK       I    between atoms: C_52  and  N_53 
ROOT
HETATM    1  C   UNK N   1      23.438  20.166   3.476  0.00  0.00     0.177 C 
ENDROOT
BRANCH   1   2
HETATM    2  C   UNK N   1      24.624  19.461   4.123  0.00  0.00     0.153 C 
BRANCH   2   3
HETATM    3  C   UNK N   1      25.896  20.283   4.330  0.00  0.00     0.073 C 
BRANCH   3   4
HETATM    4  C   UNK N   1      26.990  19.297   4.123  0.00  0.00    -0.056 A 
HETATM    5  C   UNK N   1      26.726  18.089   3.467  0.00  0.00     0.009 A 
HETATM    6  C   UNK N   1      27.647  17.038   3.548  0.00  0.00     0.030 A 
HETATM    7  C   UNK N   1      28.815  17.193   4.306  0.00  0.00     0.031 A 
HETATM    8  C   UNK N   1      29.089  18.423   4.918  0.00  0.00     0.030 A 
HETATM    9  C   UNK N   1      28.194  19.473   4.812  0.00  0.00     0.009 A 
BRANCH   7  10
HETATM   10  N   UNK N   1      29.578  16.056   4.658  0.00  0.00    -0.358 N 
HETATM   11  C   UNK N   1      29.944  15.941   6.044  0.00  0.00     0.251 C 
HETATM   12  N   UNK N   1      31.335  15.654   6.015  0.00  0.00    -0.348 N 
HETATM   13  C   UNK N   1      32.248  16.180   6.987  0.00  0.00     0.146 A 
HETATM   14  C   UNK N   1      31.769  15.182   4.720  0.00  0.00     0.131 C 
HETATM   15  C   UNK N   1      33.615  16.165   6.700  0.00  0.00     0.149 A 
HETATM   16  C   UNK N   1      31.837  16.705   8.231  0.00  0.00     0.290 A 
HETATM   17  N   UNK N   1      34.051  15.716   5.431  0.00  0.00    -0.367 N 
HETATM   18  N   UNK N   1      34.514  16.618   7.613  0.00  0.00    -0.175 N 
HETATM   19  C   UNK N   1      33.128  15.752   4.317  0.00  0.00     0.104 C 
HETATM   20  H   UNK N   1      34.968  15.383   5.307  0.00  0.00     0.161 HD
HETATM   21  C   UNK N   1      33.705  14.999   3.136  0.00  0.00     0.034 C 
HETATM   22  C   UNK N   1      34.103  17.112   8.810  0.00  0.00     0.680 A 
ATOM     23  HN  UNK N   1      35.510  16.586   7.396  1.00  0.00     0.186 HD
HETATM   24  N   UNK N   1      32.781  17.163   9.112  0.00  0.00    -0.154 N 
HETATM   25  N   UNK N   1      35.052  17.590   9.735  0.00  0.00    -0.234 N 
HETATM   26  H   UNK N   1      32.495  17.535   9.979  0.00  0.00     0.187 HD
HETATM   27  H   UNK N   1      36.024  17.484   9.617  0.00  0.00     0.174 HD
HETATM   28  H   UNK N   1      34.727  18.053  10.541  0.00  0.00     0.174 HD
HETATM   29  O   UNK N   1      30.660  16.753   8.542  0.00  0.00    -0.265 OA
HETATM   30  C   UNK N   1      30.641  15.624   3.775  0.00  0.00     0.107 C 
HETATM   31  C   UNK N   1      30.185  14.455   2.924  0.00  0.00     0.034 C 
ENDBRANCH   7  10
ENDBRANCH   3   4
ENDBRANCH   2   3
BRANCH   2  32
HETATM   32  O   UNK N   1      24.269  18.798   5.299  0.00  0.00    -0.393 OA
HETATM   33  H   UNK N   1      23.501  18.833   5.891  0.00  0.00     0.210 HD
ENDBRANCH   2  32
ENDBRANCH   1   2
BRANCH   1  34
HETATM   34  O   UNK N   1      23.743  20.511   2.156  0.00  0.00    -0.390 OA
HETATM   35  H   UNK N   1      23.329  20.190   1.339  0.00  0.00     0.210 HD
ENDBRANCH   1  34
BRANCH   1  36
HETATM   36  C   UNK N   1      22.205  19.248   3.469  0.00  0.00     0.173 C 
BRANCH  36  37
HETATM   37  O   UNK N   1      21.551  19.254   4.703  0.00  0.00    -0.391 OA
HETATM   38  H   UNK N   1      20.706  18.919   5.039  0.00  0.00     0.210 HD
ENDBRANCH  36  37
BRANCH  36  39
HETATM   39  C   UNK N   1      21.222  19.584   2.344  0.00  0.00     0.205 C 
BRANCH  39  40
HETATM   40  O   UNK N   1      20.025  18.874   2.501  0.00  0.00    -0.356 OA
BRANCH  40  41
HETATM   41  C   UNK N   1      20.408  17.531   2.417  0.00  0.00     0.291 C 
HETATM   42  O   UNK N   1      19.650  16.760   3.306  0.00  0.00    -0.348 OA
HETATM   43  C   UNK N   1      19.890  15.440   2.901  0.00  0.00     0.180 C 
HETATM   44  C   UNK N   1      20.347  15.479   1.449  0.00  0.00     0.182 C 
HETATM   45  C   UNK N   1      20.197  16.932   1.053  0.00  0.00     0.204 C 
BRANCH  43  46
HETATM   46  C   UNK N   1      20.994  14.825   3.764  0.00  0.00     0.215 C 
BRANCH  46  47
HETATM   47  O   UNK N   1      20.699  14.917   5.131  0.00  0.00    -0.294 OA
BRANCH  47  48
HETATM   48  P   UNK N   1      22.009  15.757   5.928  0.00  0.00     0.393 P 
HETATM   49  O   UNK N   1      21.360  17.008   6.576  0.00  0.00    -0.631 OA
BRANCH  48  50
HETATM   50  O   UNK N   1      23.165  16.376   4.791  0.00  0.00    -0.307 OA
HETATM   51  H   UNK N   1      23.144  17.291   4.470  0.00  0.00     0.222 HD
ENDBRANCH  48  50
BRANCH  48  52
HETATM   52  O   UNK N   1      22.778  14.900   7.239  0.00  0.00    -0.281 OA
BRANCH  52  53
HETATM   53  C   UNK N   1      22.922  13.572   6.819  0.00  0.00     0.231 C 
BRANCH  53  54
HETATM   54  C   UNK N   1      24.377  13.115   6.905  0.00  0.00     0.054 C 
BRANCH  54  55
HETATM   55  C   UNK N   1      25.269  14.140   7.589  0.00  0.00     0.113 C 
BRANCH  55  56
HETATM   56  C   UNK N   1      25.965  14.974   6.567  0.00  0.00     0.139 C 
HETATM   57  O   UNK N   1      26.820  14.483   5.849  0.00  0.00    -0.650 OA
BRANCH  56  58
HETATM   58  O   UNK N   1      25.645  16.274   6.436  0.00  0.00    -0.776 OA
HETATM   59  H   UNK N   1      24.766  16.560   6.596  0.00  0.00     0.167 HD
ENDBRANCH  56  58
ENDBRANCH  55  56
ENDBRANCH  54  55
ENDBRANCH  53  54
BRANCH  53  60
HETATM   60  C   UNK N   1      22.003  12.686   7.608  0.00  0.00     0.170 C 
HETATM   61  O   UNK N   1      22.465  11.890   8.408  0.00  0.00    -0.648 OA
BRANCH  60  62
HETATM   62  O   UNK N   1      20.669  12.749   7.424  0.00  0.00    -0.774 OA
HETATM   63  H   UNK N   1      19.972  13.269   7.771  0.00  0.00     0.167 HD
ENDBRANCH  60  62
ENDBRANCH  53  60
ENDBRANCH  52  53
ENDBRANCH  48  52
ENDBRANCH  47  48
ENDBRANCH  46  47
ENDBRANCH  43  46
BRANCH  44  64
HETATM   64  O   UNK N   1      19.579  14.632   0.647  0.00  0.00    -0.390 OA
HETATM   65  H   UNK N   1      19.221  13.790   0.968  0.00  0.00     0.210 HD
ENDBRANCH  44  64
BRANCH  45  66
HETATM   66  O   UNK N   1      18.887  17.193   0.636  0.00  0.00    -0.388 OA
HETATM   67  H   UNK N   1      18.147  17.127   0.011  0.00  0.00     0.210 HD
ENDBRANCH  45  66
ENDBRANCH  40  41
ENDBRANCH  39  40
ENDBRANCH  36  39
ENDBRANCH   1  36
TORSDOF 25
ENDMDL
