MODEL 1
REMARK VINA RESULT:      -4.6      0.000      0.000
REMARK  3 active torsions:
REMARK  status: ('A' for Active; 'I' for Inactive)
REMARK    1  A    between atoms: O_1  and  C_2 
REMARK    2  A    between atoms: C_2  and  C_3 
REMARK    3  A    between atoms: C_3  and  C_4 
ROOT
HETATM    1  C   UNK N   1      23.117  12.144  10.370  0.00  0.00    -0.056 A 
HETATM    2  C   UNK N   1      21.970  12.941  10.447  0.00  0.00     0.010 A 
HETATM    3  C   UNK N   1      21.180  13.150   9.311  0.00  0.00     0.043 A 
HETATM    4  C   UNK N   1      21.535  12.561   8.094  0.00  0.00     0.116 A 
HETATM    5  F   UNK N   1      20.772  12.761   6.993  0.00  0.00    -0.206 F 
HETATM    6  C   UNK N   1      22.679  11.765   8.010  0.00  0.00     0.043 A 
HETATM    7  C   UNK N   1      23.467  11.557   9.143  0.00  0.00     0.010 A 
ENDROOT
BRANCH   1   8
HETATM    8  C   UNK N   1      23.946  11.938  11.604  0.00  0.00     0.064 C 
BRANCH   8   9
HETATM    9  C   UNK N   1      23.114  11.870  12.878  0.00  0.00     0.168 C 
BRANCH   9  10
HETATM   10  O   UNK N   1      23.809  12.466  13.927  0.00  0.00    -0.401 OA
HETATM   11  H   UNK N   1      23.889  13.432  13.969  0.00  0.00     0.209 HD
ENDBRANCH   9  10
ENDBRANCH   8   9
ENDBRANCH   1   8
TORSDOF 3
ENDMDL
MODEL 2
REMARK VINA RESULT:      -4.5     14.843     15.811
REMARK  3 active torsions:
REMARK  status: ('A' for Active; 'I' for Inactive)
REMARK    1  A    between atoms: O_1  and  C_2 
REMARK    2  A    between atoms: C_2  and  C_3 
REMARK    3  A    between atoms: C_3  and  C_4 
ROOT
HETATM    1  C   UNK N   1      35.407  12.657  16.987  0.00  0.00    -0.056 A 
HETATM    2  C   UNK N   1      35.599  11.277  17.122  0.00  0.00     0.010 A 
HETATM    3  C   UNK N   1      35.578  10.685  18.390  0.00  0.00     0.043 A 
HETATM    4  C   UNK N   1      35.365  11.470  19.526  0.00  0.00     0.116 A 
HETATM    5  F   UNK N   1      35.344  10.898  20.754  0.00  0.00    -0.206 F 
HETATM    6  C   UNK N   1      35.172  12.847  19.399  0.00  0.00     0.043 A 
HETATM    7  C   UNK N   1      35.194  13.438  18.135  0.00  0.00     0.010 A 
ENDROOT
BRANCH   1   8
HETATM    8  C   UNK N   1      35.435  13.266  15.616  0.00  0.00     0.064 C 
BRANCH   8   9
HETATM    9  C   UNK N   1      36.833  13.315  15.012  0.00  0.00     0.168 C 
BRANCH   9  10
HETATM   10  O   UNK N   1      37.518  14.426  15.497  0.00  0.00    -0.401 OA
HETATM   11  H   UNK N   1      38.398  14.641  15.152  0.00  0.00     0.209 HD
ENDBRANCH   9  10
ENDBRANCH   8   9
ENDBRANCH   1   8
TORSDOF 3
ENDMDL
MODEL 3
REMARK VINA RESULT:      -4.4      9.374      9.662
REMARK  3 active torsions:
REMARK  status: ('A' for Active; 'I' for Inactive)
REMARK    1  A    between atoms: O_1  and  C_2 
REMARK    2  A    between atoms: C_2  and  C_3 
REMARK    3  A    between atoms: C_3  and  C_4 
ROOT
HETATM    1  C   UNK N   1      28.145  18.767   6.337  0.00  0.00    -0.056 A 
HETATM    2  C   UNK N   1      28.062  18.197   5.062  0.00  0.00     0.010 A 
HETATM    3  C   UNK N   1      27.498  18.919   4.004  0.00  0.00     0.043 A 
HETATM    4  C   UNK N   1      27.015  20.213   4.218  0.00  0.00     0.116 A 
HETATM    5  F   UNK N   1      26.469  20.913   3.196  0.00  0.00    -0.206 F 
HETATM    6  C   UNK N   1      27.095  20.788   5.488  0.00  0.00     0.043 A 
HETATM    7  C   UNK N   1      27.658  20.068   6.543  0.00  0.00     0.010 A 
ENDROOT
BRANCH   1   8
HETATM    8  C   UNK N   1      28.755  17.970   7.453  0.00  0.00     0.064 C 
BRANCH   8   9
HETATM    9  C   UNK N   1      28.537  18.598   8.824  0.00  0.00     0.168 C 
BRANCH   9  10
HETATM   10  O   UNK N   1      27.426  18.024   9.434  0.00  0.00    -0.401 OA
HETATM   11  H   UNK N   1      26.533  18.253   9.131  0.00  0.00     0.209 HD
ENDBRANCH   9  10
ENDBRANCH   8   9
ENDBRANCH   1   8
TORSDOF 3
ENDMDL
MODEL 4
REMARK VINA RESULT:      -4.4     10.341     10.922
REMARK  3 active torsions:
REMARK  status: ('A' for Active; 'I' for Inactive)
REMARK    1  A    between atoms: O_1  and  C_2 
REMARK    2  A    between atoms: C_2  and  C_3 
REMARK    3  A    between atoms: C_3  and  C_4 
ROOT
HETATM    1  C   UNK N   1      30.390  17.442   7.504  0.00  0.00    -0.056 A 
HETATM    2  C   UNK N   1      30.919  17.085   6.259  0.00  0.00     0.010 A 
HETATM    3  C   UNK N   1      32.298  17.165   6.032  0.00  0.00     0.043 A 
HETATM    4  C   UNK N   1      33.151  17.602   7.049  0.00  0.00     0.116 A 
HETATM    5  F   UNK N   1      34.485  17.681   6.831  0.00  0.00    -0.206 F 
HETATM    6  C   UNK N   1      32.629  17.960   8.294  0.00  0.00     0.043 A 
HETATM    7  C   UNK N   1      31.254  17.880   8.520  0.00  0.00     0.010 A 
ENDROOT
BRANCH   1   8
HETATM    8  C   UNK N   1      28.908  17.346   7.720  0.00  0.00     0.064 C 
BRANCH   8   9
HETATM    9  C   UNK N   1      28.329  18.559   8.437  0.00  0.00     0.168 C 
BRANCH   9  10
HETATM   10  O   UNK N   1      27.432  18.144   9.418  0.00  0.00    -0.401 OA
HETATM   11  H   UNK N   1      26.479  18.159   9.241  0.00  0.00     0.209 HD
ENDBRANCH   9  10
ENDBRANCH   8   9
ENDBRANCH   1   8
TORSDOF 3
ENDMDL
MODEL 5
REMARK VINA RESULT:      -4.4     14.077     15.063
REMARK  3 active torsions:
REMARK  status: ('A' for Active; 'I' for Inactive)
REMARK    1  A    between atoms: O_1  and  C_2 
REMARK    2  A    between atoms: C_2  and  C_3 
REMARK    3  A    between atoms: C_3  and  C_4 
ROOT
HETATM    1  C   UNK N   1      35.640  12.311  16.198  0.00  0.00    -0.056 A 
HETATM    2  C   UNK N   1      35.424  13.597  16.703  0.00  0.00     0.010 A 
HETATM    3  C   UNK N   1      35.185  13.785  18.069  0.00  0.00     0.043 A 
HETATM    4  C   UNK N   1      35.160  12.687  18.933  0.00  0.00     0.116 A 
HETATM    5  F   UNK N   1      34.928  12.866  20.255  0.00  0.00    -0.206 F 
HETATM    6  C   UNK N   1      35.374  11.400  18.435  0.00  0.00     0.043 A 
HETATM    7  C   UNK N   1      35.613  11.213  17.073  0.00  0.00     0.010 A 
ENDROOT
BRANCH   1   8
HETATM    8  C   UNK N   1      35.895  12.138  14.728  0.00  0.00     0.064 C 
BRANCH   8   9
HETATM    9  C   UNK N   1      35.511  13.363  13.907  0.00  0.00     0.168 C 
BRANCH   9  10
HETATM   10  O   UNK N   1      34.473  13.040  13.037  0.00  0.00    -0.401 OA
HETATM   11  H   UNK N   1      34.426  13.456  12.162  0.00  0.00     0.209 HD
ENDBRANCH   9  10
ENDBRANCH   8   9
ENDBRANCH   1   8
TORSDOF 3
ENDMDL
MODEL 6
REMARK VINA RESULT:      -4.3      3.402      4.658
REMARK  3 active torsions:
REMARK  status: ('A' for Active; 'I' for Inactive)
REMARK    1  A    between atoms: O_1  and  C_2 
REMARK    2  A    between atoms: C_2  and  C_3 
REMARK    3  A    between atoms: C_3  and  C_4 
ROOT
HETATM    1  C   UNK N   1      22.773  12.551   9.477  0.00  0.00    -0.056 A 
HETATM    2  C   UNK N   1      24.035  12.326  10.038  0.00  0.00     0.010 A 
HETATM    3  C   UNK N   1      24.155  12.017  11.398  0.00  0.00     0.043 A 
HETATM    4  C   UNK N   1      23.014  11.933  12.200  0.00  0.00     0.116 A 
HETATM    5  F   UNK N   1      23.127  11.634  13.516  0.00  0.00    -0.206 F 
HETATM    6  C   UNK N   1      21.751  12.157  11.647  0.00  0.00     0.043 A 
HETATM    7  C   UNK N   1      21.632  12.465  10.290  0.00  0.00     0.010 A 
ENDROOT
BRANCH   1   8
HETATM    8  C   UNK N   1      22.674  12.880   8.016  0.00  0.00     0.064 C 
BRANCH   8   9
HETATM    9  C   UNK N   1      21.253  13.202   7.571  0.00  0.00     0.168 C 
BRANCH   9  10
HETATM   10  O   UNK N   1      20.713  12.113   6.891  0.00  0.00    -0.401 OA
HETATM   11  H   UNK N   1      20.623  12.140   5.926  0.00  0.00     0.209 HD
ENDBRANCH   9  10
ENDBRANCH   8   9
ENDBRANCH   1   8
TORSDOF 3
ENDMDL
MODEL 7
REMARK VINA RESULT:      -4.3     10.363     11.059
REMARK  3 active torsions:
REMARK  status: ('A' for Active; 'I' for Inactive)
REMARK    1  A    between atoms: O_1  and  C_2 
REMARK    2  A    between atoms: C_2  and  C_3 
REMARK    3  A    between atoms: C_3  and  C_4 
ROOT
HETATM    1  C   UNK N   1      26.572  20.234   4.244  0.00  0.00    -0.056 A 
HETATM    2  C   UNK N   1      26.350  20.931   5.436  0.00  0.00     0.010 A 
HETATM    3  C   UNK N   1      27.046  20.578   6.598  0.00  0.00     0.043 A 
HETATM    4  C   UNK N   1      27.966  19.526   6.570  0.00  0.00     0.116 A 
HETATM    5  F   UNK N   1      28.641  19.182   7.693  0.00  0.00    -0.206 F 
HETATM    6  C   UNK N   1      28.192  18.826   5.383  0.00  0.00     0.043 A 
HETATM    7  C   UNK N   1      27.498  19.178   4.225  0.00  0.00     0.010 A 
ENDROOT
BRANCH   1   8
HETATM    8  C   UNK N   1      25.811  20.634   3.013  0.00  0.00     0.064 C 
BRANCH   8   9
HETATM    9  C   UNK N   1      24.345  20.224   3.056  0.00  0.00     0.168 C 
BRANCH   9  10
HETATM   10  O   UNK N   1      23.537  21.344   2.885  0.00  0.00    -0.401 OA
HETATM   11  H   UNK N   1      23.932  22.230   2.868  0.00  0.00     0.209 HD
ENDBRANCH   9  10
ENDBRANCH   8   9
ENDBRANCH   1   8
TORSDOF 3
ENDMDL
MODEL 8
REMARK VINA RESULT:      -4.2     19.842     20.879
REMARK  3 active torsions:
REMARK  status: ('A' for Active; 'I' for Inactive)
REMARK    1  A    between atoms: O_1  and  C_2 
REMARK    2  A    between atoms: C_2  and  C_3 
REMARK    3  A    between atoms: C_3  and  C_4 
ROOT
HETATM    1  C   UNK N   1      26.000  27.554  -4.133  0.00  0.00    -0.056 A 
HETATM    2  C   UNK N   1      25.336  27.370  -5.351  0.00  0.00     0.010 A 
HETATM    3  C   UNK N   1      25.174  26.083  -5.876  0.00  0.00     0.043 A 
HETATM    4  C   UNK N   1      25.675  24.977  -5.185  0.00  0.00     0.116 A 
HETATM    5  F   UNK N   1      25.519  23.730  -5.691  0.00  0.00    -0.206 F 
HETATM    6  C   UNK N   1      26.338  25.153  -3.969  0.00  0.00     0.043 A 
HETATM    7  C   UNK N   1      26.500  26.436  -3.445  0.00  0.00     0.010 A 
ENDROOT
BRANCH   1   8
HETATM    8  C   UNK N   1      26.159  28.945  -3.592  0.00  0.00     0.064 C 
BRANCH   8   9
HETATM    9  C   UNK N   1      27.568  29.233  -3.089  0.00  0.00     0.168 C 
BRANCH   9  10
HETATM   10  O   UNK N   1      27.562  29.329  -1.700  0.00  0.00    -0.401 OA
HETATM   11  H   UNK N   1      26.883  28.866  -1.185  0.00  0.00     0.209 HD
ENDBRANCH   9  10
ENDBRANCH   8   9
ENDBRANCH   1   8
TORSDOF 3
ENDMDL
MODEL 9
REMARK VINA RESULT:      -4.2     11.696     12.205
REMARK  3 active torsions:
REMARK  status: ('A' for Active; 'I' for Inactive)
REMARK    1  A    between atoms: O_1  and  C_2 
REMARK    2  A    between atoms: C_2  and  C_3 
REMARK    3  A    between atoms: C_3  and  C_4 
ROOT
HETATM    1  C   UNK N   1      32.635  17.532   6.775  0.00  0.00    -0.056 A 
HETATM    2  C   UNK N   1      33.526  17.463   5.698  0.00  0.00     0.010 A 
HETATM    3  C   UNK N   1      33.089  17.000   4.452  0.00  0.00     0.043 A 
HETATM    4  C   UNK N   1      31.760  16.604   4.279  0.00  0.00     0.116 A 
HETATM    5  F   UNK N   1      31.335  16.155   3.074  0.00  0.00    -0.206 F 
HETATM    6  C   UNK N   1      30.865  16.669   5.349  0.00  0.00     0.043 A 
HETATM    7  C   UNK N   1      31.301  17.131   6.592  0.00  0.00     0.010 A 
ENDROOT
BRANCH   1   8
HETATM    8  C   UNK N   1      33.130  18.032   8.100  0.00  0.00     0.064 C 
BRANCH   8   9
HETATM    9  C   UNK N   1      34.644  17.940   8.247  0.00  0.00     0.168 C 
BRANCH   9  10
HETATM   10  O   UNK N   1      35.175  19.208   8.466  0.00  0.00    -0.401 OA
HETATM   11  H   UNK N   1      36.101  19.306   8.737  0.00  0.00     0.209 HD
ENDBRANCH   9  10
ENDBRANCH   8   9
ENDBRANCH   1   8
TORSDOF 3
ENDMDL
