MODEL 1
REMARK VINA RESULT:      -5.6      0.000      0.000
REMARK  6 active torsions:
REMARK  status: ('A' for Active; 'I' for Inactive)
REMARK    1  A    between atoms: C_3  and  C_2 
REMARK    2  A    between atoms: O_13  and  C_2 
REMARK    3  A    between atoms: C_4  and  O_14 
REMARK    4  A    between atoms: C_5  and  O_15 
REMARK    5  A    between atoms: C_6  and  O_16 
REMARK    6  A    between atoms: O_18  and  C_8 
ROOT
HETATM    1  C   UNK N   1      33.608  16.734   6.328  0.00  0.00     0.163 C 
HETATM    2  C   UNK N   1      36.850  14.194   9.905  0.00  0.00     0.180 C 
HETATM    3  C   UNK N   1      36.301  13.522  11.194  0.00  0.00     0.180 C 
HETATM    4  C   UNK N   1      35.135  14.343  11.782  0.00  0.00     0.183 C 
HETATM    5  C   UNK N   1      34.199  14.811  10.666  0.00  0.00     0.215 C 
HETATM    6  C   UNK N   1      34.602  15.439   8.186  0.00  0.00     0.285 A 
HETATM    7  C   UNK N   1      34.167  17.525   8.666  0.00  0.00     0.224 A 
HETATM    8  C   UNK N   1      35.025  15.659   9.635  0.00  0.00     0.250 A 
HETATM    9  N   UNK N   1      34.664  17.077   9.763  0.00  0.00    -0.314 N 
ATOM     10  HN  UNK N   1      34.792  17.632  10.610  1.00  0.00     0.166 HD
HETATM   11  N   UNK N   1      34.106  16.560   7.668  0.00  0.00    -0.284 N 
HETATM   12  O   UNK N   1      34.689  14.392   7.562  0.00  0.00    -0.267 OA
HETATM   13  O   UNK N   1      36.442  15.545   9.807  0.00  0.00    -0.340 OA
ENDROOT
BRANCH   5  14
HETATM   14  O   UNK N   1      33.617  13.692  10.061  0.00  0.00    -0.387 OA
HETATM   15  H   UNK N   1      33.306  13.028   9.426  0.00  0.00     0.210 HD
ENDBRANCH   5  14
BRANCH   4  16
HETATM   16  O   UNK N   1      34.448  13.602  12.749  0.00  0.00    -0.390 OA
HETATM   17  H   UNK N   1      34.077  12.714  12.629  0.00  0.00     0.210 HD
ENDBRANCH   4  16
BRANCH   7  18
HETATM   18  O   UNK N   1      33.754  18.797   8.507  0.00  0.00    -0.332 OA
HETATM   19  H   UNK N   1      33.095  19.079   7.905  0.00  0.00     0.220 HD
ENDBRANCH   7  18
BRANCH   2  20
HETATM   20  C   UNK N   1      38.374  14.140   9.855  0.00  0.00     0.198 C 
BRANCH  20  21
HETATM   21  O   UNK N   1      38.878  13.357  10.893  0.00  0.00    -0.398 OA
HETATM   22  H   UNK N   1      39.611  12.724  10.837  0.00  0.00     0.209 HD
ENDBRANCH  20  21
ENDBRANCH   2  20
BRANCH   3  23
HETATM   23  O   UNK N   1      35.890  12.222  10.878  0.00  0.00    -0.390 OA
HETATM   24  H   UNK N   1      35.866  11.423  10.327  0.00  0.00     0.210 HD
ENDBRANCH   3  23
TORSDOF 6
ENDMDL
MODEL 2
REMARK VINA RESULT:      -5.5      2.810      4.133
REMARK  6 active torsions:
REMARK  status: ('A' for Active; 'I' for Inactive)
REMARK    1  A    between atoms: C_3  and  C_2 
REMARK    2  A    between atoms: O_13  and  C_2 
REMARK    3  A    between atoms: C_4  and  O_14 
REMARK    4  A    between atoms: C_5  and  O_15 
REMARK    5  A    between atoms: C_6  and  O_16 
REMARK    6  A    between atoms: O_18  and  C_8 
ROOT
HETATM    1  C   UNK N   1      30.287  17.334   4.847  0.00  0.00     0.163 C 
HETATM    2  C   UNK N   1      32.985  14.338   8.523  0.00  0.00     0.180 C 
HETATM    3  C   UNK N   1      33.705  14.971   9.745  0.00  0.00     0.180 C 
HETATM    4  C   UNK N   1      34.336  16.327   9.363  0.00  0.00     0.183 C 
HETATM    5  C   UNK N   1      33.369  17.138   8.500  0.00  0.00     0.215 C 
HETATM    6  C   UNK N   1      31.556  16.455   6.781  0.00  0.00     0.285 A 
HETATM    7  C   UNK N   1      32.796  17.274   5.180  0.00  0.00     0.224 A 
HETATM    8  C   UNK N   1      33.008  16.302   7.221  0.00  0.00     0.250 A 
HETATM    9  N   UNK N   1      33.664  16.891   6.046  0.00  0.00    -0.314 N 
ATOM     10  HN  UNK N   1      34.674  16.983   5.934  1.00  0.00     0.166 HD
HETATM   11  N   UNK N   1      31.488  17.030   5.582  0.00  0.00    -0.284 N 
HETATM   12  O   UNK N   1      30.570  16.113   7.418  0.00  0.00    -0.267 OA
HETATM   13  O   UNK N   1      33.404  14.928   7.308  0.00  0.00    -0.340 OA
ENDROOT
BRANCH   5  14
HETATM   14  O   UNK N   1      32.229  17.441   9.253  0.00  0.00    -0.387 OA
HETATM   15  H   UNK N   1      31.484  17.414   9.874  0.00  0.00     0.210 HD
ENDBRANCH   5  14
BRANCH   4  16
HETATM   16  O   UNK N   1      34.716  17.035  10.508  0.00  0.00    -0.390 OA
HETATM   17  H   UNK N   1      35.298  16.709  11.213  0.00  0.00     0.210 HD
ENDBRANCH   4  16
BRANCH   7  18
HETATM   18  O   UNK N   1      33.126  17.847   4.007  0.00  0.00    -0.332 OA
HETATM   19  H   UNK N   1      33.671  17.460   3.351  0.00  0.00     0.220 HD
ENDBRANCH   7  18
BRANCH   2  20
HETATM   20  C   UNK N   1      33.235  12.835   8.447  0.00  0.00     0.198 C 
BRANCH  20  21
HETATM   21  O   UNK N   1      32.596  12.172   9.494  0.00  0.00    -0.398 OA
HETATM   22  H   UNK N   1      32.074  12.578  10.204  0.00  0.00     0.209 HD
ENDBRANCH  20  21
ENDBRANCH   2  20
BRANCH   3  23
HETATM   23  O   UNK N   1      32.776  15.124  10.781  0.00  0.00    -0.390 OA
HETATM   24  H   UNK N   1      31.886  15.264  11.142  0.00  0.00     0.210 HD
ENDBRANCH   3  23
TORSDOF 6
ENDMDL
MODEL 3
REMARK VINA RESULT:      -5.5      2.061      3.213
REMARK  6 active torsions:
REMARK  status: ('A' for Active; 'I' for Inactive)
REMARK    1  A    between atoms: C_3  and  C_2 
REMARK    2  A    between atoms: O_13  and  C_2 
REMARK    3  A    between atoms: C_4  and  O_14 
REMARK    4  A    between atoms: C_5  and  O_15 
REMARK    5  A    between atoms: C_6  and  O_16 
REMARK    6  A    between atoms: O_18  and  C_8 
ROOT
HETATM    1  C   UNK N   1      34.598  17.356   9.149  0.00  0.00     0.163 C 
HETATM    2  C   UNK N   1      36.332  13.921  13.016  0.00  0.00     0.180 C 
HETATM    3  C   UNK N   1      36.753  12.459  12.701  0.00  0.00     0.180 C 
HETATM    4  C   UNK N   1      35.858  11.859  11.597  0.00  0.00     0.183 C 
HETATM    5  C   UNK N   1      35.634  12.882  10.482  0.00  0.00     0.215 C 
HETATM    6  C   UNK N   1      35.490  15.467  10.474  0.00  0.00     0.285 A 
HETATM    7  C   UNK N   1      33.359  15.326  10.013  0.00  0.00     0.224 A 
HETATM    8  C   UNK N   1      34.984  14.171  11.099  0.00  0.00     0.250 A 
HETATM    9  N   UNK N   1      33.576  14.257  10.691  0.00  0.00    -0.314 N 
ATOM     10  HN  UNK N   1      32.866  13.560  10.917  1.00  0.00     0.166 HD
HETATM   11  N   UNK N   1      34.500  16.103   9.851  0.00  0.00    -0.284 N 
HETATM   12  O   UNK N   1      36.636  15.890  10.519  0.00  0.00    -0.267 OA
HETATM   13  O   UNK N   1      35.035  14.205  12.530  0.00  0.00    -0.340 OA
ENDROOT
BRANCH   5  14
HETATM   14  O   UNK N   1      36.860  13.166   9.872  0.00  0.00    -0.387 OA
HETATM   15  H   UNK N   1      37.788  13.159   9.588  0.00  0.00     0.210 HD
ENDBRANCH   5  14
BRANCH   4  16
HETATM   16  O   UNK N   1      36.411  10.675  11.101  0.00  0.00    -0.390 OA
HETATM   17  H   UNK N   1      36.592   9.871  11.615  0.00  0.00     0.210 HD
ENDBRANCH   4  16
BRANCH   7  18
HETATM   18  O   UNK N   1      32.151  15.654   9.517  0.00  0.00    -0.332 OA
HETATM   19  H   UNK N   1      31.529  15.048   9.165  0.00  0.00     0.220 HD
ENDBRANCH   7  18
BRANCH   2  20
HETATM   20  C   UNK N   1      36.364  14.199  14.515  0.00  0.00     0.198 C 
BRANCH  20  21
HETATM   21  O   UNK N   1      37.577  13.794  15.070  0.00  0.00    -0.398 OA
HETATM   22  H   UNK N   1      38.464  13.991  14.730  0.00  0.00     0.209 HD
ENDBRANCH  20  21
ENDBRANCH   2  20
BRANCH   3  23
HETATM   23  O   UNK N   1      38.098  12.456  12.313  0.00  0.00    -0.390 OA
HETATM   24  H   UNK N   1      38.825  12.331  11.682  0.00  0.00     0.210 HD
ENDBRANCH   3  23
TORSDOF 6
ENDMDL
MODEL 4
REMARK VINA RESULT:      -5.5     14.103     15.565
REMARK  6 active torsions:
REMARK  status: ('A' for Active; 'I' for Inactive)
REMARK    1  A    between atoms: C_3  and  C_2 
REMARK    2  A    between atoms: O_13  and  C_2 
REMARK    3  A    between atoms: C_4  and  O_14 
REMARK    4  A    between atoms: C_5  and  O_15 
REMARK    5  A    between atoms: C_6  and  O_16 
REMARK    6  A    between atoms: O_18  and  C_8 
ROOT
HETATM    1  C   UNK N   1      24.143  20.631   2.888  0.00  0.00     0.163 C 
HETATM    2  C   UNK N   1      21.012  17.357   5.927  0.00  0.00     0.180 C 
HETATM    3  C   UNK N   1      20.225  16.161   5.322  0.00  0.00     0.180 C 
HETATM    4  C   UNK N   1      19.694  16.515   3.917  0.00  0.00     0.183 C 
HETATM    5  C   UNK N   1      20.767  17.251   3.114  0.00  0.00     0.215 C 
HETATM    6  C   UNK N   1      22.680  18.857   3.799  0.00  0.00     0.285 A 
HETATM    7  C   UNK N   1      21.616  20.502   2.834  0.00  0.00     0.224 A 
HETATM    8  C   UNK N   1      21.190  18.543   3.899  0.00  0.00     0.250 A 
HETATM    9  N   UNK N   1      20.663  19.731   3.216  0.00  0.00    -0.314 N 
ATOM     10  HN  UNK N   1      19.670  19.917   3.065  1.00  0.00     0.166 HD
HETATM   11  N   UNK N   1      22.873  20.012   3.167  0.00  0.00    -0.284 N 
HETATM   12  O   UNK N   1      23.592  18.164   4.226  0.00  0.00    -0.267 OA
HETATM   13  O   UNK N   1      20.723  18.566   5.253  0.00  0.00    -0.340 OA
ENDROOT
BRANCH   5  14
HETATM   14  O   UNK N   1      21.854  16.394   2.911  0.00  0.00    -0.387 OA
HETATM   15  H   UNK N   1      22.470  15.731   2.561  0.00  0.00     0.210 HD
ENDBRANCH   5  14
BRANCH   4  16
HETATM   16  O   UNK N   1      19.256  15.365   3.252  0.00  0.00    -0.390 OA
HETATM   17  H   UNK N   1      19.061  15.295   2.304  0.00  0.00     0.210 HD
ENDBRANCH   4  16
BRANCH   7  18
HETATM   18  O   UNK N   1      21.411  21.663   2.183  0.00  0.00    -0.332 OA
HETATM   19  H   UNK N   1      20.600  21.932   1.801  0.00  0.00     0.220 HD
ENDBRANCH   7  18
BRANCH   2  20
HETATM   20  C   UNK N   1      20.697  17.537   7.409  0.00  0.00     0.198 C 
BRANCH  20  21
HETATM   21  O   UNK N   1      20.639  18.890   7.743  0.00  0.00    -0.398 OA
HETATM   22  H   UNK N   1      20.011  19.310   8.351  0.00  0.00     0.209 HD
ENDBRANCH  20  21
ENDBRANCH   2  20
BRANCH   3  23
HETATM   23  O   UNK N   1      21.073  15.048   5.273  0.00  0.00    -0.390 OA
HETATM   24  H   UNK N   1      21.681  14.433   4.835  0.00  0.00     0.210 HD
ENDBRANCH   3  23
TORSDOF 6
ENDMDL
MODEL 5
REMARK VINA RESULT:      -5.4      3.960      7.066
REMARK  6 active torsions:
REMARK  status: ('A' for Active; 'I' for Inactive)
REMARK    1  A    between atoms: C_3  and  C_2 
REMARK    2  A    between atoms: O_13  and  C_2 
REMARK    3  A    between atoms: C_4  and  O_14 
REMARK    4  A    between atoms: C_5  and  O_15 
REMARK    5  A    between atoms: C_6  and  O_16 
REMARK    6  A    between atoms: O_18  and  C_8 
ROOT
HETATM    1  C   UNK N   1      34.670  16.974   9.226  0.00  0.00     0.163 C 
HETATM    2  C   UNK N   1      29.930  17.565   6.591  0.00  0.00     0.180 C 
HETATM    3  C   UNK N   1      28.615  17.954   7.321  0.00  0.00     0.180 C 
HETATM    4  C   UNK N   1      28.552  17.296   8.715  0.00  0.00     0.183 C 
HETATM    5  C   UNK N   1      29.910  17.396   9.412  0.00  0.00     0.215 C 
HETATM    6  C   UNK N   1      32.341  17.420   8.521  0.00  0.00     0.285 A 
HETATM    7  C   UNK N   1      32.660  15.446   9.398  0.00  0.00     0.224 A 
HETATM    8  C   UNK N   1      30.993  16.706   8.509  0.00  0.00     0.250 A 
HETATM    9  N   UNK N   1      31.406  15.435   9.120  0.00  0.00    -0.314 N 
ATOM     10  HN  UNK N   1      30.780  14.649   9.298  1.00  0.00     0.166 HD
HETATM   11  N   UNK N   1      33.280  16.640   9.052  0.00  0.00    -0.284 N 
HETATM   12  O   UNK N   1      32.561  18.551   8.111  0.00  0.00    -0.267 OA
HETATM   13  O   UNK N   1      30.538  16.432   7.180  0.00  0.00    -0.340 OA
ENDROOT
BRANCH   5  14
HETATM   14  O   UNK N   1      30.210  18.744   9.634  0.00  0.00    -0.387 OA
HETATM   15  H   UNK N   1      30.655  19.602   9.716  0.00  0.00     0.210 HD
ENDBRANCH   5  14
BRANCH   4  16
HETATM   16  O   UNK N   1      27.538  17.872   9.487  0.00  0.00    -0.390 OA
HETATM   17  H   UNK N   1      27.137  18.744   9.343  0.00  0.00     0.210 HD
ENDBRANCH   4  16
BRANCH   7  18
HETATM   18  O   UNK N   1      33.300  14.404   9.964  0.00  0.00    -0.332 OA
HETATM   19  H   UNK N   1      34.216  14.226   9.886  0.00  0.00     0.220 HD
ENDBRANCH   7  18
BRANCH   2  20
HETATM   20  C   UNK N   1      29.682  17.273   5.115  0.00  0.00     0.198 C 
BRANCH  20  21
HETATM   21  O   UNK N   1      29.152  18.390   4.469  0.00  0.00    -0.398 OA
HETATM   22  H   UNK N   1      28.397  18.403   3.860  0.00  0.00     0.209 HD
ENDBRANCH  20  21
ENDBRANCH   2  20
BRANCH   3  23
HETATM   23  O   UNK N   1      28.556  19.349   7.421  0.00  0.00    -0.390 OA
HETATM   24  H   UNK N   1      28.406  20.243   7.076  0.00  0.00     0.210 HD
ENDBRANCH   3  23
TORSDOF 6
ENDMDL
MODEL 6
REMARK VINA RESULT:      -5.3      2.908      5.058
REMARK  6 active torsions:
REMARK  status: ('A' for Active; 'I' for Inactive)
REMARK    1  A    between atoms: C_3  and  C_2 
REMARK    2  A    between atoms: O_13  and  C_2 
REMARK    3  A    between atoms: C_4  and  O_14 
REMARK    4  A    between atoms: C_5  and  O_15 
REMARK    5  A    between atoms: C_6  and  O_16 
REMARK    6  A    between atoms: O_18  and  C_8 
ROOT
HETATM    1  C   UNK N   1      35.789   9.594   9.313  0.00  0.00     0.163 C 
HETATM    2  C   UNK N   1      35.081  14.919  10.261  0.00  0.00     0.180 C 
HETATM    3  C   UNK N   1      35.799  15.660  11.423  0.00  0.00     0.180 C 
HETATM    4  C   UNK N   1      35.914  14.748  12.662  0.00  0.00     0.183 C 
HETATM    5  C   UNK N   1      36.323  13.335  12.245  0.00  0.00     0.215 C 
HETATM    6  C   UNK N   1      35.867  11.933  10.116  0.00  0.00     0.285 A 
HETATM    7  C   UNK N   1      34.576  10.615  11.285  0.00  0.00     0.224 A 
HETATM    8  C   UNK N   1      35.261  12.779  11.230  0.00  0.00     0.250 A 
HETATM    9  N   UNK N   1      34.449  11.745  11.884  0.00  0.00    -0.314 N 
ATOM     10  HN  UNK N   1      33.863  11.903  12.705  1.00  0.00     0.166 HD
HETATM   11  N   UNK N   1      35.434  10.676  10.194  0.00  0.00    -0.284 N 
HETATM   12  O   UNK N   1      36.645  12.322   9.257  0.00  0.00    -0.267 OA
HETATM   13  O   UNK N   1      34.375  13.784  10.725  0.00  0.00    -0.340 OA
ENDROOT
BRANCH   5  14
HETATM   14  O   UNK N   1      37.601  13.378  11.677  0.00  0.00    -0.387 OA
HETATM   15  H   UNK N   1      38.479  13.654  11.371  0.00  0.00     0.210 HD
ENDBRANCH   5  14
BRANCH   4  16
HETATM   16  O   UNK N   1      36.812  15.287  13.590  0.00  0.00    -0.390 OA
HETATM   17  H   UNK N   1      36.618  15.491  14.518  0.00  0.00     0.210 HD
ENDBRANCH   4  16
BRANCH   7  18
HETATM   18  O   UNK N   1      33.938   9.495  11.677  0.00  0.00    -0.332 OA
HETATM   19  H   UNK N   1      33.009   9.380  11.690  0.00  0.00     0.220 HD
ENDBRANCH   7  18
BRANCH   2  20
HETATM   20  C   UNK N   1      34.103  15.838   9.536  0.00  0.00     0.198 C 
BRANCH  20  21
HETATM   21  O   UNK N   1      34.279  17.164   9.933  0.00  0.00    -0.398 OA
HETATM   22  H   UNK N   1      33.595  17.851   9.974  0.00  0.00     0.209 HD
ENDBRANCH  20  21
ENDBRANCH   2  20
BRANCH   3  23
HETATM   23  O   UNK N   1      37.063  16.066  10.978  0.00  0.00    -0.390 OA
HETATM   24  H   UNK N   1      38.024  15.974  10.875  0.00  0.00     0.210 HD
ENDBRANCH   3  23
TORSDOF 6
ENDMDL
MODEL 7
REMARK VINA RESULT:      -5.3     18.591     20.848
REMARK  6 active torsions:
REMARK  status: ('A' for Active; 'I' for Inactive)
REMARK    1  A    between atoms: C_3  and  C_2 
REMARK    2  A    between atoms: O_13  and  C_2 
REMARK    3  A    between atoms: C_4  and  O_14 
REMARK    4  A    between atoms: C_5  and  O_15 
REMARK    5  A    between atoms: C_6  and  O_16 
REMARK    6  A    between atoms: O_18  and  C_8 
ROOT
HETATM    1  C   UNK N   1      26.950  23.344  -9.885  0.00  0.00     0.163 C 
HETATM    2  C   UNK N   1      25.835  26.262  -5.412  0.00  0.00     0.180 C 
HETATM    3  C   UNK N   1      26.325  25.839  -4.000  0.00  0.00     0.180 C 
HETATM    4  C   UNK N   1      26.290  24.304  -3.848  0.00  0.00     0.183 C 
HETATM    5  C   UNK N   1      26.829  23.634  -5.112  0.00  0.00     0.215 C 
HETATM    6  C   UNK N   1      26.783  24.308  -7.612  0.00  0.00     0.285 A 
HETATM    7  C   UNK N   1      25.392  22.670  -8.006  0.00  0.00     0.224 A 
HETATM    8  C   UNK N   1      25.968  24.101  -6.339  0.00  0.00     0.250 A 
HETATM    9  N   UNK N   1      25.118  22.993  -6.794  0.00  0.00    -0.314 N 
ATOM     10  HN  UNK N   1      24.403  22.542  -6.222  1.00  0.00     0.166 HD
HETATM   11  N   UNK N   1      26.407  23.446  -8.554  0.00  0.00    -0.284 N 
HETATM   12  O   UNK N   1      27.666  25.138  -7.776  0.00  0.00    -0.267 OA
HETATM   13  O   UNK N   1      25.124  25.220  -6.051  0.00  0.00    -0.340 OA
ENDROOT
BRANCH   5  14
HETATM   14  O   UNK N   1      28.177  23.976  -5.271  0.00  0.00    -0.387 OA
HETATM   15  H   UNK N   1      29.016  24.353  -5.579  0.00  0.00     0.210 HD
ENDBRANCH   5  14
BRANCH   4  16
HETATM   16  O   UNK N   1      27.003  23.904  -2.713  0.00  0.00    -0.390 OA
HETATM   17  H   UNK N   1      26.622  23.528  -1.904  0.00  0.00     0.210 HD
ENDBRANCH   4  16
BRANCH   7  18
HETATM   18  O   UNK N   1      24.758  21.685  -8.671  0.00  0.00    -0.332 OA
HETATM   19  H   UNK N   1      23.900  21.749  -9.041  0.00  0.00     0.220 HD
ENDBRANCH   7  18
BRANCH   2  20
HETATM   20  C   UNK N   1      24.938  27.494  -5.345  0.00  0.00     0.198 C 
BRANCH  20  21
HETATM   21  O   UNK N   1      25.095  28.156  -4.127  0.00  0.00    -0.398 OA
HETATM   22  H   UNK N   1      25.548  27.819  -3.339  0.00  0.00     0.209 HD
ENDBRANCH  20  21
ENDBRANCH   2  20
BRANCH   3  23
HETATM   23  O   UNK N   1      27.621  26.334  -3.811  0.00  0.00    -0.390 OA
HETATM   24  H   UNK N   1      28.589  26.283  -3.849  0.00  0.00     0.210 HD
ENDBRANCH   3  23
TORSDOF 6
ENDMDL
MODEL 8
REMARK VINA RESULT:      -5.2     13.430     16.291
REMARK  6 active torsions:
REMARK  status: ('A' for Active; 'I' for Inactive)
REMARK    1  A    between atoms: C_3  and  C_2 
REMARK    2  A    between atoms: O_13  and  C_2 
REMARK    3  A    between atoms: C_4  and  O_14 
REMARK    4  A    between atoms: C_5  and  O_15 
REMARK    5  A    between atoms: C_6  and  O_16 
REMARK    6  A    between atoms: O_18  and  C_8 
ROOT
HETATM    1  C   UNK N   1      22.441  15.274   6.871  0.00  0.00     0.163 C 
HETATM    2  C   UNK N   1      21.060  18.955   3.088  0.00  0.00     0.180 C 
HETATM    3  C   UNK N   1      20.027  18.650   1.969  0.00  0.00     0.180 C 
HETATM    4  C   UNK N   1      20.153  17.187   1.494  0.00  0.00     0.183 C 
HETATM    5  C   UNK N   1      20.329  16.253   2.693  0.00  0.00     0.215 C 
HETATM    6  C   UNK N   1      21.443  16.563   5.011  0.00  0.00     0.285 A 
HETATM    7  C   UNK N   1      23.027  15.184   4.410  0.00  0.00     0.224 A 
HETATM    8  C   UNK N   1      21.601  16.698   3.499  0.00  0.00     0.250 A 
HETATM    9  N   UNK N   1      22.679  15.723   3.297  0.00  0.00    -0.314 N 
ATOM     10  HN  UNK N   1      23.096  15.502   2.392  1.00  0.00     0.166 HD
HETATM   11  N   UNK N   1      22.299  15.665   5.492  0.00  0.00    -0.284 N 
HETATM   12  O   UNK N   1      20.649  17.176   5.710  0.00  0.00    -0.267 OA
HETATM   13  O   UNK N   1      22.093  17.989   3.121  0.00  0.00    -0.340 OA
ENDROOT
BRANCH   5  14
HETATM   14  O   UNK N   1      19.176  16.304   3.484  0.00  0.00    -0.387 OA
HETATM   15  H   UNK N   1      18.394  16.594   3.980  0.00  0.00     0.210 HD
ENDBRANCH   5  14
BRANCH   4  16
HETATM   16  O   UNK N   1      19.047  16.822   0.720  0.00  0.00    -0.390 OA
HETATM   17  H   UNK N   1      18.606  17.379   0.059  0.00  0.00     0.210 HD
ENDBRANCH   4  16
BRANCH   7  18
HETATM   18  O   UNK N   1      23.997  14.256   4.511  0.00  0.00    -0.332 OA
HETATM   19  H   UNK N   1      24.366  13.945   5.314  0.00  0.00     0.220 HD
ENDBRANCH   7  18
BRANCH   2  20
HETATM   20  C   UNK N   1      21.687  20.333   2.906  0.00  0.00     0.198 C 
BRANCH  20  21
HETATM   21  O   UNK N   1      20.740  21.339   3.097  0.00  0.00    -0.398 OA
HETATM   22  H   UNK N   1      19.898  21.438   2.626  0.00  0.00     0.209 HD
ENDBRANCH  20  21
ENDBRANCH   2  20
BRANCH   3  23
HETATM   23  O   UNK N   1      18.743  18.907   2.466  0.00  0.00    -0.390 OA
HETATM   24  H   UNK N   1      17.882  18.653   2.834  0.00  0.00     0.210 HD
ENDBRANCH   3  23
TORSDOF 6
ENDMDL
MODEL 9
REMARK VINA RESULT:      -5.1      3.206      5.909
REMARK  6 active torsions:
REMARK  status: ('A' for Active; 'I' for Inactive)
REMARK    1  A    between atoms: C_3  and  C_2 
REMARK    2  A    between atoms: O_13  and  C_2 
REMARK    3  A    between atoms: C_4  and  O_14 
REMARK    4  A    between atoms: C_5  and  O_15 
REMARK    5  A    between atoms: C_6  and  O_16 
REMARK    6  A    between atoms: O_18  and  C_8 
ROOT
HETATM    1  C   UNK N   1      36.243  11.905  15.934  0.00  0.00     0.163 C 
HETATM    2  C   UNK N   1      35.315  14.841  11.431  0.00  0.00     0.180 C 
HETATM    3  C   UNK N   1      34.854  14.194  10.096  0.00  0.00     0.180 C 
HETATM    4  C   UNK N   1      35.527  12.819   9.896  0.00  0.00     0.183 C 
HETATM    5  C   UNK N   1      35.523  12.032  11.208  0.00  0.00     0.215 C 
HETATM    6  C   UNK N   1      35.640  12.757  13.691  0.00  0.00     0.285 A 
HETATM    7  C   UNK N   1      37.643  11.897  13.826  0.00  0.00     0.224 A 
HETATM    8  C   UNK N   1      36.267  12.872  12.305  0.00  0.00     0.250 A 
HETATM    9  N   UNK N   1      37.570  12.259  12.596  0.00  0.00    -0.314 N 
ATOM     10  HN  UNK N   1      38.317  12.138  11.910  1.00  0.00     0.166 HD
HETATM   11  N   UNK N   1      36.486  12.179  14.541  0.00  0.00    -0.284 N 
HETATM   12  O   UNK N   1      34.520  13.130  14.008  0.00  0.00    -0.267 OA
HETATM   13  O   UNK N   1      36.492  14.234  11.926  0.00  0.00    -0.340 OA
ENDROOT
BRANCH   5  14
HETATM   14  O   UNK N   1      34.200  11.764  11.575  0.00  0.00    -0.387 OA
HETATM   15  H   UNK N   1      33.298  11.410  11.632  0.00  0.00     0.210 HD
ENDBRANCH   5  14
BRANCH   4  16
HETATM   16  O   UNK N   1      34.899  12.106   8.870  0.00  0.00    -0.390 OA
HETATM   17  H   UNK N   1      34.471  12.491   8.088  0.00  0.00     0.210 HD
ENDBRANCH   4  16
BRANCH   7  18
HETATM   18  O   UNK N   1      38.731  11.309  14.359  0.00  0.00    -0.332 OA
HETATM   19  H   UNK N   1      39.194  11.614  15.114  0.00  0.00     0.220 HD
ENDBRANCH   7  18
BRANCH   2  20
HETATM   20  C   UNK N   1      35.570  16.336  11.265  0.00  0.00     0.198 C 
BRANCH  20  21
HETATM   21  O   UNK N   1      34.586  16.922  10.468  0.00  0.00    -0.398 OA
HETATM   22  H   UNK N   1      34.443  17.872  10.331  0.00  0.00     0.209 HD
ENDBRANCH  20  21
ENDBRANCH   2  20
BRANCH   3  23
HETATM   23  O   UNK N   1      33.460  14.072  10.117  0.00  0.00    -0.390 OA
HETATM   24  H   UNK N   1      32.602  13.792   9.759  0.00  0.00     0.210 HD
ENDBRANCH   3  23
TORSDOF 6
ENDMDL
