REMARK  7 active torsions:
REMARK  status: ('A' for Active; 'I' for Inactive)
REMARK    1  A    between atoms: C_2  and  C_1 
REMARK    2  A    between atoms: O_10  and  C_1 
REMARK    3  A    between atoms: C_3  and  C_2 
REMARK    4  A    between atoms: C_2  and  N_4 
REMARK    5  A    between atoms: O_6  and  C_3 
REMARK    6  A    between atoms: S_11  and  O_7 
REMARK    7  A    between atoms: S_11  and  O_10 
ROOT
HETATM    1  C   UNK N   1       2.634  -0.659  -0.330  0.00  0.00     0.198 C 
ENDROOT
BRANCH   1   2
HETATM    2  C   UNK N   1       1.618  -0.152   0.682  0.00  0.00     0.227 C 
BRANCH   2   3
HETATM    3  O   UNK N   1       0.623   0.588   0.026  0.00  0.00    -0.261 OA
BRANCH   3   4
HETATM    4  S   UNK N   1      -0.867   0.109   0.755  0.00  0.00     0.240 S 
HETATM    5  O   UNK N   1      -1.083   1.515   0.173  0.00  0.00    -0.579 OA
HETATM    6  O   UNK N   1      -0.726  -0.801  -0.479  0.00  0.00    -0.579 OA
BRANCH   4   7
HETATM    7  O   UNK N   1      -2.363   0.105  -0.085  0.00  0.00    -0.274 OA
HETATM    8  H   UNK N   1      -2.788   0.836  -0.560  0.00  0.00     0.234 HD
ENDBRANCH   4   7
ENDBRANCH   3   4
ENDBRANCH   2   3
ENDBRANCH   1   2
BRANCH   1   9
HETATM    9  C   UNK N   1       3.357  -1.850   0.233  0.00  0.00     0.165 C 
HETATM   10  O   UNK N   1       4.570  -1.837   0.376  0.00  0.00    -0.648 OA
BRANCH   9  11
HETATM   11  O   UNK N   1       2.660  -2.954   0.565  0.00  0.00    -0.775 OA
HETATM   12  H   UNK N   1       1.753  -2.919   0.796  0.00  0.00     0.167 HD
ENDBRANCH   9  11
ENDBRANCH   1   9
BRANCH   1  13
HETATM   13  N   UNK N   1       3.561   0.414  -0.660  0.00  0.00    -0.416 N 
HETATM   14  H   UNK N   1       4.536   0.227  -0.892  0.00  0.00     0.150 HD
HETATM   15  H   UNK N   1       3.225   1.377  -0.660  0.00  0.00     0.150 HD
ENDBRANCH   1  13
TORSDOF 7
