MODEL 1
REMARK VINA RESULT:      -4.0      0.000      0.000
REMARK  3 active torsions:
REMARK  status: ('A' for Active; 'I' for Inactive)
REMARK    1  A    between atoms: C_6  and  C_4 
REMARK    2  A    between atoms: C_7  and  C_4 
REMARK    3  A    between atoms: C_6  and  C_5 
ROOT
HETATM    1  C   UNK N   1      22.496  13.186  10.200  0.00  0.00     0.015 C 
ENDROOT
BRANCH   1   2
HETATM    2  C   UNK N   1      21.006  12.963   9.979  0.00  0.00     0.043 C 
HETATM    3  C   UNK N   1      20.408  12.369  11.241  0.00  0.00     0.017 C 
BRANCH   2   4
HETATM    4  C   UNK N   1      20.376  14.291   9.699  0.00  0.00     0.235 C 
HETATM    5  O   UNK N   1      19.164  14.416   9.681  0.00  0.00    -0.306 OA
ENDBRANCH   2   4
ENDBRANCH   1   2
BRANCH   1   6
HETATM    6  C   UNK N   1      23.246  11.894  10.475  0.00  0.00    -0.014 A 
HETATM    7  C   UNK N   1      23.887  11.982  11.846  0.00  0.00     0.005 A 
HETATM    8  C   UNK N   1      24.722  12.216  10.610  0.00  0.00     0.005 A 
ENDBRANCH   1   6
TORSDOF 3
ENDMDL
MODEL 2
REMARK VINA RESULT:      -3.9     12.175     13.443
REMARK  3 active torsions:
REMARK  status: ('A' for Active; 'I' for Inactive)
REMARK    1  A    between atoms: C_6  and  C_4 
REMARK    2  A    between atoms: C_7  and  C_4 
REMARK    3  A    between atoms: C_6  and  C_5 
ROOT
HETATM    1  C   UNK N   1      33.375  17.015   6.443  0.00  0.00     0.015 C 
ENDROOT
BRANCH   1   2
HETATM    2  C   UNK N   1      33.248  18.079   7.526  0.00  0.00     0.043 C 
HETATM    3  C   UNK N   1      32.132  17.681   8.473  0.00  0.00     0.017 C 
BRANCH   2   4
HETATM    4  C   UNK N   1      34.545  18.137   8.271  0.00  0.00     0.235 C 
HETATM    5  O   UNK N   1      35.132  19.194   8.420  0.00  0.00    -0.306 OA
ENDBRANCH   2   4
ENDBRANCH   1   2
BRANCH   1   6
HETATM    6  C   UNK N   1      33.389  17.605   5.043  0.00  0.00    -0.014 A 
HETATM    7  C   UNK N   1      31.990  17.531   4.467  0.00  0.00     0.005 A 
HETATM    8  C   UNK N   1      33.025  16.511   4.059  0.00  0.00     0.005 A 
ENDBRANCH   1   6
TORSDOF 3
ENDMDL
MODEL 3
REMARK VINA RESULT:      -3.8      9.958     10.562
REMARK  3 active torsions:
REMARK  status: ('A' for Active; 'I' for Inactive)
REMARK    1  A    between atoms: C_6  and  C_4 
REMARK    2  A    between atoms: C_7  and  C_4 
REMARK    3  A    between atoms: C_6  and  C_5 
ROOT
HETATM    1  C   UNK N   1      26.845  20.399   4.128  0.00  0.00     0.015 C 
ENDROOT
BRANCH   1   2
HETATM    2  C   UNK N   1      25.861  19.661   3.230  0.00  0.00     0.043 C 
HETATM    3  C   UNK N   1      25.641  18.268   3.788  0.00  0.00     0.017 C 
BRANCH   2   4
HETATM    4  C   UNK N   1      24.570  20.417   3.237  0.00  0.00     0.235 C 
HETATM    5  O   UNK N   1      24.169  20.979   2.233  0.00  0.00    -0.306 OA
ENDBRANCH   2   4
ENDBRANCH   1   2
BRANCH   1   6
HETATM    6  C   UNK N   1      26.366  20.496   5.566  0.00  0.00    -0.014 A 
HETATM    7  C   UNK N   1      27.071  21.656   6.240  0.00  0.00     0.005 A 
HETATM    8  C   UNK N   1      27.547  20.244   6.482  0.00  0.00     0.005 A 
ENDBRANCH   1   6
TORSDOF 3
ENDMDL
MODEL 4
REMARK VINA RESULT:      -3.7     19.617     20.640
REMARK  3 active torsions:
REMARK  status: ('A' for Active; 'I' for Inactive)
REMARK    1  A    between atoms: C_6  and  C_4 
REMARK    2  A    between atoms: C_7  and  C_4 
REMARK    3  A    between atoms: C_6  and  C_5 
ROOT
HETATM    1  C   UNK N   1      26.927  26.449  -4.790  0.00  0.00     0.015 C 
ENDROOT
BRANCH   1   2
HETATM    2  C   UNK N   1      26.020  27.619  -5.149  0.00  0.00     0.043 C 
HETATM    3  C   UNK N   1      24.702  27.074  -5.666  0.00  0.00     0.017 C 
BRANCH   2   4
HETATM    4  C   UNK N   1      25.784  28.419  -3.908  0.00  0.00     0.235 C 
HETATM    5  O   UNK N   1      25.484  27.873  -2.860  0.00  0.00    -0.306 OA
ENDBRANCH   2   4
ENDBRANCH   1   2
BRANCH   1   6
HETATM    6  C   UNK N   1      26.199  25.115  -4.816  0.00  0.00    -0.014 A 
HETATM    7  C   UNK N   1      26.671  24.277  -3.645  0.00  0.00     0.005 A 
HETATM    8  C   UNK N   1      27.222  24.016  -5.026  0.00  0.00     0.005 A 
ENDBRANCH   1   6
TORSDOF 3
ENDMDL
MODEL 5
REMARK VINA RESULT:      -3.7     10.943     12.648
REMARK  3 active torsions:
REMARK  status: ('A' for Active; 'I' for Inactive)
REMARK    1  A    between atoms: C_6  and  C_4 
REMARK    2  A    between atoms: C_7  and  C_4 
REMARK    3  A    between atoms: C_6  and  C_5 
ROOT
HETATM    1  C   UNK N   1      32.296  18.293   8.177  0.00  0.00     0.015 C 
ENDROOT
BRANCH   1   2
HETATM    2  C   UNK N   1      33.484  17.433   7.766  0.00  0.00     0.043 C 
HETATM    3  C   UNK N   1      33.650  17.516   6.260  0.00  0.00     0.017 C 
BRANCH   2   4
HETATM    4  C   UNK N   1      34.704  17.977   8.439  0.00  0.00     0.235 C 
HETATM    5  O   UNK N   1      34.996  19.157   8.344  0.00  0.00    -0.306 OA
ENDBRANCH   2   4
ENDBRANCH   1   2
BRANCH   1   6
HETATM    6  C   UNK N   1      31.130  17.470   8.696  0.00  0.00    -0.014 A 
HETATM    7  C   UNK N   1      29.913  17.749   7.837  0.00  0.00     0.005 A 
HETATM    8  C   UNK N   1      30.052  18.419   9.182  0.00  0.00     0.005 A 
ENDBRANCH   1   6
TORSDOF 3
ENDMDL
MODEL 6
REMARK VINA RESULT:      -3.5     14.914     15.557
REMARK  3 active torsions:
REMARK  status: ('A' for Active; 'I' for Inactive)
REMARK    1  A    between atoms: C_6  and  C_4 
REMARK    2  A    between atoms: C_7  and  C_4 
REMARK    3  A    between atoms: C_6  and  C_5 
ROOT
HETATM    1  C   UNK N   1      35.192  13.166  16.473  0.00  0.00     0.015 C 
ENDROOT
BRANCH   1   2
HETATM    2  C   UNK N   1      35.065  12.016  17.463  0.00  0.00     0.043 C 
HETATM    3  C   UNK N   1      36.103  10.963  17.124  0.00  0.00     0.017 C 
BRANCH   2   4
HETATM    4  C   UNK N   1      35.322  12.556  18.834  0.00  0.00     0.235 C 
HETATM    5  O   UNK N   1      35.229  13.749  19.063  0.00  0.00    -0.306 OA
ENDBRANCH   2   4
ENDBRANCH   1   2
BRANCH   1   6
HETATM    6  C   UNK N   1      36.422  13.046  15.590  0.00  0.00    -0.014 A 
HETATM    7  C   UNK N   1      37.061  14.413  15.452  0.00  0.00     0.005 A 
HETATM    8  C   UNK N   1      36.197  13.872  14.339  0.00  0.00     0.005 A 
ENDBRANCH   1   6
TORSDOF 3
ENDMDL
MODEL 7
REMARK VINA RESULT:      -3.5     18.764     19.522
REMARK  3 active torsions:
REMARK  status: ('A' for Active; 'I' for Inactive)
REMARK    1  A    between atoms: C_6  and  C_4 
REMARK    2  A    between atoms: C_7  and  C_4 
REMARK    3  A    between atoms: C_6  and  C_5 
ROOT
HETATM    1  C   UNK N   1      30.460  20.971  -4.081  0.00  0.00     0.015 C 
ENDROOT
BRANCH   1   2
HETATM    2  C   UNK N   1      31.413  21.524  -3.030  0.00  0.00     0.043 C 
HETATM    3  C   UNK N   1      32.789  21.676  -3.649  0.00  0.00     0.017 C 
BRANCH   2   4
HETATM    4  C   UNK N   1      30.902  22.863  -2.601  0.00  0.00     0.235 C 
HETATM    5  O   UNK N   1      30.488  23.040  -1.469  0.00  0.00    -0.306 OA
ENDBRANCH   2   4
ENDBRANCH   1   2
BRANCH   1   6
HETATM    6  C   UNK N   1      30.796  21.448  -5.484  0.00  0.00    -0.014 A 
HETATM    7  C   UNK N   1      29.506  21.685  -6.242  0.00  0.00     0.005 A 
HETATM    8  C   UNK N   1      30.291  20.416  -6.474  0.00  0.00     0.005 A 
ENDBRANCH   1   6
TORSDOF 3
ENDMDL
MODEL 8
REMARK VINA RESULT:      -3.5      2.524      4.231
REMARK  3 active torsions:
REMARK  status: ('A' for Active; 'I' for Inactive)
REMARK    1  A    between atoms: C_6  and  C_4 
REMARK    2  A    between atoms: C_7  and  C_4 
REMARK    3  A    between atoms: C_6  and  C_5 
ROOT
HETATM    1  C   UNK N   1      22.296  13.335  10.111  0.00  0.00     0.015 C 
ENDROOT
BRANCH   1   2
HETATM    2  C   UNK N   1      22.828  11.924  10.322  0.00  0.00     0.043 C 
HETATM    3  C   UNK N   1      23.871  11.631   9.260  0.00  0.00     0.017 C 
BRANCH   2   4
HETATM    4  C   UNK N   1      23.457  11.864  11.678  0.00  0.00     0.235 C 
HETATM    5  O   UNK N   1      24.664  11.962  11.811  0.00  0.00    -0.306 OA
ENDBRANCH   2   4
ENDBRANCH   1   2
BRANCH   1   6
HETATM    6  C   UNK N   1      21.149  13.385   9.116  0.00  0.00    -0.014 A 
HETATM    7  C   UNK N   1      21.093  14.770   8.504  0.00  0.00     0.005 A 
HETATM    8  C   UNK N   1      20.133  14.397   9.607  0.00  0.00     0.005 A 
ENDBRANCH   1   6
TORSDOF 3
ENDMDL
MODEL 9
REMARK VINA RESULT:      -3.5     11.413     12.899
REMARK  3 active torsions:
REMARK  status: ('A' for Active; 'I' for Inactive)
REMARK    1  A    between atoms: C_6  and  C_4 
REMARK    2  A    between atoms: C_7  and  C_4 
REMARK    3  A    between atoms: C_6  and  C_5 
ROOT
HETATM    1  C   UNK N   1      32.573  16.854   8.599  0.00  0.00     0.015 C 
ENDROOT
BRANCH   1   2
HETATM    2  C   UNK N   1      33.995  17.233   8.991  0.00  0.00     0.043 C 
HETATM    3  C   UNK N   1      34.896  16.030   8.784  0.00  0.00     0.017 C 
BRANCH   2   4
HETATM    4  C   UNK N   1      34.436  18.353   8.103  0.00  0.00     0.235 C 
HETATM    5  O   UNK N   1      35.268  19.159   8.481  0.00  0.00    -0.306 OA
ENDBRANCH   2   4
ENDBRANCH   1   2
BRANCH   1   6
HETATM    6  C   UNK N   1      32.235  17.246   7.171  0.00  0.00    -0.014 A 
HETATM    7  C   UNK N   1      30.728  17.291   7.019  0.00  0.00     0.005 A 
HETATM    8  C   UNK N   1      31.498  16.092   6.519  0.00  0.00     0.005 A 
ENDBRANCH   1   6
TORSDOF 3
ENDMDL
