REMARK  6 active torsions:
REMARK  status: ('A' for Active; 'I' for Inactive)
REMARK       I    between atoms: N_2  and  C_3 
REMARK    1  A    between atoms: C_3  and  C_5 
REMARK    2  A    between atoms: C_5  and  C_6 
REMARK    3  A    between atoms: C_6  and  C_7 
REMARK    4  A    between atoms: C_7  and  N_8 
REMARK    5  A    between atoms: C_7  and  C_9 
REMARK    6  A    between atoms: C_9  and  O_10 
ROOT
HETATM    1  C   UNK N   1       5.282   2.131  -0.003  0.00  0.00     0.173 C 
ENDROOT
BRANCH   1   2
HETATM    2  C   UNK N   1       3.759   2.201   0.002  0.00  0.00     0.044 C 
BRANCH   2   3
HETATM    3  C   UNK N   1       3.064   0.847  -0.001  0.00  0.00     0.105 C 
BRANCH   3   4
HETATM    4  C   UNK N   1       1.573   0.986  -0.000  0.00  0.00     0.217 C 
HETATM    5  N   UNK N   1       0.995   2.213   0.000  0.00  0.00    -0.365 N 
HETATM    6  C   UNK N   1      -0.433   2.390   0.000  0.00  0.00     0.149 C 
HETATM    7  H   UNK N   1       1.573   3.010   0.000  0.00  0.00     0.161 HD
HETATM    8  O   UNK N   1       0.882  -0.024  -0.000  0.00  0.00    -0.274 OA
ENDBRANCH   3   4
ENDBRANCH   2   3
ENDBRANCH   1   2
BRANCH   1   9
HETATM    9  N   UNK N   1       5.970   3.410   0.000  0.00  0.00    -0.418 N 
HETATM   10  H   UNK N   1       6.989   3.440   0.003  0.00  0.00     0.150 HD
HETATM   11  H   UNK N   1       5.434   4.278   0.000  0.00  0.00     0.150 HD
ENDBRANCH   1   9
BRANCH   1  12
HETATM   12  C   UNK N   1       6.140   0.895   0.000  0.00  0.00     0.163 C 
HETATM   13  O   UNK N   1       5.637  -0.217   0.001  0.00  0.00    -0.648 OA
BRANCH  12  14
HETATM   14  O   UNK N   1       7.481   1.013   0.000  0.00  0.00    -0.775 OA
HETATM   15  H   UNK N   1       8.019   0.246   0.000  0.00  0.00     0.167 HD
ENDBRANCH  12  14
ENDBRANCH   1  12
TORSDOF 6
