REMARK  6 active torsions:
REMARK  status: ('A' for Active; 'I' for Inactive)
REMARK    1  A    between atoms: O_1  and  C_2 
REMARK    2  A    between atoms: C_2  and  C_4 
REMARK    3  A    between atoms: C_4  and  C_5 
REMARK    4  A    between atoms: C_5  and  C_6 
REMARK    5  A    between atoms: C_6  and  C_7 
REMARK    6  A    between atoms: C_7  and  O_8 
ROOT
HETATM    1  C   UNK N   1       3.976   1.405  -0.000  0.00  0.00     0.021 C 
ENDROOT
BRANCH   1   2
HETATM    2  C   UNK N   1       2.743   2.285   0.000  0.00  0.00     0.110 C 
BRANCH   2   3
HETATM    3  C   UNK N   1       1.479   1.481  -0.000  0.00  0.00     0.139 C 
HETATM    4  O   UNK N   1       1.507   0.259  -0.000  0.00  0.00    -0.650 OA
BRANCH   3   5
HETATM    5  O   UNK N   1       0.295   2.119   0.000  0.00  0.00    -0.776 OA
HETATM    6  H   UNK N   1       0.267   3.055   0.000  0.00  0.00     0.167 HD
ENDBRANCH   3   5
ENDBRANCH   2   3
ENDBRANCH   1   2
BRANCH   1   7
HETATM    7  C   UNK N   1       5.218   2.272  -0.000  0.00  0.00     0.110 C 
BRANCH   7   8
HETATM    8  C   UNK N   1       6.471   1.451   0.000  0.00  0.00     0.139 C 
HETATM    9  O   UNK N   1       6.424   0.229   0.000  0.00  0.00    -0.650 OA
BRANCH   8  10
HETATM   10  O   UNK N   1       7.664   2.070   0.000  0.00  0.00    -0.776 OA
HETATM   11  H   UNK N   1       8.454   1.566  -0.000  0.00  0.00     0.167 HD
ENDBRANCH   8  10
ENDBRANCH   7   8
ENDBRANCH   1   7
TORSDOF 6
