REMARK  23 active torsions:
REMARK  status: ('A' for Active; 'I' for Inactive)
REMARK    1  A    between atoms: C_43  and  C_11 
REMARK    2  A    between atoms: C_14  and  C_12 
REMARK    3  A    between atoms: C_20  and  C_14 
REMARK    4  A    between atoms: C_21  and  C_15 
REMARK    5  A    between atoms: C_35  and  C_20 
REMARK    6  A    between atoms: C_28  and  C_27 
REMARK    7  A    between atoms: C_38  and  C_27 
REMARK    8  A    between atoms: C_45  and  C_28 
REMARK    9  A    between atoms: C_42  and  C_32 
REMARK   10  A    between atoms: C_47  and  C_32 
REMARK   11  A    between atoms: C_49  and  C_33 
REMARK   12  A    between atoms: C_51  and  C_33 
REMARK   13  A    between atoms: C_52  and  C_34 
REMARK   14  A    between atoms: C_49  and  C_35 
REMARK   15  A    between atoms: C_50  and  C_36 
REMARK   16  A    between atoms: O_70  and  C_44 
REMARK   17  A    between atoms: C_48  and  O_71 
REMARK   18  A    between atoms: C_49  and  O_72 
REMARK   19  A    between atoms: C_53  and  O_73 
REMARK   20  A    between atoms: C_54  and  O_74 
REMARK   21  A    between atoms: O_75  and  C_55 
REMARK   22  A    between atoms: C_56  and  O_76 
REMARK   23  A    between atoms: C_57  and  O_77 
ROOT
HETATM    1  C   UNK N   1       7.345   2.439   2.118  0.00  0.00     0.015 C 
HETATM    2  C   UNK N   1       5.950  -2.252  -1.440  0.00  0.00     0.027 C 
HETATM    3  C   UNK N   1       6.895  -1.550  -0.536  0.00  0.00    -0.028 C 
HETATM    4  C   UNK N   1       4.898  -1.561  -1.934  0.00  0.00     0.007 C 
HETATM    5  C   UNK N   1      -0.565   2.109  -0.017  0.00  0.00     0.024 C 
HETATM    6  C   UNK N   1       0.118   1.404   1.162  0.00  0.00     0.038 C 
HETATM    7  C   UNK N   1       6.976  -0.212  -0.513  0.00  0.00     0.001 C 
HETATM    8  C   UNK N   1       4.052  -0.736  -0.950  0.00  0.00     0.037 C 
HETATM    9  C   UNK N   1       0.478   2.708  -0.976  0.00  0.00     0.152 C 
HETATM   10  C   UNK N   1       7.241   1.983   0.668  0.00  0.00     0.044 C 
HETATM   11  C   UNK N   1       7.861   4.349  -0.383  0.00  0.00     0.089 C 
HETATM   12  C   UNK N   1       1.165   0.352   0.689  0.00  0.00     0.199 C 
HETATM   13  C   UNK N   1       2.901   4.153  -0.209  0.00  0.00     0.181 C 
HETATM   14  C   UNK N   1       7.583   0.474   0.660  0.00  0.00     0.146 C 
HETATM   15  C   UNK N   1       3.678  -1.386   0.405  0.00  0.00     0.160 C 
HETATM   16  C   UNK N   1       5.738   6.391   0.871  0.00  0.00     0.161 C 
HETATM   17  C   UNK N   1       8.142   2.810  -0.288  0.00  0.00     0.136 C 
HETATM   18  C   UNK N   1       7.866   5.001   0.983  0.00  0.00     0.118 C 
HETATM   19  C   UNK N   1       4.838   5.604  -0.070  0.00  0.00     0.135 C 
HETATM   20  C   UNK N   1       2.895   2.667  -0.446  0.00  0.00     0.261 C 
HETATM   21  C   UNK N   1       2.342   0.320   1.634  0.00  0.00     0.283 C 
HETATM   22  N   UNK N   1       4.113   4.658   0.419  0.00  0.00    -0.359 N 
ATOM     23  HN  UNK N   1       4.406   4.238   1.301  1.00  0.00     0.162 HD
HETATM   24  N   UNK N   1       6.923   5.758   1.454  0.00  0.00    -0.362 N 
ATOM     25  HN  UNK N   1       7.031   5.957   2.448  1.00  0.00     0.162 HD
HETATM   26  N   UNK N   1       1.664   0.634  -0.672  0.00  0.00    -0.317 N 
HETATM   27  N   UNK N   1       1.735   2.015  -0.796  0.00  0.00    -0.263 N 
HETATM   28  O   UNK N   1       3.912   2.031  -0.244  0.00  0.00    -0.269 OA
HETATM   29  O   UNK N   1       2.373   1.076   2.596  0.00  0.00    -0.263 OA
HETATM   30  O   UNK N   1       3.401  -0.497   1.432  0.00  0.00    -0.310 OA
HETATM   31  H   UNK N   1       1.909  -0.053  -1.384  0.00  0.00     0.181 HD
ENDROOT
BRANCH  15  32
HETATM   32  C   UNK N   1       2.827  -2.622   0.381  0.00  0.00    -0.055 C 
HETATM   33  C   UNK N   1       2.535  -3.251   1.714  0.00  0.00     0.046 C 
HETATM   34  C   UNK N   1       2.590  -3.248  -0.804  0.00  0.00     0.005 C 
BRANCH  34  35
HETATM   35  C   UNK N   1       2.453  -4.713  -0.943  0.00  0.00    -0.004 C 
HETATM   36  C   UNK N   1       3.114  -5.516  -0.083  0.00  0.00    -0.027 C 
BRANCH  36  37
HETATM   37  C   UNK N   1       3.271  -6.979  -0.274  0.00  0.00     0.027 C 
BRANCH  37  38
HETATM   38  C   UNK N   1       1.992  -7.783  -0.311  0.00  0.00     0.010 C 
BRANCH  38  39
HETATM   39  C   UNK N   1       1.043  -7.651   0.886  0.00  0.00     0.011 C 
HETATM   40  C   UNK N   1       0.318  -8.980   0.973  0.00  0.00     0.012 C 
BRANCH  39  41
HETATM   41  C   UNK N   1       0.005  -6.515   0.713  0.00  0.00     0.124 C 
BRANCH  41  42
HETATM   42  C   UNK N   1      -0.517  -6.520  -0.743  0.00  0.00     0.064 C 
BRANCH  42  43
HETATM   43  C   UNK N   1      -1.474  -5.463  -1.339  0.00  0.00     0.133 C 
HETATM   44  C   UNK N   1      -1.420  -4.009  -0.815  0.00  0.00     0.040 C 
HETATM   45  C   UNK N   1      -2.047  -3.077  -1.856  0.00  0.00     0.015 C 
HETATM   46  C   UNK N   1      -2.180  -3.910   0.513  0.00  0.00     0.132 C 
HETATM   47  C   UNK N   1      -3.604  -4.447   0.319  0.00  0.00     0.067 C 
HETATM   48  C   UNK N   1      -4.351  -4.403   1.652  0.00  0.00     0.017 C 
HETATM   49  C   UNK N   1      -3.596  -5.890  -0.296  0.00  0.00     0.145 C 
HETATM   50  C   UNK N   1      -5.064  -6.237  -0.690  0.00  0.00     0.038 C 
HETATM   51  N   UNK N   1      -3.075  -6.855   0.674  0.00  0.00    -0.342 N 
HETATM   52  O   UNK N   1      -2.803  -5.955  -1.482  0.00  0.00    -0.354 OA
HETATM   53  C   UNK N   1      -5.524  -5.473  -1.924  0.00  0.00     0.015 C 
HETATM   54  C   UNK N   1      -5.184  -7.719  -0.946  0.00  0.00     0.022 C 
HETATM   55  C   UNK N   1      -4.911  -8.463   0.361  0.00  0.00     0.060 C 
HETATM   56  C   UNK N   1      -3.625  -7.982   1.000  0.00  0.00     0.117 C 
ATOM     57  HN  UNK N   1      -2.197  -6.618   1.136  1.00  0.00     0.164 HD
BRANCH  46  58
HETATM   58  O   UNK N   1      -2.213  -2.581   0.951  0.00  0.00    -0.395 OA
HETATM   59  H   UNK N   1      -1.426  -2.101   1.254  0.00  0.00     0.210 HD
ENDBRANCH  46  58
BRANCH  55  60
HETATM   60  C   UNK N   1      -4.865  -9.961   0.084  0.00  0.00     0.008 C 
HETATM   61  C   UNK N   1      -6.245 -10.488  -0.290  0.00  0.00     0.006 C 
ENDBRANCH  55  60
BRANCH  56  62
HETATM   62  O   UNK N   1      -3.058  -8.726   1.971  0.00  0.00    -0.349 OA
HETATM   63  H   UNK N   1      -3.309  -9.325   2.646  0.00  0.00     0.219 HD
ENDBRANCH  56  62
ENDBRANCH  42  43
ENDBRANCH  41  42
BRANCH  41  64
HETATM   64  O   UNK N   1       0.590  -5.293   1.016  0.00  0.00    -0.395 OA
HETATM   65  H   UNK N   1       1.534  -5.221   1.229  0.00  0.00     0.210 HD
ENDBRANCH  41  64
ENDBRANCH  39  41
ENDBRANCH  38  39
ENDBRANCH  37  38
ENDBRANCH  36  37
ENDBRANCH  34  35
ENDBRANCH  15  32
BRANCH  14  66
HETATM   66  O   UNK N   1       8.956   0.229   0.758  0.00  0.00    -0.391 OA
HETATM   67  H   UNK N   1       9.286  -0.681   0.825  0.00  0.00     0.210 HD
ENDBRANCH  14  66
BRANCH  13  68
HETATM   68  C   UNK N   1       1.809   4.419   0.821  0.00  0.00     0.073 C 
BRANCH  68  69
HETATM   69  C   UNK N   1       1.215   5.765   0.677  0.00  0.00    -0.053 A 
HETATM   70  C   UNK N   1       1.912   6.912   1.067  0.00  0.00     0.007 A 
HETATM   71  C   UNK N   1       1.321   8.168   0.906  0.00  0.00     0.003 A 
HETATM   72  C   UNK N   1       0.040   8.271   0.350  0.00  0.00     0.036 A 
HETATM   73  C   UNK N   1      -0.649   7.118  -0.040  0.00  0.00     0.066 A 
HETATM   74  C   UNK N   1      -0.062   5.868   0.128  0.00  0.00     0.043 A 
BRANCH  73  75
HETATM   75  O   UNK N   1      -1.874   7.212  -0.579  0.00  0.00    -0.361 OA
HETATM   76  H   UNK N   1      -2.245   7.985  -0.956  0.00  0.00     0.217 HD
ENDBRANCH  73  75
ENDBRANCH  68  69
ENDBRANCH  13  68
BRANCH  17  77
HETATM   77  O   UNK N   1       8.090   2.274  -1.579  0.00  0.00    -0.394 OA
HETATM   78  H   UNK N   1       7.750   2.120  -2.474  0.00  0.00     0.210 HD
ENDBRANCH  17  77
BRANCH  11  79
HETATM   79  C   UNK N   1       8.886   5.085  -1.278  0.00  0.00     0.022 C 
BRANCH  79  80
HETATM   80  C   UNK N   1      10.240   4.412  -1.575  0.00  0.00     0.079 C 
BRANCH  80  81
HETATM   81  C   UNK N   1      11.142   4.232  -0.391  0.00  0.00     0.123 C 
HETATM   82  C   UNK N   1      11.593   5.405   0.409  0.00  0.00     0.091 C 
HETATM   83  O   UNK N   1      11.552   3.117  -0.108  0.00  0.00    -0.298 OA
ENDBRANCH  80  81
ENDBRANCH  79  80
ENDBRANCH  11  79
BRANCH  19  84
HETATM   84  O   UNK N   1       4.609   6.065  -1.322  0.00  0.00    -0.348 OA
HETATM   85  H   UNK N   1       4.806   6.362  -2.188  0.00  0.00     0.219 HD
ENDBRANCH  19  84
BRANCH  18  86
HETATM   86  O   UNK N   1       8.925   4.760   1.781  0.00  0.00    -0.349 OA
HETATM   87  H   UNK N   1       9.149   4.039   2.336  0.00  0.00     0.219 HD
ENDBRANCH  18  86
BRANCH  16  88
HETATM   88  C   UNK N   1       6.094   7.804   0.356  0.00  0.00     0.008 C 
HETATM   89  C   UNK N   1       4.848   8.598  -0.024  0.00  0.00     0.012 C 
HETATM   90  C   UNK N   1       6.801   8.604   1.443  0.00  0.00     0.012 C 
ENDBRANCH  16  88
TORSDOF 23
