MODEL 1
REMARK VINA RESULT:      -4.0      0.000      0.000
REMARK  5 active torsions:
REMARK  status: ('A' for Active; 'I' for Inactive)
REMARK    1  A    between atoms: C_2  and  C_1 
REMARK    2  A    between atoms: O_4  and  C_1 
REMARK    3  A    between atoms: C_3  and  C_2 
REMARK    4  A    between atoms: C_2  and  N_6 
REMARK    5  A    between atoms: S_7  and  C_3 
ROOT
HETATM    1  C   UNK N   1      20.807  19.615   1.769  0.00  0.00     0.184 C 
ENDROOT
BRANCH   1   2
HETATM    2  C   UNK N   1      21.007  20.571   2.910  0.00  0.00     0.163 C 
HETATM    3  O   UNK N   1      20.565  20.306   4.018  0.00  0.00    -0.648 OA
BRANCH   2   4
HETATM    4  O   UNK N   1      21.785  21.659   2.751  0.00  0.00    -0.775 OA
HETATM    5  H   UNK N   1      22.607  21.719   3.195  0.00  0.00     0.167 HD
ENDBRANCH   2   4
ENDBRANCH   1   2
BRANCH   1   6
HETATM    6  C   UNK N   1      19.731  18.587   2.073  0.00  0.00     0.141 C 
BRANCH   6   7
HETATM    7  S   UNK N   1      20.239  16.972   1.419  0.00  0.00     0.007 S 
HETATM    8  O   UNK N   1      20.364  17.528  -0.007  0.00  0.00    -0.261 OA
HETATM    9  H   UNK N   1      21.589  17.237   1.710  0.00  0.00     0.138 HD
ENDBRANCH   6   7
ENDBRANCH   1   6
BRANCH   1  10
HETATM   10  N   UNK N   1      20.470  20.339   0.552  0.00  0.00    -0.417 N 
HETATM   11  H   UNK N   1      20.086  21.284   0.546  0.00  0.00     0.150 HD
HETATM   12  H   UNK N   1      20.626  19.876  -0.344  0.00  0.00     0.150 HD
ENDBRANCH   1  10
TORSDOF 5
ENDMDL
MODEL 2
REMARK VINA RESULT:      -3.9     15.314     15.856
REMARK  5 active torsions:
REMARK  status: ('A' for Active; 'I' for Inactive)
REMARK    1  A    between atoms: C_2  and  C_1 
REMARK    2  A    between atoms: O_4  and  C_1 
REMARK    3  A    between atoms: C_3  and  C_2 
REMARK    4  A    between atoms: C_2  and  N_6 
REMARK    5  A    between atoms: S_7  and  C_3 
ROOT
HETATM    1  C   UNK N   1      33.849  16.703   8.233  0.00  0.00     0.184 C 
ENDROOT
BRANCH   1   2
HETATM    2  C   UNK N   1      34.378  17.928   7.544  0.00  0.00     0.163 C 
HETATM    3  O   UNK N   1      34.261  18.051   6.333  0.00  0.00    -0.648 OA
BRANCH   2   4
HETATM    4  O   UNK N   1      34.866  18.953   8.269  0.00  0.00    -0.775 OA
HETATM    5  H   UNK N   1      35.790  19.047   8.390  0.00  0.00     0.167 HD
ENDBRANCH   2   4
ENDBRANCH   1   2
BRANCH   1   6
HETATM    6  C   UNK N   1      34.967  15.836   8.786  0.00  0.00     0.141 C 
BRANCH   6   7
HETATM    7  S   UNK N   1      34.994  15.972  10.596  0.00  0.00     0.007 S 
HETATM    8  O   UNK N   1      35.703  17.333  10.536  0.00  0.00    -0.261 OA
HETATM    9  H   UNK N   1      33.718  16.565  10.608  0.00  0.00     0.138 HD
ENDBRANCH   6   7
ENDBRANCH   1   6
BRANCH   1  10
HETATM   10  N   UNK N   1      32.936  17.075   9.303  0.00  0.00    -0.417 N 
HETATM   11  H   UNK N   1      33.238  17.498  10.182  0.00  0.00     0.150 HD
HETATM   12  H   UNK N   1      31.939  16.905   9.169  0.00  0.00     0.150 HD
ENDBRANCH   1  10
TORSDOF 5
ENDMDL
MODEL 3
REMARK VINA RESULT:      -3.9     15.266     15.474
REMARK  5 active torsions:
REMARK  status: ('A' for Active; 'I' for Inactive)
REMARK    1  A    between atoms: C_2  and  C_1 
REMARK    2  A    between atoms: O_4  and  C_1 
REMARK    3  A    between atoms: C_3  and  C_2 
REMARK    4  A    between atoms: C_2  and  N_6 
REMARK    5  A    between atoms: S_7  and  C_3 
ROOT
HETATM    1  C   UNK N   1      34.196  17.095   9.004  0.00  0.00     0.184 C 
ENDROOT
BRANCH   1   2
HETATM    2  C   UNK N   1      34.623  18.225   8.112  0.00  0.00     0.163 C 
HETATM    3  O   UNK N   1      35.244  19.172   8.574  0.00  0.00    -0.648 OA
BRANCH   2   4
HETATM    4  O   UNK N   1      34.440  18.141   6.780  0.00  0.00    -0.775 OA
HETATM    5  H   UNK N   1      35.107  17.774   6.235  0.00  0.00     0.167 HD
ENDBRANCH   2   4
ENDBRANCH   1   2
BRANCH   1   6
HETATM    6  C   UNK N   1      34.481  15.740   8.380  0.00  0.00     0.141 C 
BRANCH   6   7
HETATM    7  S   UNK N   1      32.928  14.815   8.213  0.00  0.00     0.007 S 
HETATM    8  O   UNK N   1      32.461  15.242   9.612  0.00  0.00    -0.261 OA
HETATM    9  H   UNK N   1      32.298  15.912   7.597  0.00  0.00     0.138 HD
ENDBRANCH   6   7
ENDBRANCH   1   6
BRANCH   1  10
HETATM   10  N   UNK N   1      34.857  17.191  10.298  0.00  0.00    -0.417 N 
HETATM   11  H   UNK N   1      34.387  17.501  11.150  0.00  0.00     0.150 HD
HETATM   12  H   UNK N   1      35.842  16.934  10.358  0.00  0.00     0.150 HD
ENDBRANCH   1  10
TORSDOF 5
ENDMDL
MODEL 4
REMARK VINA RESULT:      -3.7      2.226      3.686
REMARK  5 active torsions:
REMARK  status: ('A' for Active; 'I' for Inactive)
REMARK    1  A    between atoms: C_2  and  C_1 
REMARK    2  A    between atoms: O_4  and  C_1 
REMARK    3  A    between atoms: C_3  and  C_2 
REMARK    4  A    between atoms: C_2  and  N_6 
REMARK    5  A    between atoms: S_7  and  C_3 
ROOT
HETATM    1  C   UNK N   1      19.981  17.775   2.204  0.00  0.00     0.184 C 
ENDROOT
BRANCH   1   2
HETATM    2  C   UNK N   1      20.318  17.342   0.806  0.00  0.00     0.163 C 
HETATM    3  O   UNK N   1      20.437  16.154   0.543  0.00  0.00    -0.648 OA
BRANCH   2   4
HETATM    4  O   UNK N   1      20.363  18.248  -0.190  0.00  0.00    -0.775 OA
HETATM    5  H   UNK N   1      20.244  19.158  -0.004  0.00  0.00     0.167 HD
ENDBRANCH   2   4
ENDBRANCH   1   2
BRANCH   1   6
HETATM    6  C   UNK N   1      21.120  18.544   2.850  0.00  0.00     0.141 C 
BRANCH   6   7
HETATM    7  S   UNK N   1      20.684  20.304   2.940  0.00  0.00     0.007 S 
HETATM    8  O   UNK N   1      21.287  20.579   1.555  0.00  0.00    -0.261 OA
HETATM    9  H   UNK N   1      19.407  20.053   2.407  0.00  0.00     0.138 HD
ENDBRANCH   6   7
ENDBRANCH   1   6
BRANCH   1  10
HETATM   10  N   UNK N   1      18.772  18.587   2.208  0.00  0.00    -0.417 N 
HETATM   11  H   UNK N   1      18.692  19.478   2.699  0.00  0.00     0.150 HD
HETATM   12  H   UNK N   1      17.961  18.247   1.692  0.00  0.00     0.150 HD
ENDBRANCH   1  10
TORSDOF 5
ENDMDL
MODEL 5
REMARK VINA RESULT:      -3.7      2.134      2.453
REMARK  5 active torsions:
REMARK  status: ('A' for Active; 'I' for Inactive)
REMARK    1  A    between atoms: C_2  and  C_1 
REMARK    2  A    between atoms: O_4  and  C_1 
REMARK    3  A    between atoms: C_3  and  C_2 
REMARK    4  A    between atoms: C_2  and  N_6 
REMARK    5  A    between atoms: S_7  and  C_3 
ROOT
HETATM    1  C   UNK N   1      20.522  19.225   2.103  0.00  0.00     0.184 C 
ENDROOT
BRANCH   1   2
HETATM    2  C   UNK N   1      20.841  20.450   1.295  0.00  0.00     0.163 C 
HETATM    3  O   UNK N   1      21.431  21.389   1.810  0.00  0.00    -0.648 OA
BRANCH   2   4
HETATM    4  O   UNK N   1      20.597  20.469  -0.030  0.00  0.00    -0.775 OA
HETATM    5  H   UNK N   1      21.292  20.318  -0.639  0.00  0.00     0.167 HD
ENDBRANCH   2   4
ENDBRANCH   1   2
BRANCH   1   6
HETATM    6  C   UNK N   1      21.232  19.230   3.445  0.00  0.00     0.141 C 
BRANCH   6   7
HETATM    7  S   UNK N   1      21.962  17.596   3.746  0.00  0.00     0.007 S 
HETATM    8  O   UNK N   1      21.100  16.950   2.652  0.00  0.00    -0.261 OA
HETATM    9  H   UNK N   1      23.015  17.861   2.851  0.00  0.00     0.138 HD
ENDBRANCH   6   7
ENDBRANCH   1   6
BRANCH   1  10
HETATM   10  N   UNK N   1      19.084  19.109   2.304  0.00  0.00    -0.417 N 
HETATM   11  H   UNK N   1      18.599  19.464   3.128  0.00  0.00     0.150 HD
HETATM   12  H   UNK N   1      18.532  18.646   1.582  0.00  0.00     0.150 HD
ENDBRANCH   1  10
TORSDOF 5
ENDMDL
MODEL 6
REMARK VINA RESULT:      -3.6     14.166     14.548
REMARK  5 active torsions:
REMARK  status: ('A' for Active; 'I' for Inactive)
REMARK    1  A    between atoms: C_2  and  C_1 
REMARK    2  A    between atoms: O_4  and  C_1 
REMARK    3  A    between atoms: C_3  and  C_2 
REMARK    4  A    between atoms: C_2  and  N_6 
REMARK    5  A    between atoms: S_7  and  C_3 
ROOT
HETATM    1  C   UNK N   1      33.184  17.685   8.655  0.00  0.00     0.184 C 
ENDROOT
BRANCH   1   2
HETATM    2  C   UNK N   1      34.297  18.318   7.871  0.00  0.00     0.163 C 
HETATM    3  O   UNK N   1      35.053  19.114   8.409  0.00  0.00    -0.648 OA
BRANCH   2   4
HETATM    4  O   UNK N   1      34.550  17.915   6.610  0.00  0.00    -0.775 OA
HETATM    5  H   UNK N   1      35.173  17.235   6.449  0.00  0.00     0.167 HD
ENDBRANCH   2   4
ENDBRANCH   1   2
BRANCH   1   6
HETATM    6  C   UNK N   1      32.111  17.105   7.750  0.00  0.00     0.141 C 
BRANCH   6   7
HETATM    7  S   UNK N   1      32.156  15.294   7.845  0.00  0.00     0.007 S 
HETATM    8  O   UNK N   1      33.235  15.209   6.757  0.00  0.00    -0.261 OA
HETATM    9  H   UNK N   1      33.110  15.335   8.879  0.00  0.00     0.138 HD
ENDBRANCH   6   7
ENDBRANCH   1   6
BRANCH   1  10
HETATM   10  N   UNK N   1      33.706  16.645   9.531  0.00  0.00    -0.417 N 
HETATM   11  H   UNK N   1      33.214  15.772   9.725  0.00  0.00     0.150 HD
HETATM   12  H   UNK N   1      34.611  16.798   9.975  0.00  0.00     0.150 HD
ENDBRANCH   1  10
TORSDOF 5
ENDMDL
MODEL 7
REMARK VINA RESULT:      -3.6     22.645     23.288
REMARK  5 active torsions:
REMARK  status: ('A' for Active; 'I' for Inactive)
REMARK    1  A    between atoms: C_2  and  C_1 
REMARK    2  A    between atoms: O_4  and  C_1 
REMARK    3  A    between atoms: C_3  and  C_2 
REMARK    4  A    between atoms: C_2  and  N_6 
REMARK    5  A    between atoms: S_7  and  C_3 
ROOT
HETATM    1  C   UNK N   1      43.765  22.821   3.104  0.00  0.00     0.184 C 
ENDROOT
BRANCH   1   2
HETATM    2  C   UNK N   1      44.735  21.852   3.716  0.00  0.00     0.163 C 
HETATM    3  O   UNK N   1      44.550  20.648   3.610  0.00  0.00    -0.648 OA
BRANCH   2   4
HETATM    4  O   UNK N   1      45.879  22.299   4.269  0.00  0.00    -0.775 OA
HETATM    5  H   UNK N   1      46.638  22.433   3.738  0.00  0.00     0.167 HD
ENDBRANCH   2   4
ENDBRANCH   1   2
BRANCH   1   6
HETATM    6  C   UNK N   1      42.437  22.162   2.773  0.00  0.00     0.141 C 
BRANCH   6   7
HETATM    7  S   UNK N   1      41.842  22.777   1.173  0.00  0.00     0.007 S 
HETATM    8  O   UNK N   1      41.388  24.107   1.791  0.00  0.00    -0.261 OA
HETATM    9  H   UNK N   1      43.114  23.285   0.853  0.00  0.00     0.138 HD
ENDBRANCH   6   7
ENDBRANCH   1   6
BRANCH   1  10
HETATM   10  N   UNK N   1      43.547  23.953   3.994  0.00  0.00    -0.417 N 
HETATM   11  H   UNK N   1      42.748  24.584   3.919  0.00  0.00     0.150 HD
HETATM   12  H   UNK N   1      44.229  24.124   4.733  0.00  0.00     0.150 HD
ENDBRANCH   1  10
TORSDOF 5
ENDMDL
MODEL 8
REMARK VINA RESULT:      -3.6     15.062     15.493
REMARK  5 active torsions:
REMARK  status: ('A' for Active; 'I' for Inactive)
REMARK    1  A    between atoms: C_2  and  C_1 
REMARK    2  A    between atoms: O_4  and  C_1 
REMARK    3  A    between atoms: C_3  and  C_2 
REMARK    4  A    between atoms: C_2  and  N_6 
REMARK    5  A    between atoms: S_7  and  C_3 
ROOT
HETATM    1  C   UNK N   1      34.534  17.606   8.545  0.00  0.00     0.184 C 
ENDROOT
BRANCH   1   2
HETATM    2  C   UNK N   1      34.860  16.915   9.837  0.00  0.00     0.163 C 
HETATM    3  O   UNK N   1      35.823  17.274  10.501  0.00  0.00    -0.648 OA
BRANCH   2   4
HETATM    4  O   UNK N   1      34.023  15.985  10.337  0.00  0.00    -0.775 OA
HETATM    5  H   UNK N   1      34.356  15.285  10.862  0.00  0.00     0.167 HD
ENDBRANCH   2   4
ENDBRANCH   1   2
BRANCH   1   6
HETATM    6  C   UNK N   1      33.045  17.575   8.245  0.00  0.00     0.141 C 
BRANCH   6   7
HETATM    7  S   UNK N   1      32.793  17.236   6.481  0.00  0.00     0.007 S 
HETATM    8  O   UNK N   1      34.161  17.828   6.115  0.00  0.00    -0.261 OA
HETATM    9  H   UNK N   1      33.318  15.937   6.617  0.00  0.00     0.138 HD
ENDBRANCH   6   7
ENDBRANCH   1   6
BRANCH   1  10
HETATM   10  N   UNK N   1      35.005  18.983   8.571  0.00  0.00    -0.417 N 
HETATM   11  H   UNK N   1      34.688  19.700   7.917  0.00  0.00     0.150 HD
HETATM   12  H   UNK N   1      35.688  19.246   9.281  0.00  0.00     0.150 HD
ENDBRANCH   1  10
TORSDOF 5
ENDMDL
MODEL 9
REMARK VINA RESULT:      -3.6     14.990     15.457
REMARK  5 active torsions:
REMARK  status: ('A' for Active; 'I' for Inactive)
REMARK    1  A    between atoms: C_2  and  C_1 
REMARK    2  A    between atoms: O_4  and  C_1 
REMARK    3  A    between atoms: C_3  and  C_2 
REMARK    4  A    between atoms: C_2  and  N_6 
REMARK    5  A    between atoms: S_7  and  C_3 
ROOT
HETATM    1  C   UNK N   1      33.908  16.276   9.165  0.00  0.00     0.184 C 
ENDROOT
BRANCH   1   2
HETATM    2  C   UNK N   1      33.262  15.082   9.807  0.00  0.00     0.163 C 
HETATM    3  O   UNK N   1      32.823  14.175   9.116  0.00  0.00    -0.648 OA
BRANCH   2   4
HETATM    4  O   UNK N   1      33.280  14.944  11.147  0.00  0.00    -0.775 OA
HETATM    5  H   UNK N   1      34.096  14.889  11.604  0.00  0.00     0.167 HD
ENDBRANCH   2   4
ENDBRANCH   1   2
BRANCH   1   6
HETATM    6  C   UNK N   1      32.894  17.156   8.454  0.00  0.00     0.141 C 
BRANCH   6   7
HETATM    7  S   UNK N   1      33.498  17.545   6.787  0.00  0.00     0.007 S 
HETATM    8  O   UNK N   1      34.682  18.348   7.345  0.00  0.00    -0.261 OA
HETATM    9  H   UNK N   1      34.245  16.354   6.739  0.00  0.00     0.138 HD
ENDBRANCH   6   7
ENDBRANCH   1   6
BRANCH   1  10
HETATM   10  N   UNK N   1      34.632  17.059  10.156  0.00  0.00    -0.417 N 
HETATM   11  H   UNK N   1      34.482  16.973  11.162  0.00  0.00     0.150 HD
HETATM   12  H   UNK N   1      35.328  17.729   9.829  0.00  0.00     0.150 HD
ENDBRANCH   1  10
TORSDOF 5
ENDMDL
