MODEL 1
REMARK VINA RESULT:      -6.1      0.000      0.000
REMARK  10 active torsions:
REMARK  status: ('A' for Active; 'I' for Inactive)
REMARK    1  A    between atoms: C_8  and  C_3 
REMARK    2  A    between atoms: N_14  and  C_3 
REMARK    3  A    between atoms: C_7  and  C_4 
REMARK    4  A    between atoms: O_24  and  C_4 
REMARK    5  A    between atoms: N_14  and  C_9 
REMARK    6  A    between atoms: O_18  and  C_10 
REMARK    7  A    between atoms: O_19  and  C_11 
REMARK    8  A    between atoms: P_25  and  O_20 
REMARK    9  A    between atoms: P_25  and  O_21 
REMARK   10  A    between atoms: P_25  and  O_24 
ROOT
HETATM    1  C   UNK N   1      25.255  22.538  -8.127  0.00  0.00     0.071 C 
HETATM    2  C   UNK N   1      28.609  22.111  -6.572  0.00  0.00     0.098 A 
HETATM    3  C   UNK N   1      26.416  22.742  -7.215  0.00  0.00     0.039 A 
HETATM    4  C   UNK N   1      28.639  23.090  -5.581  0.00  0.00    -0.008 A 
HETATM    5  C   UNK N   1      27.516  23.923  -5.390  0.00  0.00     0.004 A 
HETATM    6  C   UNK N   1      26.386  23.741  -6.229  0.00  0.00     0.096 A 
HETATM    7  N   UNK N   1      27.513  21.955  -7.356  0.00  0.00    -0.367 N 
ATOM      8  HN  UNK N   1      27.513  21.227  -8.072  1.00  0.00     0.165 HD
ENDROOT
BRANCH   5   9
HETATM    9  C   UNK N   1      27.598  24.981  -4.313  0.00  0.00     0.162 C 
BRANCH   9  10
HETATM   10  N   UNK N   1      27.711  26.341  -4.779  0.00  0.00    -0.384 N 
ATOM     11  HN  UNK N   1      28.285  26.545  -5.597  1.00  0.00     0.160 HD
BRANCH  10  12
HETATM   12  C   UNK N   1      27.099  27.304  -4.181  0.00  0.00     0.085 A 
HETATM   13  C   UNK N   1      27.674  28.175  -3.111  0.00  0.00     0.262 A 
HETATM   14  O   UNK N   1      26.571  28.993  -2.845  0.00  0.00    -0.272 OA
HETATM   15  N   UNK N   1      25.509  28.711  -3.583  0.00  0.00    -0.243 N 
HETATM   16  C   UNK N   1      25.745  27.751  -4.373  0.00  0.00     0.185 A 
ATOM     17  HN  UNK N   1      24.618  29.202  -3.523  1.00  0.00     0.196 HD
BRANCH  16  18
HETATM   18  O   UNK N   1      24.834  27.255  -5.233  0.00  0.00    -0.343 OA
HETATM   19  H   UNK N   1      24.120  26.711  -4.960  0.00  0.00     0.219 HD
ENDBRANCH  16  18
ENDBRANCH  10  12
ENDBRANCH   9  10
ENDBRANCH   5   9
BRANCH   4  20
HETATM   20  C   UNK N   1      29.905  23.254  -4.794  0.00  0.00     0.221 C 
BRANCH  20  21
HETATM   21  O   UNK N   1      29.981  22.355  -3.724  0.00  0.00    -0.292 OA
BRANCH  21  22
HETATM   22  P   UNK N   1      31.668  22.343  -3.288  0.00  0.00     0.391 P 
HETATM   23  O   UNK N   1      31.010  22.852  -1.979  0.00  0.00    -0.632 OA
BRANCH  22  24
HETATM   24  O   UNK N   1      32.286  21.239  -2.101  0.00  0.00    -0.307 OA
HETATM   25  H   UNK N   1      32.703  20.374  -2.237  0.00  0.00     0.222 HD
ENDBRANCH  22  24
BRANCH  22  26
HETATM   26  O   UNK N   1      31.150  20.713  -3.598  0.00  0.00    -0.307 OA
HETATM   27  H   UNK N   1      31.228  20.230  -4.435  0.00  0.00     0.222 HD
ENDBRANCH  22  26
ENDBRANCH  21  22
ENDBRANCH  20  21
ENDBRANCH   4  20
BRANCH   6  28
HETATM   28  O   UNK N   1      25.292  24.517  -6.110  0.00  0.00    -0.358 OA
HETATM   29  H   UNK N   1      24.547  24.231  -5.618  0.00  0.00     0.217 HD
ENDBRANCH   6  28
TORSDOF 10
ENDMDL
MODEL 2
REMARK VINA RESULT:      -6.0     13.979     15.738
REMARK  10 active torsions:
REMARK  status: ('A' for Active; 'I' for Inactive)
REMARK    1  A    between atoms: C_8  and  C_3 
REMARK    2  A    between atoms: N_14  and  C_3 
REMARK    3  A    between atoms: C_7  and  C_4 
REMARK    4  A    between atoms: O_24  and  C_4 
REMARK    5  A    between atoms: N_14  and  C_9 
REMARK    6  A    between atoms: O_18  and  C_10 
REMARK    7  A    between atoms: O_19  and  C_11 
REMARK    8  A    between atoms: P_25  and  O_20 
REMARK    9  A    between atoms: P_25  and  O_21 
REMARK   10  A    between atoms: P_25  and  O_24 
ROOT
HETATM    1  C   UNK N   1      33.106  16.102   3.363  0.00  0.00     0.071 C 
HETATM    2  C   UNK N   1      34.939  15.648   6.570  0.00  0.00     0.098 A 
HETATM    3  C   UNK N   1      33.463  16.221   4.805  0.00  0.00     0.039 A 
HETATM    4  C   UNK N   1      34.218  16.428   7.474  0.00  0.00    -0.008 A 
HETATM    5  C   UNK N   1      33.072  17.125   7.034  0.00  0.00     0.004 A 
HETATM    6  C   UNK N   1      32.694  17.017   5.670  0.00  0.00     0.096 A 
HETATM    7  N   UNK N   1      34.551  15.558   5.273  0.00  0.00    -0.367 N 
ATOM      8  HN  UNK N   1      35.091  14.976   4.632  1.00  0.00     0.165 HD
ENDROOT
BRANCH   5   9
HETATM    9  C   UNK N   1      32.330  17.970   8.045  0.00  0.00     0.162 C 
BRANCH   9  10
HETATM   10  N   UNK N   1      31.339  17.278   8.831  0.00  0.00    -0.384 N 
ATOM     11  HN  UNK N   1      31.627  16.511   9.439  1.00  0.00     0.160 HD
BRANCH  10  12
HETATM   12  C   UNK N   1      30.096  17.612   8.781  0.00  0.00     0.085 A 
HETATM   13  C   UNK N   1      29.367  18.426   9.801  0.00  0.00     0.262 A 
HETATM   14  O   UNK N   1      28.089  18.438   9.233  0.00  0.00    -0.272 OA
HETATM   15  N   UNK N   1      28.007  17.774   8.090  0.00  0.00    -0.243 N 
HETATM   16  C   UNK N   1      29.126  17.275   7.773  0.00  0.00     0.185 A 
ATOM     17  HN  UNK N   1      27.155  17.676   7.539  1.00  0.00     0.196 HD
BRANCH  16  18
HETATM   18  O   UNK N   1      29.323  16.542   6.659  0.00  0.00    -0.343 OA
HETATM   19  H   UNK N   1      30.026  16.705   6.060  0.00  0.00     0.219 HD
ENDBRANCH  16  18
ENDBRANCH  10  12
ENDBRANCH   9  10
ENDBRANCH   5   9
BRANCH   4  20
HETATM   20  C   UNK N   1      34.738  16.538   8.876  0.00  0.00     0.221 C 
BRANCH  20  21
HETATM   21  O   UNK N   1      34.089  15.659   9.750  0.00  0.00    -0.292 OA
BRANCH  21  22
HETATM   22  P   UNK N   1      35.231  15.413  11.042  0.00  0.00     0.391 P 
HETATM   23  O   UNK N   1      35.954  14.731   9.851  0.00  0.00    -0.632 OA
BRANCH  22  24
HETATM   24  O   UNK N   1      36.779  16.198  11.040  0.00  0.00    -0.307 OA
HETATM   25  H   UNK N   1      37.525  16.066  10.435  0.00  0.00     0.222 HD
ENDBRANCH  22  24
BRANCH  22  26
HETATM   26  O   UNK N   1      35.085  17.116  10.730  0.00  0.00    -0.307 OA
HETATM   27  H   UNK N   1      35.686  17.661  10.199  0.00  0.00     0.222 HD
ENDBRANCH  22  26
ENDBRANCH  21  22
ENDBRANCH  20  21
ENDBRANCH   4  20
BRANCH   6  28
HETATM   28  O   UNK N   1      31.624  17.673   5.186  0.00  0.00    -0.358 OA
HETATM   29  H   UNK N   1      30.783  17.259   5.137  0.00  0.00     0.217 HD
ENDBRANCH   6  28
TORSDOF 10
ENDMDL
MODEL 3
REMARK VINA RESULT:      -6.0     14.613     16.915
REMARK  10 active torsions:
REMARK  status: ('A' for Active; 'I' for Inactive)
REMARK    1  A    between atoms: C_8  and  C_3 
REMARK    2  A    between atoms: N_14  and  C_3 
REMARK    3  A    between atoms: C_7  and  C_4 
REMARK    4  A    between atoms: O_24  and  C_4 
REMARK    5  A    between atoms: N_14  and  C_9 
REMARK    6  A    between atoms: O_18  and  C_10 
REMARK    7  A    between atoms: O_19  and  C_11 
REMARK    8  A    between atoms: P_25  and  O_20 
REMARK    9  A    between atoms: P_25  and  O_21 
REMARK   10  A    between atoms: P_25  and  O_24 
ROOT
HETATM    1  C   UNK N   1      33.835  14.595   4.266  0.00  0.00     0.071 C 
HETATM    2  C   UNK N   1      31.339  16.454   6.306  0.00  0.00     0.098 A 
HETATM    3  C   UNK N   1      33.263  15.497   5.305  0.00  0.00     0.039 A 
HETATM    4  C   UNK N   1      32.119  17.129   7.245  0.00  0.00    -0.008 A 
HETATM    5  C   UNK N   1      33.523  16.993   7.211  0.00  0.00     0.004 A 
HETATM    6  C   UNK N   1      34.100  16.156   6.220  0.00  0.00     0.096 A 
HETATM    7  N   UNK N   1      31.918  15.666   5.366  0.00  0.00    -0.367 N 
ATOM      8  HN  UNK N   1      31.326  15.186   4.686  1.00  0.00     0.165 HD
ENDROOT
BRANCH   5   9
HETATM    9  C   UNK N   1      34.328  17.731   8.257  0.00  0.00     0.162 C 
BRANCH   9  10
HETATM   10  N   UNK N   1      34.277  17.181   9.589  0.00  0.00    -0.384 N 
ATOM     11  HN  UNK N   1      34.109  17.801  10.381  1.00  0.00     0.160 HD
BRANCH  10  12
HETATM   12  C   UNK N   1      34.441  15.921   9.796  0.00  0.00     0.085 A 
HETATM   13  C   UNK N   1      35.733  15.178   9.694  0.00  0.00     0.262 A 
HETATM   14  O   UNK N   1      35.294  13.885   9.998  0.00  0.00    -0.272 OA
HETATM   15  N   UNK N   1      33.996  13.807  10.243  0.00  0.00    -0.243 N 
HETATM   16  C   UNK N   1      33.445  14.942  10.145  0.00  0.00     0.185 A 
ATOM     17  HN  UNK N   1      33.503  12.946  10.479  1.00  0.00     0.196 HD
BRANCH  16  18
HETATM   18  O   UNK N   1      32.127  15.147  10.337  0.00  0.00    -0.343 OA
HETATM   19  H   UNK N   1      31.508  15.171   9.633  0.00  0.00     0.219 HD
ENDBRANCH  16  18
ENDBRANCH  10  12
ENDBRANCH   9  10
ENDBRANCH   5   9
BRANCH   4  20
HETATM   20  C   UNK N   1      31.412  17.930   8.297  0.00  0.00     0.221 C 
BRANCH  20  21
HETATM   21  O   UNK N   1      30.398  17.198   8.925  0.00  0.00    -0.292 OA
BRANCH  21  22
HETATM   22  P   UNK N   1      29.256  18.404   9.450  0.00  0.00     0.391 P 
HETATM   23  O   UNK N   1      28.935  18.307   7.936  0.00  0.00    -0.632 OA
BRANCH  22  24
HETATM   24  O   UNK N   1      27.548  18.094   9.445  0.00  0.00    -0.307 OA
HETATM   25  H   UNK N   1      26.818  18.723   9.334  0.00  0.00     0.222 HD
ENDBRANCH  22  24
BRANCH  22  26
HETATM   26  O   UNK N   1      28.877  16.891  10.218  0.00  0.00    -0.307 OA
HETATM   27  H   UNK N   1      29.454  16.380  10.806  0.00  0.00     0.222 HD
ENDBRANCH  22  26
ENDBRANCH  21  22
ENDBRANCH  20  21
ENDBRANCH   4  20
BRANCH   6  28
HETATM   28  O   UNK N   1      35.431  15.970   6.149  0.00  0.00    -0.358 OA
HETATM   29  H   UNK N   1      35.906  15.591   6.864  0.00  0.00     0.217 HD
ENDBRANCH   6  28
TORSDOF 10
ENDMDL
MODEL 4
REMARK VINA RESULT:      -5.9      1.802      4.925
REMARK  10 active torsions:
REMARK  status: ('A' for Active; 'I' for Inactive)
REMARK    1  A    between atoms: C_8  and  C_3 
REMARK    2  A    between atoms: N_14  and  C_3 
REMARK    3  A    between atoms: C_7  and  C_4 
REMARK    4  A    between atoms: O_24  and  C_4 
REMARK    5  A    between atoms: N_14  and  C_9 
REMARK    6  A    between atoms: O_18  and  C_10 
REMARK    7  A    between atoms: O_19  and  C_11 
REMARK    8  A    between atoms: P_25  and  O_20 
REMARK    9  A    between atoms: P_25  and  O_21 
REMARK   10  A    between atoms: P_25  and  O_24 
ROOT
HETATM    1  C   UNK N   1      26.856  29.035  -5.312  0.00  0.00     0.071 C 
HETATM    2  C   UNK N   1      29.007  26.244  -4.114  0.00  0.00     0.098 A 
HETATM    3  C   UNK N   1      27.302  27.657  -4.963  0.00  0.00     0.039 A 
HETATM    4  C   UNK N   1      28.191  25.121  -4.246  0.00  0.00    -0.008 A 
HETATM    5  C   UNK N   1      26.885  25.265  -4.762  0.00  0.00     0.004 A 
HETATM    6  C   UNK N   1      26.437  26.562  -5.123  0.00  0.00     0.096 A 
HETATM    7  N   UNK N   1      28.554  27.472  -4.473  0.00  0.00    -0.367 N 
ATOM      8  HN  UNK N   1      29.173  28.278  -4.372  1.00  0.00     0.165 HD
ENDROOT
BRANCH   5   9
HETATM    9  C   UNK N   1      26.031  24.022  -4.874  0.00  0.00     0.162 C 
BRANCH   9  10
HETATM   10  N   UNK N   1      25.442  23.782  -6.168  0.00  0.00    -0.384 N 
ATOM     11  HN  UNK N   1      24.688  24.385  -6.496  1.00  0.00     0.160 HD
BRANCH  10  12
HETATM   12  C   UNK N   1      25.852  22.819  -6.919  0.00  0.00     0.085 A 
HETATM   13  C   UNK N   1      27.272  22.387  -7.089  0.00  0.00     0.262 A 
HETATM   14  O   UNK N   1      27.101  21.349  -8.011  0.00  0.00    -0.272 OA
HETATM   15  N   UNK N   1      25.840  21.152  -8.363  0.00  0.00    -0.243 N 
HETATM   16  C   UNK N   1      25.070  21.963  -7.771  0.00  0.00     0.185 A 
ATOM     17  HN  UNK N   1      25.530  20.441  -9.025  1.00  0.00     0.196 HD
BRANCH  16  18
HETATM   18  O   UNK N   1      23.735  21.987  -7.953  0.00  0.00    -0.343 OA
HETATM   19  H   UNK N   1      23.307  21.521  -8.645  0.00  0.00     0.219 HD
ENDBRANCH  16  18
ENDBRANCH  10  12
ENDBRANCH   9  10
ENDBRANCH   5   9
BRANCH   4  20
HETATM   20  C   UNK N   1      28.727  23.805  -3.768  0.00  0.00     0.221 C 
BRANCH  20  21
HETATM   21  O   UNK N   1      30.014  23.924  -3.230  0.00  0.00    -0.292 OA
BRANCH  21  22
HETATM   22  P   UNK N   1      30.581  22.282  -3.100  0.00  0.00     0.391 P 
HETATM   23  O   UNK N   1      31.739  22.951  -3.885  0.00  0.00    -0.632 OA
BRANCH  22  24
HETATM   24  O   UNK N   1      31.970  21.879  -2.140  0.00  0.00    -0.307 OA
HETATM   25  H   UNK N   1      32.906  21.885  -2.396  0.00  0.00     0.222 HD
ENDBRANCH  22  24
BRANCH  22  26
HETATM   26  O   UNK N   1      30.485  22.977  -1.510  0.00  0.00    -0.307 OA
HETATM   27  H   UNK N   1      31.132  22.878  -0.795  0.00  0.00     0.222 HD
ENDBRANCH  22  26
ENDBRANCH  21  22
ENDBRANCH  20  21
ENDBRANCH   4  20
BRANCH   6  28
HETATM   28  O   UNK N   1      25.197  26.767  -5.603  0.00  0.00    -0.358 OA
HETATM   29  H   UNK N   1      24.669  27.477  -5.292  0.00  0.00     0.217 HD
ENDBRANCH   6  28
TORSDOF 10
ENDMDL
MODEL 5
REMARK VINA RESULT:      -5.8     14.053     14.324
REMARK  10 active torsions:
REMARK  status: ('A' for Active; 'I' for Inactive)
REMARK    1  A    between atoms: C_8  and  C_3 
REMARK    2  A    between atoms: N_14  and  C_3 
REMARK    3  A    between atoms: C_7  and  C_4 
REMARK    4  A    between atoms: O_24  and  C_4 
REMARK    5  A    between atoms: N_14  and  C_9 
REMARK    6  A    between atoms: O_18  and  C_10 
REMARK    7  A    between atoms: O_19  and  C_11 
REMARK    8  A    between atoms: P_25  and  O_20 
REMARK    9  A    between atoms: P_25  and  O_21 
REMARK   10  A    between atoms: P_25  and  O_24 
ROOT
HETATM    1  C   UNK N   1      19.594  12.881   0.416  0.00  0.00     0.071 C 
HETATM    2  C   UNK N   1      19.164  13.774   4.003  0.00  0.00     0.098 A 
HETATM    3  C   UNK N   1      19.624  13.671   1.679  0.00  0.00     0.039 A 
HETATM    4  C   UNK N   1      19.688  15.064   4.085  0.00  0.00    -0.008 A 
HETATM    5  C   UNK N   1      20.191  15.687   2.923  0.00  0.00     0.004 A 
HETATM    6  C   UNK N   1      20.158  14.970   1.700  0.00  0.00     0.096 A 
HETATM    7  N   UNK N   1      19.140  13.114   2.818  0.00  0.00    -0.367 N 
ATOM      8  HN  UNK N   1      18.746  12.172   2.782  1.00  0.00     0.165 HD
ENDROOT
BRANCH   5   9
HETATM    9  C   UNK N   1      20.763  17.081   3.063  0.00  0.00     0.162 C 
BRANCH   9  10
HETATM   10  N   UNK N   1      20.192  18.080   2.193  0.00  0.00    -0.384 N 
ATOM     11  HN  UNK N   1      19.552  17.794   1.453  1.00  0.00     0.160 HD
BRANCH  10  12
HETATM   12  C   UNK N   1      20.477  19.328   2.336  0.00  0.00     0.085 A 
HETATM   13  C   UNK N   1      20.591  20.056   3.636  0.00  0.00     0.262 A 
HETATM   14  O   UNK N   1      20.887  21.341   3.170  0.00  0.00    -0.272 OA
HETATM   15  N   UNK N   1      20.949  21.427   1.850  0.00  0.00    -0.243 N 
HETATM   16  C   UNK N   1      20.725  20.306   1.309  0.00  0.00     0.185 A 
ATOM     17  HN  UNK N   1      21.151  22.284   1.336  1.00  0.00     0.196 HD
BRANCH  16  18
HETATM   18  O   UNK N   1      20.719  20.111  -0.024  0.00  0.00    -0.343 OA
HETATM   19  H   UNK N   1      20.703  19.258  -0.414  0.00  0.00     0.219 HD
ENDBRANCH  16  18
ENDBRANCH  10  12
ENDBRANCH   9  10
ENDBRANCH   5   9
BRANCH   4  20
HETATM   20  C   UNK N   1      19.747  15.711   5.436  0.00  0.00     0.221 C 
BRANCH  20  21
HETATM   21  O   UNK N   1      19.453  14.810   6.467  0.00  0.00    -0.292 OA
BRANCH  21  22
HETATM   22  P   UNK N   1      20.454  15.332   7.794  0.00  0.00     0.391 P 
HETATM   23  O   UNK N   1      19.064  15.875   8.217  0.00  0.00    -0.632 OA
BRANCH  22  24
HETATM   24  O   UNK N   1      20.258  14.670   9.386  0.00  0.00    -0.307 OA
HETATM   25  H   UNK N   1      19.567  14.858  10.041  0.00  0.00     0.222 HD
ENDBRANCH  22  24
BRANCH  22  26
HETATM   26  O   UNK N   1      20.409  13.594   7.765  0.00  0.00    -0.307 OA
HETATM   27  H   UNK N   1      19.729  13.039   7.353  0.00  0.00     0.222 HD
ENDBRANCH  22  26
ENDBRANCH  21  22
ENDBRANCH  20  21
ENDBRANCH   4  20
BRANCH   6  28
HETATM   28  O   UNK N   1      20.641  15.502   0.562  0.00  0.00    -0.358 OA
HETATM   29  H   UNK N   1      20.638  15.015  -0.240  0.00  0.00     0.217 HD
ENDBRANCH   6  28
TORSDOF 10
ENDMDL
MODEL 6
REMARK VINA RESULT:      -5.7     13.780     14.562
REMARK  10 active torsions:
REMARK  status: ('A' for Active; 'I' for Inactive)
REMARK    1  A    between atoms: C_8  and  C_3 
REMARK    2  A    between atoms: N_14  and  C_3 
REMARK    3  A    between atoms: C_7  and  C_4 
REMARK    4  A    between atoms: O_24  and  C_4 
REMARK    5  A    between atoms: N_14  and  C_9 
REMARK    6  A    between atoms: O_18  and  C_10 
REMARK    7  A    between atoms: O_19  and  C_11 
REMARK    8  A    between atoms: P_25  and  O_20 
REMARK    9  A    between atoms: P_25  and  O_21 
REMARK   10  A    between atoms: P_25  and  O_24 
ROOT
HETATM    1  C   UNK N   1      21.460  13.616   0.883  0.00  0.00     0.071 C 
HETATM    2  C   UNK N   1      20.107  17.080   1.032  0.00  0.00     0.098 A 
HETATM    3  C   UNK N   1      21.043  14.939   1.430  0.00  0.00     0.039 A 
HETATM    4  C   UNK N   1      20.202  17.413   2.383  0.00  0.00    -0.008 A 
HETATM    5  C   UNK N   1      20.746  16.481   3.293  0.00  0.00     0.004 A 
HETATM    6  C   UNK N   1      21.170  15.220   2.801  0.00  0.00     0.096 A 
HETATM    7  N   UNK N   1      20.526  15.869   0.588  0.00  0.00    -0.367 N 
ATOM      8  HN  UNK N   1      20.451  15.651  -0.407  1.00  0.00     0.165 HD
ENDROOT
BRANCH   5   9
HETATM    9  C   UNK N   1      20.817  16.879   4.750  0.00  0.00     0.162 C 
BRANCH   9  10
HETATM   10  N   UNK N   1      19.896  16.202   5.630  0.00  0.00    -0.384 N 
ATOM     11  HN  UNK N   1      18.918  16.108   5.355  1.00  0.00     0.160 HD
BRANCH  10  12
HETATM   12  C   UNK N   1      20.286  15.714   6.756  0.00  0.00     0.085 A 
HETATM   13  C   UNK N   1      20.555  14.271   7.037  0.00  0.00     0.262 A 
HETATM   14  O   UNK N   1      20.913  14.349   8.386  0.00  0.00    -0.272 OA
HETATM   15  N   UNK N   1      20.881  15.579   8.875  0.00  0.00    -0.243 N 
HETATM   16  C   UNK N   1      20.530  16.412   7.990  0.00  0.00     0.185 A 
ATOM     17  HN  UNK N   1      21.110  15.824   9.838  1.00  0.00     0.196 HD
BRANCH  16  18
HETATM   18  O   UNK N   1      20.408  17.734   8.220  0.00  0.00    -0.343 OA
HETATM   19  H   UNK N   1      20.291  18.362   7.533  0.00  0.00     0.219 HD
ENDBRANCH  16  18
ENDBRANCH  10  12
ENDBRANCH   9  10
ENDBRANCH   5   9
BRANCH   4  20
HETATM   20  C   UNK N   1      19.659  18.741   2.818  0.00  0.00     0.221 C 
BRANCH  20  21
HETATM   21  O   UNK N   1      20.088  19.784   1.988  0.00  0.00    -0.292 OA
BRANCH  21  22
HETATM   22  P   UNK N   1      21.667  20.199   2.597  0.00  0.00     0.391 P 
HETATM   23  O   UNK N   1      21.773  20.651   1.117  0.00  0.00    -0.632 OA
BRANCH  22  24
HETATM   24  O   UNK N   1      22.172  21.853   2.743  0.00  0.00    -0.307 OA
HETATM   25  H   UNK N   1      22.613  22.412   2.085  0.00  0.00     0.222 HD
ENDBRANCH  22  24
BRANCH  22  26
HETATM   26  O   UNK N   1      20.472  21.164   3.410  0.00  0.00    -0.307 OA
HETATM   27  H   UNK N   1      20.614  22.024   3.835  0.00  0.00     0.222 HD
ENDBRANCH  22  26
ENDBRANCH  21  22
ENDBRANCH  20  21
ENDBRANCH   4  20
BRANCH   6  28
HETATM   28  O   UNK N   1      21.678  14.282   3.621  0.00  0.00    -0.358 OA
HETATM   29  H   UNK N   1      22.394  13.738   3.352  0.00  0.00     0.217 HD
ENDBRANCH   6  28
TORSDOF 10
ENDMDL
MODEL 7
REMARK VINA RESULT:      -5.7     13.922     14.519
REMARK  10 active torsions:
REMARK  status: ('A' for Active; 'I' for Inactive)
REMARK    1  A    between atoms: C_8  and  C_3 
REMARK    2  A    between atoms: N_14  and  C_3 
REMARK    3  A    between atoms: C_7  and  C_4 
REMARK    4  A    between atoms: O_24  and  C_4 
REMARK    5  A    between atoms: N_14  and  C_9 
REMARK    6  A    between atoms: O_18  and  C_10 
REMARK    7  A    between atoms: O_19  and  C_11 
REMARK    8  A    between atoms: P_25  and  O_20 
REMARK    9  A    between atoms: P_25  and  O_21 
REMARK   10  A    between atoms: P_25  and  O_24 
ROOT
HETATM    1  C   UNK N   1      31.771  13.196   2.819  0.00  0.00     0.071 C 
HETATM    2  C   UNK N   1      33.813  15.812   4.504  0.00  0.00     0.098 A 
HETATM    3  C   UNK N   1      32.129  14.365   3.671  0.00  0.00     0.039 A 
HETATM    4  C   UNK N   1      32.870  16.562   5.207  0.00  0.00    -0.008 A 
HETATM    5  C   UNK N   1      31.508  16.199   5.150  0.00  0.00     0.004 A 
HETATM    6  C   UNK N   1      31.136  15.078   4.363  0.00  0.00     0.096 A 
HETATM    7  N   UNK N   1      33.430  14.742   3.763  0.00  0.00    -0.367 N 
ATOM      8  HN  UNK N   1      34.139  14.205   3.262  1.00  0.00     0.165 HD
ENDROOT
BRANCH   5   9
HETATM    9  C   UNK N   1      30.520  17.049   5.917  0.00  0.00     0.162 C 
BRANCH   9  10
HETATM   10  N   UNK N   1      30.206  16.596   7.249  0.00  0.00    -0.384 N 
ATOM     11  HN  UNK N   1      30.498  15.664   7.543  1.00  0.00     0.160 HD
BRANCH  10  12
HETATM   12  C   UNK N   1      29.564  17.347   8.076  0.00  0.00     0.085 A 
HETATM   13  C   UNK N   1      30.179  18.254   9.092  0.00  0.00     0.262 A 
HETATM   14  O   UNK N   1      29.024  18.772   9.685  0.00  0.00    -0.272 OA
HETATM   15  N   UNK N   1      27.901  18.302   9.165  0.00  0.00    -0.243 N 
HETATM   16  C   UNK N   1      28.140  17.479   8.235  0.00  0.00     0.185 A 
ATOM     17  HN  UNK N   1      26.966  18.567   9.474  1.00  0.00     0.196 HD
BRANCH  16  18
HETATM   18  O   UNK N   1      27.177  16.843   7.539  0.00  0.00    -0.343 OA
HETATM   19  H   UNK N   1      26.480  16.369   7.950  0.00  0.00     0.219 HD
ENDBRANCH  16  18
ENDBRANCH  10  12
ENDBRANCH   9  10
ENDBRANCH   5   9
BRANCH   4  20
HETATM   20  C   UNK N   1      33.351  17.772   5.951  0.00  0.00     0.221 C 
BRANCH  20  21
HETATM   21  O   UNK N   1      34.537  17.522   6.654  0.00  0.00    -0.292 OA
BRANCH  21  22
HETATM   22  P   UNK N   1      34.064  17.578   8.329  0.00  0.00     0.391 P 
HETATM   23  O   UNK N   1      34.888  16.265   8.280  0.00  0.00    -0.632 OA
BRANCH  22  24
HETATM   24  O   UNK N   1      35.234  17.818   9.589  0.00  0.00    -0.307 OA
HETATM   25  H   UNK N   1      36.071  17.351   9.736  0.00  0.00     0.222 HD
ENDBRANCH  22  24
BRANCH  22  26
HETATM   26  O   UNK N   1      35.107  18.926   7.988  0.00  0.00    -0.307 OA
HETATM   27  H   UNK N   1      35.866  19.220   8.515  0.00  0.00     0.222 HD
ENDBRANCH  22  26
ENDBRANCH  21  22
ENDBRANCH  20  21
ENDBRANCH   4  20
BRANCH   6  28
HETATM   28  O   UNK N   1      29.851  14.694   4.253  0.00  0.00    -0.358 OA
HETATM   29  H   UNK N   1      29.184  15.075   4.792  0.00  0.00     0.217 HD
ENDBRANCH   6  28
TORSDOF 10
ENDMDL
MODEL 8
REMARK VINA RESULT:      -5.7      2.744      6.504
REMARK  10 active torsions:
REMARK  status: ('A' for Active; 'I' for Inactive)
REMARK    1  A    between atoms: C_8  and  C_3 
REMARK    2  A    between atoms: N_14  and  C_3 
REMARK    3  A    between atoms: C_7  and  C_4 
REMARK    4  A    between atoms: O_24  and  C_4 
REMARK    5  A    between atoms: N_14  and  C_9 
REMARK    6  A    between atoms: O_18  and  C_10 
REMARK    7  A    between atoms: O_19  and  C_11 
REMARK    8  A    between atoms: P_25  and  O_20 
REMARK    9  A    between atoms: P_25  and  O_21 
REMARK   10  A    between atoms: P_25  and  O_24 
ROOT
HETATM    1  C   UNK N   1      26.522  29.530  -3.740  0.00  0.00     0.071 C 
HETATM    2  C   UNK N   1      25.071  26.429  -5.201  0.00  0.00     0.098 A 
HETATM    3  C   UNK N   1      26.421  28.136  -4.259  0.00  0.00     0.039 A 
HETATM    4  C   UNK N   1      26.161  25.563  -5.282  0.00  0.00    -0.008 A 
HETATM    5  C   UNK N   1      27.427  25.991  -4.829  0.00  0.00     0.004 A 
HETATM    6  C   UNK N   1      27.553  27.306  -4.310  0.00  0.00     0.096 A 
HETATM    7  N   UNK N   1      25.219  27.679  -4.695  0.00  0.00    -0.367 N 
ATOM      8  HN  UNK N   1      24.405  28.293  -4.641  1.00  0.00     0.165 HD
ENDROOT
BRANCH   5   9
HETATM    9  C   UNK N   1      28.583  25.024  -4.949  0.00  0.00     0.162 C 
BRANCH   9  10
HETATM   10  N   UNK N   1      29.198  24.626  -3.707  0.00  0.00    -0.384 N 
ATOM     11  HN  UNK N   1      28.817  24.971  -2.826  1.00  0.00     0.160 HD
BRANCH  10  12
HETATM   12  C   UNK N   1      30.221  23.843  -3.690  0.00  0.00     0.085 A 
HETATM   13  C   UNK N   1      31.111  23.541  -4.852  0.00  0.00     0.262 A 
HETATM   14  O   UNK N   1      31.998  22.643  -4.251  0.00  0.00    -0.272 OA
HETATM   15  N   UNK N   1      31.738  22.412  -2.973  0.00  0.00    -0.243 N 
HETATM   16  C   UNK N   1      30.730  23.071  -2.587  0.00  0.00     0.185 A 
ATOM     17  HN  UNK N   1      32.279  21.785  -2.378  1.00  0.00     0.196 HD
BRANCH  16  18
HETATM   18  O   UNK N   1      30.241  23.016  -1.332  0.00  0.00    -0.343 OA
HETATM   19  H   UNK N   1      29.366  22.742  -1.138  0.00  0.00     0.219 HD
ENDBRANCH  16  18
ENDBRANCH  10  12
ENDBRANCH   9  10
ENDBRANCH   5   9
BRANCH   4  20
HETATM   20  C   UNK N   1      25.943  24.220  -5.913  0.00  0.00     0.221 C 
BRANCH  20  21
HETATM   21  O   UNK N   1      25.394  24.323  -7.197  0.00  0.00    -0.292 OA
BRANCH  21  22
HETATM   22  P   UNK N   1      25.685  22.763  -7.916  0.00  0.00     0.391 P 
HETATM   23  O   UNK N   1      24.972  22.371  -6.595  0.00  0.00    -0.632 OA
BRANCH  22  24
HETATM   24  O   UNK N   1      24.376  21.769  -8.474  0.00  0.00    -0.307 OA
HETATM   25  H   UNK N   1      23.755  21.236  -7.953  0.00  0.00     0.222 HD
ENDBRANCH  22  24
BRANCH  22  26
HETATM   26  O   UNK N   1      24.584  23.657  -8.922  0.00  0.00    -0.307 OA
HETATM   27  H   UNK N   1      23.889  23.288  -9.489  0.00  0.00     0.222 HD
ENDBRANCH  22  26
ENDBRANCH  21  22
ENDBRANCH  20  21
ENDBRANCH   4  20
BRANCH   6  28
HETATM   28  O   UNK N   1      28.737  27.780  -3.881  0.00  0.00    -0.358 OA
HETATM   29  H   UNK N   1      28.810  28.639  -3.512  0.00  0.00     0.217 HD
ENDBRANCH   6  28
TORSDOF 10
ENDMDL
MODEL 9
REMARK VINA RESULT:      -5.7     13.212     13.885
REMARK  10 active torsions:
REMARK  status: ('A' for Active; 'I' for Inactive)
REMARK    1  A    between atoms: C_8  and  C_3 
REMARK    2  A    between atoms: N_14  and  C_3 
REMARK    3  A    between atoms: C_7  and  C_4 
REMARK    4  A    between atoms: O_24  and  C_4 
REMARK    5  A    between atoms: N_14  and  C_9 
REMARK    6  A    between atoms: O_18  and  C_10 
REMARK    7  A    between atoms: O_19  and  C_11 
REMARK    8  A    between atoms: P_25  and  O_20 
REMARK    9  A    between atoms: P_25  and  O_21 
REMARK   10  A    between atoms: P_25  and  O_24 
ROOT
HETATM    1  C   UNK N   1      20.346  13.055   0.800  0.00  0.00     0.071 C 
HETATM    2  C   UNK N   1      20.117  16.750   1.184  0.00  0.00     0.098 A 
HETATM    3  C   UNK N   1      20.209  14.394   1.439  0.00  0.00     0.039 A 
HETATM    4  C   UNK N   1      19.917  16.925   2.553  0.00  0.00    -0.008 A 
HETATM    5  C   UNK N   1      19.870  15.798   3.401  0.00  0.00     0.004 A 
HETATM    6  C   UNK N   1      20.017  14.510   2.826  0.00  0.00     0.096 A 
HETATM    7  N   UNK N   1      20.260  15.505   0.662  0.00  0.00    -0.367 N 
ATOM      8  HN  UNK N   1      20.411  15.403  -0.342  1.00  0.00     0.165 HD
ENDROOT
BRANCH   5   9
HETATM    9  C   UNK N   1      19.637  16.036   4.877  0.00  0.00     0.162 C 
BRANCH   9  10
HETATM   10  N   UNK N   1      20.780  15.829   5.731  0.00  0.00    -0.384 N 
ATOM     11  HN  UNK N   1      20.729  15.134   6.476  1.00  0.00     0.160 HD
BRANCH  10  12
HETATM   12  C   UNK N   1      21.864  16.505   5.571  0.00  0.00     0.085 A 
HETATM   13  C   UNK N   1      23.121  16.005   4.934  0.00  0.00     0.262 A 
HETATM   14  O   UNK N   1      23.926  17.141   5.062  0.00  0.00    -0.272 OA
HETATM   15  N   UNK N   1      23.322  18.158   5.655  0.00  0.00    -0.243 N 
HETATM   16  C   UNK N   1      22.134  17.860   5.972  0.00  0.00     0.185 A 
ATOM     17  HN  UNK N   1      23.756  19.063   5.833  1.00  0.00     0.196 HD
BRANCH  16  18
HETATM   18  O   UNK N   1      21.295  18.711   6.596  0.00  0.00    -0.343 OA
HETATM   19  H   UNK N   1      20.755  19.324   6.135  0.00  0.00     0.219 HD
ENDBRANCH  16  18
ENDBRANCH  10  12
ENDBRANCH   9  10
ENDBRANCH   5   9
BRANCH   4  20
HETATM   20  C   UNK N   1      19.699  18.321   3.056  0.00  0.00     0.221 C 
BRANCH  20  21
HETATM   21  O   UNK N   1      20.894  18.929   3.461  0.00  0.00    -0.292 OA
BRANCH  21  22
HETATM   22  P   UNK N   1      21.022  20.343   2.452  0.00  0.00     0.391 P 
HETATM   23  O   UNK N   1      20.270  20.906   3.686  0.00  0.00    -0.632 OA
BRANCH  22  24
HETATM   24  O   UNK N   1      22.010  21.694   2.913  0.00  0.00    -0.307 OA
HETATM   25  H   UNK N   1      21.770  22.466   3.449  0.00  0.00     0.222 HD
ENDBRANCH  22  24
BRANCH  22  26
HETATM   26  O   UNK N   1      22.616  19.839   2.929  0.00  0.00    -0.307 OA
HETATM   27  H   UNK N   1      23.253  19.346   2.390  0.00  0.00     0.222 HD
ENDBRANCH  22  26
ENDBRANCH  21  22
ENDBRANCH  20  21
ENDBRANCH   4  20
BRANCH   6  28
HETATM   28  O   UNK N   1      19.961  13.396   3.579  0.00  0.00    -0.358 OA
HETATM   29  H   UNK N   1      19.166  13.138   4.004  0.00  0.00     0.217 HD
ENDBRANCH   6  28
TORSDOF 10
ENDMDL
