REMARK  15 active torsions:
REMARK  status: ('A' for Active; 'I' for Inactive)
REMARK    1  A    between atoms: P_1  and  O_2 
REMARK    2  A    between atoms: P_1  and  O_3 
REMARK    3  A    between atoms: P_1  and  O_4 
REMARK    4  A    between atoms: C_6  and  O_2 
REMARK    5  A    between atoms: C_7  and  O_10 
REMARK    6  A    between atoms: C_8  and  O_12 
REMARK    7  A    between atoms: C_9  and  O_14 
REMARK    8  A    between atoms: O_10  and  P_15 
REMARK    9  A    between atoms: C_11  and  O_16 
REMARK   10  A    between atoms: C_13  and  O_17 
REMARK   11  A    between atoms: P_15  and  O_18 
REMARK   12  A    between atoms: P_15  and  O_19 
REMARK   13  A    between atoms: O_16  and  P_21 
REMARK   14  A    between atoms: P_21  and  O_22 
REMARK   15  A    between atoms: P_21  and  O_23 
ROOT
HETATM    1  C   UNK N   1       0.529   0.512  -0.262  0.00  0.00     0.197 C 
HETATM    2  C   UNK N   1       0.789  -0.975   0.010  0.00  0.00     0.197 C 
HETATM    3  C   UNK N   1      -0.606   0.685  -1.281  0.00  0.00     0.182 C 
HETATM    4  C   UNK N   1      -0.487  -1.706   0.443  0.00  0.00     0.181 C 
HETATM    5  C   UNK N   1      -1.879  -0.061  -0.862  0.00  0.00     0.196 C 
HETATM    6  C   UNK N   1      -1.560  -1.540  -0.634  0.00  0.00     0.181 C 
ENDROOT
BRANCH   1   7
HETATM    7  O   UNK N   1       1.698   1.085  -0.780  0.00  0.00    -0.286 OA
BRANCH   7   8
HETATM    8  P   UNK N   1       2.022   2.526   0.144  0.00  0.00     0.391 P 
HETATM    9  O   UNK N   1       3.482   2.415   0.658  0.00  0.00    -0.632 OA
BRANCH   8  10
HETATM   10  O   UNK N   1       1.953   3.938  -0.864  0.00  0.00    -0.307 OA
HETATM   11  H   UNK N   1       2.617   4.365  -1.427  0.00  0.00     0.222 HD
ENDBRANCH   8  10
BRANCH   8  12
HETATM   12  O   UNK N   1       1.007   2.699   1.543  0.00  0.00    -0.307 OA
HETATM   13  H   UNK N   1       0.806   3.238   2.324  0.00  0.00     0.222 HD
ENDBRANCH   8  12
ENDBRANCH   7   8
ENDBRANCH   1   7
BRANCH   2  14
HETATM   14  O   UNK N   1       1.780  -1.116   0.988  0.00  0.00    -0.286 OA
BRANCH  14  15
HETATM   15  P   UNK N   1       3.142  -1.850   0.186  0.00  0.00     0.391 P 
HETATM   16  O   UNK N   1       2.923  -3.387   0.183  0.00  0.00    -0.632 OA
BRANCH  15  17
HETATM   17  O   UNK N   1       3.305  -1.341  -1.467  0.00  0.00    -0.307 OA
HETATM   18  H   UNK N   1       3.597  -1.277  -2.390  0.00  0.00     0.222 HD
ENDBRANCH  15  17
BRANCH  15  19
HETATM   19  O   UNK N   1       4.610  -1.550   1.062  0.00  0.00    -0.307 OA
HETATM   20  H   UNK N   1       5.165  -2.176   1.552  0.00  0.00     0.222 HD
ENDBRANCH  15  19
ENDBRANCH  14  15
ENDBRANCH   2  14
BRANCH   3  21
HETATM   21  O   UNK N   1      -0.882   2.039  -1.477  0.00  0.00    -0.390 OA
HETATM   22  H   UNK N   1      -0.164   2.676  -1.613  0.00  0.00     0.210 HD
ENDBRANCH   3  21
BRANCH   4  23
HETATM   23  O   UNK N   1      -0.212  -3.061   0.623  0.00  0.00    -0.390 OA
HETATM   24  H   UNK N   1      -0.933  -3.698   0.749  0.00  0.00     0.210 HD
ENDBRANCH   4  23
BRANCH   5  25
HETATM   25  O   UNK N   1      -2.459   0.513   0.281  0.00  0.00    -0.286 OA
BRANCH  25  26
HETATM   26  P   UNK N   1      -4.068   0.963  -0.215  0.00  0.00     0.391 P 
HETATM   27  O   UNK N   1      -4.368  -0.090   0.886  0.00  0.00    -0.632 OA
BRANCH  26  28
HETATM   28  O   UNK N   1      -5.135   1.826   0.847  0.00  0.00    -0.307 OA
HETATM   29  H   UNK N   1      -5.016   2.584   1.441  0.00  0.00     0.222 HD
ENDBRANCH  26  28
BRANCH  26  30
HETATM   30  O   UNK N   1      -3.267   2.324   0.507  0.00  0.00    -0.307 OA
HETATM   31  H   UNK N   1      -2.384   2.317   0.910  0.00  0.00     0.222 HD
ENDBRANCH  26  30
ENDBRANCH  25  26
ENDBRANCH   5  25
BRANCH   6  32
HETATM   32  O   UNK N   1      -2.719  -2.235  -0.278  0.00  0.00    -0.390 OA
HETATM   33  H   UNK N   1      -3.539  -1.779  -0.031  0.00  0.00     0.210 HD
ENDBRANCH   6  32
TORSDOF 15
