REMARK  3 active torsions:
REMARK  status: ('A' for Active; 'I' for Inactive)
REMARK    1  A    between atoms: C_15  and  N_16 
REMARK    2  A    between atoms: N_16  and  C_17 
REMARK    3  A    between atoms: C_17  and  C_18 
ROOT
HETATM    1  C   UNK N   1       6.078  -1.213  -0.312  0.00  0.00     0.006 C 
HETATM    2  C   UNK N   1       6.168   0.094   0.451  0.00  0.00     0.005 C 
HETATM    3  C   UNK N   1       4.961   0.976   0.142  0.00  0.00     0.043 C 
HETATM    4  C   UNK N   1       3.646   0.228   0.113  0.00  0.00    -0.008 A 
HETATM    5  C   UNK N   1       3.609  -1.184   0.145  0.00  0.00     0.018 A 
HETATM    6  C   UNK N   1       4.869  -2.000   0.182  0.00  0.00     0.057 C 
HETATM    7  N   UNK N   1       2.415  -1.834   0.112  0.00  0.00    -0.358 N 
ATOM      8  HN  UNK N   1       2.407  -2.854   0.138  1.00  0.00     0.166 HD
HETATM    9  C   UNK N   1       1.236  -1.170   0.045  0.00  0.00     0.044 A 
HETATM   10  C   UNK N   1       0.037  -1.891   0.022  0.00  0.00     0.030 A 
HETATM   11  C   UNK N   1      -1.186  -1.221  -0.045  0.00  0.00     0.002 A 
HETATM   12  C   UNK N   1      -1.217   0.174  -0.086  0.00  0.00     0.001 A 
HETATM   13  C   UNK N   1      -0.024   0.900  -0.071  0.00  0.00     0.016 A 
HETATM   14  C   UNK N   1       1.215   0.243  -0.011  0.00  0.00     0.018 A 
HETATM   15  C   UNK N   1       2.445   0.950   0.009  0.00  0.00     0.049 A 
ENDROOT
BRANCH  15  16
HETATM   16  N   UNK N   1       2.507   2.370  -0.108  0.00  0.00    -0.384 N 
HETATM   17  H   UNK N   1       3.210   2.861   0.377  0.00  0.00     0.160 HD
BRANCH  16  18
HETATM   18  C   UNK N   1       1.568   3.106  -0.917  0.00  0.00     0.158 C 
BRANCH  18  19
HETATM   19  C   UNK N   1       1.318   4.468  -0.383  0.00  0.00    -0.041 A 
HETATM   20  C   UNK N   1       0.030   4.806   0.040  0.00  0.00     0.009 A 
HETATM   21  C   UNK N   1      -0.241   6.097   0.497  0.00  0.00     0.001 A 
HETATM   22  C   UNK N   1       0.775   7.056   0.522  0.00  0.00     0.000 A 
HETATM   23  C   UNK N   1       2.064   6.722   0.094  0.00  0.00     0.001 A 
HETATM   24  C   UNK N   1       2.337   5.428  -0.361  0.00  0.00     0.009 A 
ENDBRANCH  18  19
ENDBRANCH  16  18
ENDBRANCH  15  16
TORSDOF 3
