REMARK WARNING: 32 MAX_TORS EXCEEDED!!!
REMARK  43 active torsions:
REMARK  status: ('A' for Active; 'I' for Inactive)
REMARK    1  A    between atoms: C_2  and  C_3 
REMARK    2  A    between atoms: C_3  and  C_4 
REMARK    3  A    between atoms: C_4  and  C_5 
REMARK    4  A    between atoms: C_5  and  C_6 
REMARK    5  A    between atoms: C_6  and  C_7 
REMARK    6  A    between atoms: C_7  and  C_8 
REMARK    7  A    between atoms: C_8  and  C_9 
REMARK    8  A    between atoms: C_10  and  C_11 
REMARK    9  A    between atoms: C_11  and  C_12 
REMARK   10  A    between atoms: C_12  and  C_13 
REMARK   11  A    between atoms: C_13  and  C_14 
REMARK   12  A    between atoms: C_14  and  C_15 
REMARK   13  A    between atoms: C_15  and  C_16 
REMARK   14  A    between atoms: C_16  and  C_17 
REMARK   15  A    between atoms: C_17  and  C_18 
REMARK   16  A    between atoms: C_18  and  O_20 
REMARK   17  A    between atoms: O_20  and  C_21 
REMARK   18  A    between atoms: C_21  and  C_22 
REMARK   19  A    between atoms: C_22  and  C_23 
REMARK   20  A    between atoms: C_22  and  O_35 
REMARK   21  A    between atoms: C_23  and  O_24 
REMARK   22  A    between atoms: O_24  and  P_25 
REMARK   23  A    between atoms: P_25  and  O_27 
REMARK   24  A    between atoms: P_25  and  O_28 
REMARK   25  A    between atoms: O_28  and  C_29 
REMARK   26  A    between atoms: C_29  and  C_30 
REMARK   27  A    between atoms: C_30  and  N_31 
REMARK   28  A    between atoms: O_35  and  C_36 
REMARK   29  A    between atoms: C_36  and  C_38 
REMARK   30  A    between atoms: C_38  and  C_39 
REMARK   31  A    between atoms: C_39  and  C_40 
REMARK   32  A    between atoms: C_40  and  C_41 
REMARK   33  A    between atoms: C_41  and  C_42 
REMARK   34  A    between atoms: C_42  and  C_43 
REMARK   35  A    between atoms: C_43  and  C_44 
REMARK   36  A    between atoms: C_44  and  C_45 
REMARK   37  A    between atoms: C_46  and  C_47 
REMARK   38  A    between atoms: C_47  and  C_48 
REMARK   39  A    between atoms: C_48  and  C_49 
REMARK   40  A    between atoms: C_49  and  C_50 
REMARK   41  A    between atoms: C_50  and  C_51 
REMARK   42  A    between atoms: C_51  and  C_52 
REMARK   43  A    between atoms: C_52  and  C_53 
ROOT
HETATM    1  C   UNK N   1      17.710  -5.904  -0.491  0.00  0.00     0.180 C 
ENDROOT
BRANCH   1   2
HETATM    2  C   UNK N   1      16.772  -5.994   0.707  0.00  0.00     0.213 C 
BRANCH   2   3
HETATM    3  O   UNK N   1      15.922  -4.916   0.661  0.00  0.00    -0.319 OA
BRANCH   3   4
HETATM    4  C   UNK N   1      14.965  -4.803  -0.295  0.00  0.00     0.258 C 
HETATM    5  O   UNK N   1      14.379  -3.747  -0.437  0.00  0.00    -0.265 OA
BRANCH   4   6
HETATM    6  C   UNK N   1      14.597  -5.973  -1.175  0.00  0.00     0.111 C 
BRANCH   6   7
HETATM    7  C   UNK N   1      13.935  -7.096  -0.368  0.00  0.00     0.010 C 
BRANCH   7   8
HETATM    8  C   UNK N   1      12.803  -6.591   0.528  0.00  0.00     0.000 C 
BRANCH   8   9
HETATM    9  C   UNK N   1      11.937  -5.586  -0.215  0.00  0.00     0.000 C 
BRANCH   9  10
HETATM   10  C   UNK N   1      10.878  -5.017   0.697  0.00  0.00     0.000 C 
BRANCH  10  11
HETATM   11  C   UNK N   1       9.513  -5.278   0.090  0.00  0.00     0.004 C 
BRANCH  11  12
HETATM   12  C   UNK N   1       9.144  -6.740   0.259  0.00  0.00     0.027 C 
BRANCH  12  13
HETATM   13  C   UNK N   1       9.806  -7.598  -0.780  0.00  0.00    -0.031 C 
HETATM   14  C   UNK N   1       9.829  -8.932  -0.691  0.00  0.00    -0.031 C 
BRANCH  14  15
HETATM   15  C   UNK N   1       9.208  -9.665   0.461  0.00  0.00     0.027 C 
BRANCH  15  16
HETATM   16  C   UNK N   1       7.757 -10.014   0.166  0.00  0.00     0.004 C 
BRANCH  16  17
HETATM   17  C   UNK N   1       6.899  -8.762   0.154  0.00  0.00     0.000 C 
BRANCH  17  18
HETATM   18  C   UNK N   1       5.441  -9.133   0.057  0.00  0.00     0.000 C 
BRANCH  18  19
HETATM   19  C   UNK N   1       4.605  -7.874   0.002  0.00  0.00     0.000 C 
BRANCH  19  20
HETATM   20  C   UNK N   1       3.147  -8.270   0.033  0.00  0.00    -0.000 C 
BRANCH  20  21
HETATM   21  C   UNK N   1       2.271  -7.043  -0.073  0.00  0.00    -0.005 C 
HETATM   22  C   UNK N   1       0.820  -7.471  -0.028  0.00  0.00     0.005 C 
ENDBRANCH  20  21
ENDBRANCH  19  20
ENDBRANCH  18  19
ENDBRANCH  17  18
ENDBRANCH  16  17
ENDBRANCH  15  16
ENDBRANCH  14  15
ENDBRANCH  12  13
ENDBRANCH  11  12
ENDBRANCH  10  11
ENDBRANCH   9  10
ENDBRANCH   8   9
ENDBRANCH   7   8
ENDBRANCH   6   7
ENDBRANCH   4   6
ENDBRANCH   3   4
ENDBRANCH   2   3
ENDBRANCH   1   2
BRANCH   1  23
HETATM   23  C   UNK N   1      18.165  -7.241  -1.057  0.00  0.00     0.215 C 
BRANCH  23  24
HETATM   24  O   UNK N   1      18.878  -7.981  -0.114  0.00  0.00    -0.294 OA
BRANCH  24  25
HETATM   25  P   UNK N   1      18.318  -9.610  -0.319  0.00  0.00     0.393 P 
HETATM   26  O   UNK N   1      19.840  -9.690  -0.622  0.00  0.00    -0.631 OA
BRANCH  25  27
HETATM   27  O   UNK N   1      18.041  -9.029   1.299  0.00  0.00    -0.307 OA
HETATM   28  H   UNK N   1      18.244  -8.733   2.200  0.00  0.00     0.222 HD
ENDBRANCH  25  27
BRANCH  25  29
HETATM   29  O   UNK N   1      18.865 -10.870   0.760  0.00  0.00    -0.295 OA
BRANCH  29  30
HETATM   30  C   UNK N   1      17.748 -11.678   1.013  0.00  0.00     0.208 C 
BRANCH  30  31
HETATM   31  C   UNK N   1      17.643 -12.824   0.007  0.00  0.00     0.262 C 
BRANCH  31  32
HETATM   32  N   UNK N   1      16.249 -13.177  -0.273  0.00  0.00    -0.077 N 
HETATM   33  C   UNK N   1      15.569 -12.083  -0.950  0.00  0.00     0.271 C 
HETATM   34  C   UNK N   1      16.232 -14.333  -1.148  0.00  0.00     0.271 C 
HETATM   35  C   UNK N   1      15.526 -13.519   0.945  0.00  0.00     0.271 C 
ENDBRANCH  31  32
ENDBRANCH  30  31
ENDBRANCH  29  30
ENDBRANCH  25  29
ENDBRANCH  24  25
ENDBRANCH  23  24
ENDBRANCH   1  23
BRANCH   1  36
HETATM   36  O   UNK N   1      18.737  -5.001  -0.299  0.00  0.00    -0.312 OA
BRANCH  36  37
HETATM   37  C   UNK N   1      19.675  -5.067   0.681  0.00  0.00     0.259 C 
HETATM   38  O   UNK N   1      19.620  -5.920   1.556  0.00  0.00    -0.265 OA
BRANCH  37  39
HETATM   39  C   UNK N   1      20.800  -4.090   0.672  0.00  0.00     0.111 C 
BRANCH  39  40
HETATM   40  C   UNK N   1      21.558  -4.188  -0.647  0.00  0.00     0.010 C 
BRANCH  40  41
HETATM   41  C   UNK N   1      22.608  -5.288  -0.611  0.00  0.00     0.000 C 
BRANCH  41  42
HETATM   42  C   UNK N   1      21.980  -6.670  -0.569  0.00  0.00     0.000 C 
BRANCH  42  43
HETATM   43  C   UNK N   1      22.738  -7.528   0.424  0.00  0.00     0.000 C 
BRANCH  43  44
HETATM   44  C   UNK N   1      23.620  -8.510  -0.317  0.00  0.00     0.004 C 
BRANCH  44  45
HETATM   45  C   UNK N   1      24.929  -8.696   0.430  0.00  0.00     0.027 C 
BRANCH  45  46
HETATM   46  C   UNK N   1      26.055  -8.108  -0.368  0.00  0.00    -0.031 C 
HETATM   47  C   UNK N   1      26.318  -6.796  -0.404  0.00  0.00    -0.031 C 
BRANCH  47  48
HETATM   48  C   UNK N   1      25.542  -5.799   0.396  0.00  0.00     0.027 C 
BRANCH  48  49
HETATM   49  C   UNK N   1      25.854  -4.382  -0.052  0.00  0.00     0.004 C 
BRANCH  49  50
HETATM   50  C   UNK N   1      27.121  -3.865   0.603  0.00  0.00     0.000 C 
BRANCH  50  51
HETATM   51  C   UNK N   1      28.294  -3.956  -0.353  0.00  0.00     0.000 C 
BRANCH  51  52
HETATM   52  C   UNK N   1      29.142  -5.166  -0.023  0.00  0.00     0.000 C 
BRANCH  52  53
HETATM   53  C   UNK N   1      30.601  -4.778  -0.119  0.00  0.00    -0.000 C 
BRANCH  53  54
HETATM   54  C   UNK N   1      31.472  -5.994   0.109  0.00  0.00    -0.005 C 
HETATM   55  C   UNK N   1      32.927  -5.579   0.060  0.00  0.00     0.005 C 
ENDBRANCH  53  54
ENDBRANCH  52  53
ENDBRANCH  51  52
ENDBRANCH  50  51
ENDBRANCH  49  50
ENDBRANCH  48  49
ENDBRANCH  47  48
ENDBRANCH  45  46
ENDBRANCH  44  45
ENDBRANCH  43  44
ENDBRANCH  42  43
ENDBRANCH  41  42
ENDBRANCH  40  41
ENDBRANCH  39  40
ENDBRANCH  37  39
ENDBRANCH  36  37
ENDBRANCH   1  36
TORSDOF 43
