REMARK  9 active torsions:
REMARK  status: ('A' for Active; 'I' for Inactive)
REMARK    1  A    between atoms: C_4  and  C_3 
REMARK    2  A    between atoms: O_10  and  C_3 
REMARK    3  A    between atoms: C_5  and  O_11 
REMARK    4  A    between atoms: C_6  and  O_12 
REMARK    5  A    between atoms: C_7  and  O_13 
REMARK    6  A    between atoms: C_8  and  N_9 
REMARK    7  A    between atoms: P_18  and  N_9 
REMARK    8  A    between atoms: P_18  and  O_15 
REMARK    9  A    between atoms: P_18  and  O_16 
ROOT
HETATM    1  C   UNK N   1       2.261   1.234   0.438  0.00  0.00     0.179 C 
HETATM    2  C   UNK N   1       1.302   2.315  -0.144  0.00  0.00     0.180 C 
HETATM    3  C   UNK N   1      -0.128   1.757  -0.337  0.00  0.00     0.182 C 
HETATM    4  C   UNK N   1      -0.338   0.588   0.616  0.00  0.00     0.198 C 
HETATM    5  C   UNK N   1       0.678  -0.531   0.203  0.00  0.00     0.257 C 
HETATM    6  O   UNK N   1       1.994  -0.048  -0.102  0.00  0.00    -0.354 OA
ENDROOT
BRANCH   5   7
HETATM    7  N   UNK N   1       0.186  -1.208  -1.024  0.00  0.00    -0.299 N 
HETATM    8  H   UNK N   1      -0.052  -0.663  -1.853  0.00  0.00     0.167 HD
BRANCH   7   9
HETATM    9  P   UNK N   1       0.010  -3.041  -1.033  0.00  0.00     0.431 P 
HETATM   10  O   UNK N   1       1.412  -2.985  -0.363  0.00  0.00    -0.234 OA
BRANCH   9  11
HETATM   11  O   UNK N   1      -1.352  -2.430  -0.137  0.00  0.00    -0.303 OA
HETATM   12  C   UNK N   1      -2.449  -2.605  -0.989  0.00  0.00     0.214 C 
ENDBRANCH   9  11
BRANCH   9  13
HETATM   13  O   UNK N   1      -0.200  -3.813   0.517  0.00  0.00    -0.303 OA
HETATM   14  C   UNK N   1      -0.541  -5.140   0.231  0.00  0.00     0.214 C 
ENDBRANCH   9  13
ENDBRANCH   7   9
ENDBRANCH   5   7
BRANCH   4  15
HETATM   15  O   UNK N   1      -1.653   0.125   0.565  0.00  0.00    -0.389 OA
HETATM   16  H   UNK N   1      -2.389   0.756   0.530  0.00  0.00     0.210 HD
ENDBRANCH   4  15
BRANCH   3  17
HETATM   17  O   UNK N   1      -1.089   2.756  -0.155  0.00  0.00    -0.390 OA
HETATM   18  H   UNK N   1      -0.822   3.680  -0.028  0.00  0.00     0.210 HD
ENDBRANCH   3  17
BRANCH   1  19
HETATM   19  C   UNK N   1       3.720   1.598   0.178  0.00  0.00     0.198 C 
BRANCH  19  20
HETATM   20  O   UNK N   1       4.055   2.801   0.803  0.00  0.00    -0.398 OA
HETATM   21  H   UNK N   1       4.895   3.017   1.236  0.00  0.00     0.209 HD
ENDBRANCH  19  20
ENDBRANCH   1  19
BRANCH   2  22
HETATM   22  O   UNK N   1       1.288   3.400   0.742  0.00  0.00    -0.390 OA
HETATM   23  H   UNK N   1       1.933   3.784   1.355  0.00  0.00     0.210 HD
ENDBRANCH   2  22
TORSDOF 9
