MODEL 1
REMARK VINA RESULT:      -6.1      0.000      0.000
REMARK  9 active torsions:
REMARK  status: ('A' for Active; 'I' for Inactive)
REMARK    1  A    between atoms: C_4  and  C_3 
REMARK    2  A    between atoms: O_15  and  C_3 
REMARK    3  A    between atoms: C_6  and  O_16 
REMARK    4  A    between atoms: C_7  and  O_22 
REMARK    5  A    between atoms: C_8  and  N_14 
REMARK    6  A    between atoms: O_17  and  C_9 
REMARK    7  A    between atoms: P_23  and  O_18 
REMARK    8  A    between atoms: P_23  and  O_19 
REMARK    9  A    between atoms: P_23  and  O_22 
ROOT
HETATM    1  C   UNK N   1      20.446  20.171   2.437  0.00  0.00     0.179 C 
HETATM    2  C   UNK N   1      19.935  18.770   2.071  0.00  0.00     0.183 C 
HETATM    3  C   UNK N   1      20.839  17.875   2.917  0.00  0.00     0.214 C 
HETATM    4  C   UNK N   1      21.558  18.838   3.870  0.00  0.00     0.263 C 
HETATM    5  O   UNK N   1      21.678  20.029   3.109  0.00  0.00    -0.353 OA
ENDROOT
BRANCH   4   6
HETATM    6  N   UNK N   1      22.898  18.379   4.320  0.00  0.00    -0.293 N 
HETATM    7  C   UNK N   1      24.006  18.990   3.800  0.00  0.00     0.101 A 
HETATM    8  C   UNK N   1      25.286  18.653   4.231  0.00  0.00     0.065 A 
HETATM    9  C   UNK N   1      25.418  17.675   5.204  0.00  0.00     0.102 A 
HETATM   10  N   UNK N   1      26.576  17.350   5.635  0.00  0.00    -0.385 N 
HETATM   11  N   UNK N   1      24.314  17.069   5.704  0.00  0.00    -0.308 N 
HETATM   12  H   UNK N   1      26.683  16.681   6.349  0.00  0.00     0.157 HD
ATOM     13  HN  UNK N   1      27.403  17.791   5.233  1.00  0.00     0.157 HD
HETATM   14  C   UNK N   1      23.067  17.408   5.280  0.00  0.00     0.227 A 
ATOM     15  HN  UNK N   1      24.420  16.344   6.412  1.00  0.00     0.171 HD
BRANCH  14  16
HETATM   16  O   UNK N   1      22.015  16.787   5.825  0.00  0.00    -0.332 OA
HETATM   17  H   UNK N   1      22.114  15.929   6.187  0.00  0.00     0.221 HD
ENDBRANCH  14  16
ENDBRANCH   4   6
BRANCH   3  18
HETATM   18  O   UNK N   1      20.271  16.672   3.413  0.00  0.00    -0.284 OA
BRANCH  18  19
HETATM   19  P   UNK N   1      20.375  15.303   2.299  0.00  0.00     0.391 P 
HETATM   20  O   UNK N   1      21.330  14.275   2.959  0.00  0.00    -0.632 OA
BRANCH  19  21
HETATM   21  O   UNK N   1      21.049  15.635   0.732  0.00  0.00    -0.307 OA
HETATM   22  H   UNK N   1      21.819  15.623   0.142  0.00  0.00     0.222 HD
ENDBRANCH  19  21
BRANCH  19  23
HETATM   23  O   UNK N   1      18.856  14.476   2.144  0.00  0.00    -0.307 OA
HETATM   24  H   UNK N   1      18.773  13.675   1.603  0.00  0.00     0.222 HD
ENDBRANCH  19  23
ENDBRANCH  18  19
ENDBRANCH   3  18
BRANCH   2  25
HETATM   25  O   UNK N   1      18.574  18.673   2.365  0.00  0.00    -0.390 OA
HETATM   26  H   UNK N   1      18.217  18.378   3.217  0.00  0.00     0.210 HD
ENDBRANCH   2  25
BRANCH   1  27
HETATM   27  C   UNK N   1      20.605  21.063   1.211  0.00  0.00     0.198 C 
BRANCH  27  28
HETATM   28  O   UNK N   1      20.553  20.302   0.042  0.00  0.00    -0.398 OA
HETATM   29  H   UNK N   1      21.181  19.576  -0.094  0.00  0.00     0.209 HD
ENDBRANCH  27  28
ENDBRANCH   1  27
TORSDOF 9
ENDMDL
MODEL 2
REMARK VINA RESULT:      -5.9      9.047     11.579
REMARK  9 active torsions:
REMARK  status: ('A' for Active; 'I' for Inactive)
REMARK    1  A    between atoms: C_4  and  C_3 
REMARK    2  A    between atoms: O_15  and  C_3 
REMARK    3  A    between atoms: C_6  and  O_16 
REMARK    4  A    between atoms: C_7  and  O_22 
REMARK    5  A    between atoms: C_8  and  N_14 
REMARK    6  A    between atoms: O_17  and  C_9 
REMARK    7  A    between atoms: P_23  and  O_18 
REMARK    8  A    between atoms: P_23  and  O_19 
REMARK    9  A    between atoms: P_23  and  O_22 
ROOT
HETATM    1  C   UNK N   1      29.370  17.809   7.741  0.00  0.00     0.179 C 
HETATM    2  C   UNK N   1      30.207  17.139   8.840  0.00  0.00     0.183 C 
HETATM    3  C   UNK N   1      31.434  16.671   8.060  0.00  0.00     0.214 C 
HETATM    4  C   UNK N   1      31.309  17.355   6.692  0.00  0.00     0.263 C 
HETATM    5  O   UNK N   1      29.908  17.439   6.490  0.00  0.00    -0.353 OA
ENDROOT
BRANCH   4   6
HETATM    6  N   UNK N   1      31.947  16.617   5.570  0.00  0.00    -0.293 N 
HETATM    7  C   UNK N   1      31.163  15.813   4.789  0.00  0.00     0.101 A 
HETATM    8  C   UNK N   1      31.686  15.149   3.683  0.00  0.00     0.065 A 
HETATM    9  C   UNK N   1      33.029  15.318   3.387  0.00  0.00     0.102 A 
HETATM   10  N   UNK N   1      33.540  14.736   2.371  0.00  0.00    -0.385 N 
HETATM   11  N   UNK N   1      33.798  16.107   4.174  0.00  0.00    -0.308 N 
HETATM   12  H   UNK N   1      34.485  14.873   2.129  0.00  0.00     0.157 HD
ATOM     13  HN  UNK N   1      32.961  14.121   1.800  1.00  0.00     0.157 HD
HETATM   14  C   UNK N   1      33.278  16.755   5.251  0.00  0.00     0.227 A 
ATOM     15  HN  UNK N   1      34.788  16.219   3.956  1.00  0.00     0.171 HD
BRANCH  14  16
HETATM   16  O   UNK N   1      34.083  17.537   5.979  0.00  0.00    -0.332 OA
HETATM   17  H   UNK N   1      34.848  17.913   5.589  0.00  0.00     0.221 HD
ENDBRANCH  14  16
ENDBRANCH   4   6
BRANCH   3  18
HETATM   18  O   UNK N   1      32.675  16.676   8.749  0.00  0.00    -0.284 OA
BRANCH  18  19
HETATM   19  P   UNK N   1      33.193  15.087   9.326  0.00  0.00     0.391 P 
HETATM   20  O   UNK N   1      34.676  14.929   8.899  0.00  0.00    -0.632 OA
BRANCH  19  21
HETATM   21  O   UNK N   1      32.362  13.715   8.656  0.00  0.00    -0.307 OA
HETATM   22  H   UNK N   1      31.666  13.045   8.743  0.00  0.00     0.222 HD
ENDBRANCH  19  21
BRANCH  19  23
HETATM   23  O   UNK N   1      33.209  15.000  11.061  0.00  0.00    -0.307 OA
HETATM   24  H   UNK N   1      33.877  14.477  11.531  0.00  0.00     0.222 HD
ENDBRANCH  19  23
ENDBRANCH  18  19
ENDBRANCH   3  18
BRANCH   2  25
HETATM   25  O   UNK N   1      30.474  18.059   9.855  0.00  0.00    -0.390 OA
HETATM   26  H   UNK N   1      30.512  17.840  10.799  0.00  0.00     0.210 HD
ENDBRANCH   2  25
BRANCH   1  27
HETATM   27  C   UNK N   1      27.897  17.424   7.824  0.00  0.00     0.198 C 
BRANCH  27  28
HETATM   28  O   UNK N   1      27.472  17.403   9.153  0.00  0.00    -0.398 OA
HETATM   29  H   UNK N   1      28.083  17.657   9.863  0.00  0.00     0.209 HD
ENDBRANCH  27  28
ENDBRANCH   1  27
TORSDOF 9
ENDMDL
MODEL 3
REMARK VINA RESULT:      -5.8      9.189     11.598
REMARK  9 active torsions:
REMARK  status: ('A' for Active; 'I' for Inactive)
REMARK    1  A    between atoms: C_4  and  C_3 
REMARK    2  A    between atoms: O_15  and  C_3 
REMARK    3  A    between atoms: C_6  and  O_16 
REMARK    4  A    between atoms: C_7  and  O_22 
REMARK    5  A    between atoms: C_8  and  N_14 
REMARK    6  A    between atoms: O_17  and  C_9 
REMARK    7  A    between atoms: P_23  and  O_18 
REMARK    8  A    between atoms: P_23  and  O_19 
REMARK    9  A    between atoms: P_23  and  O_22 
ROOT
HETATM    1  C   UNK N   1      29.233  17.304   8.142  0.00  0.00     0.179 C 
HETATM    2  C   UNK N   1      29.808  17.367   6.720  0.00  0.00     0.183 C 
HETATM    3  C   UNK N   1      31.214  16.806   6.923  0.00  0.00     0.214 C 
HETATM    4  C   UNK N   1      31.201  16.229   8.345  0.00  0.00     0.263 C 
HETATM    5  O   UNK N   1      30.300  17.076   9.038  0.00  0.00    -0.353 OA
ENDROOT
BRANCH   4   6
HETATM    6  N   UNK N   1      32.524  16.221   9.023  0.00  0.00    -0.293 N 
HETATM    7  C   UNK N   1      32.940  15.066   9.627  0.00  0.00     0.101 A 
HETATM    8  C   UNK N   1      34.196  14.974  10.220  0.00  0.00     0.065 A 
HETATM    9  C   UNK N   1      35.024  16.085  10.187  0.00  0.00     0.102 A 
HETATM   10  N   UNK N   1      36.189  16.032  10.707  0.00  0.00    -0.385 N 
HETATM   11  N   UNK N   1      34.597  17.226   9.595  0.00  0.00    -0.308 N 
HETATM   12  H   UNK N   1      36.801  16.802  10.663  0.00  0.00     0.157 HD
ATOM     13  HN  UNK N   1      36.492  15.178  11.176  1.00  0.00     0.157 HD
HETATM   14  C   UNK N   1      33.369  17.306   9.016  0.00  0.00     0.227 A 
ATOM     15  HN  UNK N   1      35.207  18.042   9.584  1.00  0.00     0.171 HD
BRANCH  14  16
HETATM   16  O   UNK N   1      33.011  18.454   8.430  0.00  0.00    -0.332 OA
HETATM   17  H   UNK N   1      32.908  19.230   8.944  0.00  0.00     0.221 HD
ENDBRANCH  14  16
ENDBRANCH   4   6
BRANCH   3  18
HETATM   18  O   UNK N   1      31.769  16.055   5.854  0.00  0.00    -0.284 OA
BRANCH  18  19
HETATM   19  P   UNK N   1      32.901  16.959   4.840  0.00  0.00     0.391 P 
HETATM   20  O   UNK N   1      33.673  15.906   4.002  0.00  0.00    -0.632 OA
BRANCH  19  21
HETATM   21  O   UNK N   1      34.116  17.880   5.674  0.00  0.00    -0.307 OA
HETATM   22  H   UNK N   1      34.407  18.323   6.486  0.00  0.00     0.222 HD
ENDBRANCH  19  21
BRANCH  19  23
HETATM   23  O   UNK N   1      32.079  17.951   3.675  0.00  0.00    -0.307 OA
HETATM   24  H   UNK N   1      31.392  18.579   3.946  0.00  0.00     0.222 HD
ENDBRANCH  19  23
ENDBRANCH  18  19
ENDBRANCH   3  18
BRANCH   2  25
HETATM   25  O   UNK N   1      29.002  16.626   5.854  0.00  0.00    -0.390 OA
HETATM   26  H   UNK N   1      28.995  15.657   5.805  0.00  0.00     0.210 HD
ENDBRANCH   2  25
BRANCH   1  27
HETATM   27  C   UNK N   1      28.484  18.578   8.517  0.00  0.00     0.198 C 
BRANCH  27  28
HETATM   28  O   UNK N   1      27.405  18.282   9.351  0.00  0.00    -0.398 OA
HETATM   29  H   UNK N   1      27.440  17.510   9.936  0.00  0.00     0.209 HD
ENDBRANCH  27  28
ENDBRANCH   1  27
TORSDOF 9
ENDMDL
MODEL 4
REMARK VINA RESULT:      -5.7     12.047     15.014
REMARK  9 active torsions:
REMARK  status: ('A' for Active; 'I' for Inactive)
REMARK    1  A    between atoms: C_4  and  C_3 
REMARK    2  A    between atoms: O_15  and  C_3 
REMARK    3  A    between atoms: C_6  and  O_16 
REMARK    4  A    between atoms: C_7  and  O_22 
REMARK    5  A    between atoms: C_8  and  N_14 
REMARK    6  A    between atoms: O_17  and  C_9 
REMARK    7  A    between atoms: P_23  and  O_18 
REMARK    8  A    between atoms: P_23  and  O_19 
REMARK    9  A    between atoms: P_23  and  O_22 
ROOT
HETATM    1  C   UNK N   1      36.344  13.765  10.260  0.00  0.00     0.179 C 
HETATM    2  C   UNK N   1      36.406  15.298  10.197  0.00  0.00     0.183 C 
HETATM    3  C   UNK N   1      35.186  15.627   9.337  0.00  0.00     0.214 C 
HETATM    4  C   UNK N   1      34.410  14.306   9.242  0.00  0.00     0.263 C 
HETATM    5  O   UNK N   1      35.429  13.321   9.282  0.00  0.00    -0.353 OA
ENDROOT
BRANCH   4   6
HETATM    6  N   UNK N   1      33.596  14.154   8.007  0.00  0.00    -0.293 N 
HETATM    7  C   UNK N   1      34.089  13.380   6.992  0.00  0.00     0.101 A 
HETATM    8  C   UNK N   1      33.346  13.143   5.840  0.00  0.00     0.065 A 
HETATM    9  C   UNK N   1      32.087  13.714   5.737  0.00  0.00     0.102 A 
HETATM   10  N   UNK N   1      31.371  13.506   4.700  0.00  0.00    -0.385 N 
HETATM   11  N   UNK N   1      31.615  14.487   6.743  0.00  0.00    -0.308 N 
HETATM   12  H   UNK N   1      30.462  13.877   4.627  0.00  0.00     0.157 HD
ATOM     13  HN  UNK N   1      31.745  12.945   3.934  1.00  0.00     0.157 HD
HETATM   14  C   UNK N   1      32.346  14.710   7.868  0.00  0.00     0.227 A 
ATOM     15  HN  UNK N   1      30.692  14.912   6.657  1.00  0.00     0.171 HD
BRANCH  14  16
HETATM   16  O   UNK N   1      31.817  15.468   8.836  0.00  0.00    -0.332 OA
HETATM   17  H   UNK N   1      31.597  15.085   9.662  0.00  0.00     0.221 HD
ENDBRANCH  14  16
ENDBRANCH   4   6
BRANCH   3  18
HETATM   18  O   UNK N   1      34.501  16.836   9.628  0.00  0.00    -0.284 OA
BRANCH  18  19
HETATM   19  P   UNK N   1      34.393  17.957   8.265  0.00  0.00     0.391 P 
HETATM   20  O   UNK N   1      32.920  18.440   8.212  0.00  0.00    -0.632 OA
BRANCH  19  21
HETATM   21  O   UNK N   1      34.727  17.293   6.693  0.00  0.00    -0.307 OA
HETATM   22  H   UNK N   1      35.297  17.268   5.909  0.00  0.00     0.222 HD
ENDBRANCH  19  21
BRANCH  19  23
HETATM   23  O   UNK N   1      35.331  19.394   8.529  0.00  0.00    -0.307 OA
HETATM   24  H   UNK N   1      35.109  20.228   8.087  0.00  0.00     0.222 HD
ENDBRANCH  19  23
ENDBRANCH  18  19
ENDBRANCH   3  18
BRANCH   2  25
HETATM   25  O   UNK N   1      36.370  15.825  11.488  0.00  0.00    -0.390 OA
HETATM   26  H   UNK N   1      36.268  15.294  12.295  0.00  0.00     0.210 HD
ENDBRANCH   2  25
BRANCH   1  27
HETATM   27  C   UNK N   1      37.710  13.125  10.044  0.00  0.00     0.198 C 
BRANCH  27  28
HETATM   28  O   UNK N   1      38.725  14.062  10.243  0.00  0.00    -0.398 OA
HETATM   29  H   UNK N   1      39.163  14.128  11.105  0.00  0.00     0.209 HD
ENDBRANCH  27  28
ENDBRANCH   1  27
TORSDOF 9
ENDMDL
MODEL 5
REMARK VINA RESULT:      -5.7      9.077     11.383
REMARK  9 active torsions:
REMARK  status: ('A' for Active; 'I' for Inactive)
REMARK    1  A    between atoms: C_4  and  C_3 
REMARK    2  A    between atoms: O_15  and  C_3 
REMARK    3  A    between atoms: C_6  and  O_16 
REMARK    4  A    between atoms: C_7  and  O_22 
REMARK    5  A    between atoms: C_8  and  N_14 
REMARK    6  A    between atoms: O_17  and  C_9 
REMARK    7  A    between atoms: P_23  and  O_18 
REMARK    8  A    between atoms: P_23  and  O_19 
REMARK    9  A    between atoms: P_23  and  O_22 
ROOT
HETATM    1  C   UNK N   1      29.218  17.675   7.815  0.00  0.00     0.179 C 
HETATM    2  C   UNK N   1      30.210  17.115   8.845  0.00  0.00     0.183 C 
HETATM    3  C   UNK N   1      31.378  16.688   7.958  0.00  0.00     0.214 C 
HETATM    4  C   UNK N   1      31.064  17.295   6.584  0.00  0.00     0.263 C 
HETATM    5  O   UNK N   1      29.648  17.279   6.530  0.00  0.00    -0.353 OA
ENDROOT
BRANCH   4   6
HETATM    6  N   UNK N   1      31.631  16.545   5.432  0.00  0.00    -0.293 N 
HETATM    7  C   UNK N   1      32.424  17.217   4.543  0.00  0.00     0.101 A 
HETATM    8  C   UNK N   1      33.039  16.558   3.483  0.00  0.00     0.065 A 
HETATM    9  C   UNK N   1      32.828  15.195   3.342  0.00  0.00     0.102 A 
HETATM   10  N   UNK N   1      33.388  14.554   2.389  0.00  0.00    -0.385 N 
HETATM   11  N   UNK N   1      32.032  14.543   4.222  0.00  0.00    -0.308 N 
HETATM   12  H   UNK N   1      33.274  13.581   2.296  0.00  0.00     0.157 HD
ATOM     13  HN  UNK N   1      33.964  15.058   1.715  1.00  0.00     0.157 HD
HETATM   14  C   UNK N   1      31.438  15.195   5.257  0.00  0.00     0.227 A 
ATOM     15  HN  UNK N   1      31.873  13.542   4.106  1.00  0.00     0.171 HD
BRANCH  14  16
HETATM   16  O   UNK N   1      30.677  14.492   6.104  0.00  0.00    -0.332 OA
HETATM   17  H   UNK N   1      30.156  13.781   5.787  0.00  0.00     0.221 HD
ENDBRANCH  14  16
ENDBRANCH   4   6
BRANCH   3  18
HETATM   18  O   UNK N   1      32.681  16.807   8.509  0.00  0.00    -0.284 OA
BRANCH  18  19
HETATM   19  P   UNK N   1      33.315  15.312   9.207  0.00  0.00     0.391 P 
HETATM   20  O   UNK N   1      32.621  14.148   8.453  0.00  0.00    -0.632 OA
BRANCH  19  21
HETATM   21  O   UNK N   1      32.981  15.046  10.892  0.00  0.00    -0.307 OA
HETATM   22  H   UNK N   1      32.580  15.363  11.717  0.00  0.00     0.222 HD
ENDBRANCH  19  21
BRANCH  19  23
HETATM   23  O   UNK N   1      35.010  15.113   8.886  0.00  0.00    -0.307 OA
HETATM   24  H   UNK N   1      35.539  14.456   9.366  0.00  0.00     0.222 HD
ENDBRANCH  19  23
ENDBRANCH  18  19
ENDBRANCH   3  18
BRANCH   2  25
HETATM   25  O   UNK N   1      30.518  18.099   9.785  0.00  0.00    -0.390 OA
HETATM   26  H   UNK N   1      31.245  18.735   9.696  0.00  0.00     0.210 HD
ENDBRANCH   2  25
BRANCH   1  27
HETATM   27  C   UNK N   1      27.793  17.200   8.072  0.00  0.00     0.198 C 
BRANCH  27  28
HETATM   28  O   UNK N   1      27.439  17.417   9.405  0.00  0.00    -0.398 OA
HETATM   29  H   UNK N   1      27.050  18.264   9.673  0.00  0.00     0.209 HD
ENDBRANCH  27  28
ENDBRANCH   1  27
TORSDOF 9
ENDMDL
MODEL 6
REMARK VINA RESULT:      -5.7     13.684     16.074
REMARK  9 active torsions:
REMARK  status: ('A' for Active; 'I' for Inactive)
REMARK    1  A    between atoms: C_4  and  C_3 
REMARK    2  A    between atoms: O_15  and  C_3 
REMARK    3  A    between atoms: C_6  and  O_16 
REMARK    4  A    between atoms: C_7  and  O_22 
REMARK    5  A    between atoms: C_8  and  N_14 
REMARK    6  A    between atoms: O_17  and  C_9 
REMARK    7  A    between atoms: P_23  and  O_18 
REMARK    8  A    between atoms: P_23  and  O_19 
REMARK    9  A    between atoms: P_23  and  O_22 
ROOT
HETATM    1  C   UNK N   1      33.822  16.024   8.003  0.00  0.00     0.179 C 
HETATM    2  C   UNK N   1      35.084  15.451   7.341  0.00  0.00     0.183 C 
HETATM    3  C   UNK N   1      35.727  14.688   8.498  0.00  0.00     0.214 C 
HETATM    4  C   UNK N   1      34.651  14.663   9.593  0.00  0.00     0.263 C 
HETATM    5  O   UNK N   1      33.955  15.883   9.401  0.00  0.00    -0.353 OA
ENDROOT
BRANCH   4   6
HETATM    6  N   UNK N   1      35.181  14.586  10.980  0.00  0.00    -0.293 N 
HETATM    7  C   UNK N   1      34.899  13.475  11.725  0.00  0.00     0.101 A 
HETATM    8  C   UNK N   1      35.422  13.312  13.005  0.00  0.00     0.065 A 
HETATM    9  C   UNK N   1      36.238  14.309  13.516  0.00  0.00     0.102 A 
HETATM   10  N   UNK N   1      36.748  14.186  14.681  0.00  0.00    -0.385 N 
HETATM   11  N   UNK N   1      36.502  15.409  12.772  0.00  0.00    -0.308 N 
HETATM   12  H   UNK N   1      37.356  14.870  15.043  0.00  0.00     0.157 HD
ATOM     13  HN  UNK N   1      36.522  13.367  15.245  1.00  0.00     0.157 HD
HETATM   14  C   UNK N   1      35.990  15.558  11.521  0.00  0.00     0.227 A 
ATOM     15  HN  UNK N   1      37.096  16.143  13.158  1.00  0.00     0.171 HD
BRANCH  14  16
HETATM   16  O   UNK N   1      36.302  16.660  10.829  0.00  0.00    -0.332 OA
HETATM   17  H   UNK N   1      36.979  17.230  11.136  0.00  0.00     0.221 HD
ENDBRANCH  14  16
ENDBRANCH   4   6
BRANCH   3  18
HETATM   18  O   UNK N   1      36.439  13.505   8.171  0.00  0.00    -0.284 OA
BRANCH  18  19
HETATM   19  P   UNK N   1      38.014  13.360   8.963  0.00  0.00     0.391 P 
HETATM   20  O   UNK N   1      37.836  12.321  10.101  0.00  0.00    -0.632 OA
BRANCH  19  21
HETATM   21  O   UNK N   1      38.626  14.796   9.728  0.00  0.00    -0.307 OA
HETATM   22  H   UNK N   1      38.793  15.751   9.685  0.00  0.00     0.222 HD
ENDBRANCH  19  21
BRANCH  19  23
HETATM   23  O   UNK N   1      39.211  12.677   7.907  0.00  0.00    -0.307 OA
HETATM   24  H   UNK N   1      40.091  13.076   7.820  0.00  0.00     0.222 HD
ENDBRANCH  19  23
ENDBRANCH  18  19
ENDBRANCH   3  18
BRANCH   2  25
HETATM   25  O   UNK N   1      34.725  14.663   6.248  0.00  0.00    -0.390 OA
HETATM   26  H   UNK N   1      34.539  13.712   6.294  0.00  0.00     0.210 HD
ENDBRANCH   2  25
BRANCH   1  27
HETATM   27  C   UNK N   1      33.591  17.485   7.633  0.00  0.00     0.198 C 
BRANCH  27  28
HETATM   28  O   UNK N   1      34.386  17.844   6.544  0.00  0.00    -0.398 OA
HETATM   29  H   UNK N   1      35.352  17.795   6.610  0.00  0.00     0.209 HD
ENDBRANCH  27  28
ENDBRANCH   1  27
TORSDOF 9
ENDMDL
MODEL 7
REMARK VINA RESULT:      -5.7     14.474     16.506
REMARK  9 active torsions:
REMARK  status: ('A' for Active; 'I' for Inactive)
REMARK    1  A    between atoms: C_4  and  C_3 
REMARK    2  A    between atoms: O_15  and  C_3 
REMARK    3  A    between atoms: C_6  and  O_16 
REMARK    4  A    between atoms: C_7  and  O_22 
REMARK    5  A    between atoms: C_8  and  N_14 
REMARK    6  A    between atoms: O_17  and  C_9 
REMARK    7  A    between atoms: P_23  and  O_18 
REMARK    8  A    between atoms: P_23  and  O_19 
REMARK    9  A    between atoms: P_23  and  O_22 
ROOT
HETATM    1  C   UNK N   1      35.207  13.829  11.770  0.00  0.00     0.179 C 
HETATM    2  C   UNK N   1      34.581  15.048  11.076  0.00  0.00     0.183 C 
HETATM    3  C   UNK N   1      35.193  14.963   9.679  0.00  0.00     0.214 C 
HETATM    4  C   UNK N   1      35.861  13.582   9.630  0.00  0.00     0.263 C 
HETATM    5  O   UNK N   1      36.273  13.366  10.970  0.00  0.00    -0.353 OA
ENDROOT
BRANCH   4   6
HETATM    6  N   UNK N   1      37.028  13.491   8.713  0.00  0.00    -0.293 N 
HETATM    7  C   UNK N   1      36.879  12.814   7.534  0.00  0.00     0.101 A 
HETATM    8  C   UNK N   1      37.911  12.750   6.603  0.00  0.00     0.065 A 
HETATM    9  C   UNK N   1      39.105  13.389   6.897  0.00  0.00     0.102 A 
HETATM   10  N   UNK N   1      40.070  13.365   6.059  0.00  0.00    -0.385 N 
HETATM   11  N   UNK N   1      39.245  14.047   8.072  0.00  0.00    -0.308 N 
HETATM   12  H   UNK N   1      40.912  13.842   6.240  0.00  0.00     0.157 HD
ATOM     13  HN  UNK N   1      39.966  12.843   5.189  1.00  0.00     0.157 HD
HETATM   14  C   UNK N   1      38.229  14.108   8.975  0.00  0.00     0.227 A 
ATOM     15  HN  UNK N   1      40.129  14.507   8.286  1.00  0.00     0.171 HD
BRANCH  14  16
HETATM   16  O   UNK N   1      38.421  14.789  10.110  0.00  0.00    -0.332 OA
HETATM   17  H   UNK N   1      39.102  14.534  10.700  0.00  0.00     0.221 HD
ENDBRANCH  14  16
ENDBRANCH   4   6
BRANCH   3  18
HETATM   18  O   UNK N   1      34.389  15.404   8.596  0.00  0.00    -0.284 OA
BRANCH  18  19
HETATM   19  P   UNK N   1      34.175  17.158   8.515  0.00  0.00     0.391 P 
HETATM   20  O   UNK N   1      35.209  17.769   9.495  0.00  0.00    -0.632 OA
BRANCH  19  21
HETATM   21  O   UNK N   1      32.628  17.769   9.020  0.00  0.00    -0.307 OA
HETATM   22  H   UNK N   1      31.993  18.502   9.038  0.00  0.00     0.222 HD
ENDBRANCH  19  21
BRANCH  19  23
HETATM   23  O   UNK N   1      34.599  17.792   6.955  0.00  0.00    -0.307 OA
HETATM   24  H   UNK N   1      34.470  17.270   6.148  0.00  0.00     0.222 HD
ENDBRANCH  19  23
ENDBRANCH  18  19
ENDBRANCH   3  18
BRANCH   2  25
HETATM   25  O   UNK N   1      33.189  14.946  11.112  0.00  0.00    -0.390 OA
HETATM   26  H   UNK N   1      32.608  15.093  10.349  0.00  0.00     0.210 HD
ENDBRANCH   2  25
BRANCH   1  27
HETATM   27  C   UNK N   1      35.696  14.157  13.176  0.00  0.00     0.198 C 
BRANCH  27  28
HETATM   28  O   UNK N   1      34.923  13.493  14.129  0.00  0.00    -0.398 OA
HETATM   29  H   UNK N   1      34.089  13.072  13.871  0.00  0.00     0.209 HD
ENDBRANCH  27  28
ENDBRANCH   1  27
TORSDOF 9
ENDMDL
MODEL 8
REMARK VINA RESULT:      -5.7      6.511      9.455
REMARK  9 active torsions:
REMARK  status: ('A' for Active; 'I' for Inactive)
REMARK    1  A    between atoms: C_4  and  C_3 
REMARK    2  A    between atoms: O_15  and  C_3 
REMARK    3  A    between atoms: C_6  and  O_16 
REMARK    4  A    between atoms: C_7  and  O_22 
REMARK    5  A    between atoms: C_8  and  N_14 
REMARK    6  A    between atoms: O_17  and  C_9 
REMARK    7  A    between atoms: P_23  and  O_18 
REMARK    8  A    between atoms: P_23  and  O_19 
REMARK    9  A    between atoms: P_23  and  O_22 
ROOT
HETATM    1  C   UNK N   1      31.476  16.717   4.970  0.00  0.00     0.179 C 
HETATM    2  C   UNK N   1      31.503  17.030   6.473  0.00  0.00     0.183 C 
HETATM    3  C   UNK N   1      30.029  17.308   6.764  0.00  0.00     0.214 C 
HETATM    4  C   UNK N   1      29.291  16.855   5.496  0.00  0.00     0.263 C 
HETATM    5  O   UNK N   1      30.223  17.117   4.460  0.00  0.00    -0.353 OA
ENDROOT
BRANCH   4   6
HETATM    6  N   UNK N   1      28.015  17.571   5.234  0.00  0.00    -0.293 N 
HETATM    7  C   UNK N   1      27.997  18.539   4.268  0.00  0.00     0.101 A 
HETATM    8  C   UNK N   1      26.819  19.198   3.928  0.00  0.00     0.065 A 
HETATM    9  C   UNK N   1      25.654  18.852   4.594  0.00  0.00     0.102 A 
HETATM   10  N   UNK N   1      24.552  19.425   4.297  0.00  0.00    -0.385 N 
HETATM   11  N   UNK N   1      25.686  17.899   5.555  0.00  0.00    -0.308 N 
HETATM   12  H   UNK N   1      23.710  19.166   4.739  0.00  0.00     0.157 HD
ATOM     13  HN  UNK N   1      24.541  20.161   3.592  1.00  0.00     0.157 HD
HETATM   14  C   UNK N   1      26.841  17.258   5.879  0.00  0.00     0.227 A 
ATOM     15  HN  UNK N   1      24.827  17.657   6.048  1.00  0.00     0.171 HD
BRANCH  14  16
HETATM   16  O   UNK N   1      26.805  16.312   6.824  0.00  0.00    -0.332 OA
HETATM   17  H   UNK N   1      25.986  16.055   7.198  0.00  0.00     0.221 HD
ENDBRANCH  14  16
ENDBRANCH   4   6
BRANCH   3  18
HETATM   18  O   UNK N   1      29.543  16.932   8.044  0.00  0.00    -0.284 OA
BRANCH  18  19
HETATM   19  P   UNK N   1      28.844  18.262   8.976  0.00  0.00     0.391 P 
HETATM   20  O   UNK N   1      28.736  19.466   8.005  0.00  0.00    -0.632 OA
BRANCH  19  21
HETATM   21  O   UNK N   1      29.776  18.829  10.328  0.00  0.00    -0.307 OA
HETATM   22  H   UNK N   1      29.795  19.209  11.221  0.00  0.00     0.222 HD
ENDBRANCH  19  21
BRANCH  19  23
HETATM   23  O   UNK N   1      27.211  17.924   9.463  0.00  0.00    -0.307 OA
HETATM   24  H   UNK N   1      26.500  18.567   9.316  0.00  0.00     0.222 HD
ENDBRANCH  19  23
ENDBRANCH  18  19
ENDBRANCH   3  18
BRANCH   2  25
HETATM   25  O   UNK N   1      32.043  15.948   7.170  0.00  0.00    -0.390 OA
HETATM   26  H   UNK N   1      31.520  15.294   7.660  0.00  0.00     0.210 HD
ENDBRANCH   2  25
BRANCH   1  27
HETATM   27  C   UNK N   1      32.606  17.410   4.218  0.00  0.00     0.198 C 
BRANCH  27  28
HETATM   28  O   UNK N   1      33.534  17.943   5.114  0.00  0.00    -0.398 OA
HETATM   29  H   UNK N   1      34.422  18.184   4.807  0.00  0.00     0.209 HD
ENDBRANCH  27  28
ENDBRANCH   1  27
TORSDOF 9
ENDMDL
MODEL 9
REMARK VINA RESULT:      -5.6     11.249     13.736
REMARK  9 active torsions:
REMARK  status: ('A' for Active; 'I' for Inactive)
REMARK    1  A    between atoms: C_4  and  C_3 
REMARK    2  A    between atoms: O_15  and  C_3 
REMARK    3  A    between atoms: C_6  and  O_16 
REMARK    4  A    between atoms: C_7  and  O_22 
REMARK    5  A    between atoms: C_8  and  N_14 
REMARK    6  A    between atoms: O_17  and  C_9 
REMARK    7  A    between atoms: P_23  and  O_18 
REMARK    8  A    between atoms: P_23  and  O_19 
REMARK    9  A    between atoms: P_23  and  O_22 
ROOT
HETATM    1  C   UNK N   1      35.372  14.433   9.746  0.00  0.00     0.179 C 
HETATM    2  C   UNK N   1      34.305  15.462  10.147  0.00  0.00     0.183 C 
HETATM    3  C   UNK N   1      33.443  15.528   8.887  0.00  0.00     0.214 C 
HETATM    4  C   UNK N   1      33.923  14.352   8.026  0.00  0.00     0.263 C 
HETATM    5  O   UNK N   1      35.299  14.243   8.350  0.00  0.00    -0.353 OA
ENDROOT
BRANCH   4   6
HETATM    6  N   UNK N   1      33.753  14.546   6.562  0.00  0.00    -0.293 N 
HETATM    7  C   UNK N   1      34.856  14.854   5.813  0.00  0.00     0.101 A 
HETATM    8  C   UNK N   1      34.775  14.982   4.429  0.00  0.00     0.065 A 
HETATM    9  C   UNK N   1      33.546  14.791   3.819  0.00  0.00     0.102 A 
HETATM   10  N   UNK N   1      33.438  14.885   2.550  0.00  0.00    -0.385 N 
HETATM   11  N   UNK N   1      32.460  14.496   4.572  0.00  0.00    -0.308 N 
HETATM   12  H   UNK N   1      32.578  14.720   2.100  0.00  0.00     0.157 HD
ATOM     13  HN  UNK N   1      34.255  15.135   1.993  1.00  0.00     0.157 HD
HETATM   14  C   UNK N   1      32.547  14.370   5.923  0.00  0.00     0.227 A 
ATOM     15  HN  UNK N   1      31.556  14.367   4.118  1.00  0.00     0.171 HD
BRANCH  14  16
HETATM   16  O   UNK N   1      31.443  14.059   6.611  0.00  0.00    -0.332 OA
HETATM   17  H   UNK N   1      31.140  13.173   6.634  0.00  0.00     0.221 HD
ENDBRANCH  14  16
ENDBRANCH   4   6
BRANCH   3  18
HETATM   18  O   UNK N   1      32.054  15.759   9.068  0.00  0.00    -0.284 OA
BRANCH  18  19
HETATM   19  P   UNK N   1      31.477  17.290   8.398  0.00  0.00     0.391 P 
HETATM   20  O   UNK N   1      32.741  18.107   8.025  0.00  0.00    -0.632 OA
BRANCH  19  21
HETATM   21  O   UNK N   1      30.560  18.304   9.471  0.00  0.00    -0.307 OA
HETATM   22  H   UNK N   1      29.980  19.072   9.591  0.00  0.00     0.222 HD
ENDBRANCH  19  21
BRANCH  19  23
HETATM   23  O   UNK N   1      30.626  17.063   6.901  0.00  0.00    -0.307 OA
HETATM   24  H   UNK N   1      29.794  17.527   6.721  0.00  0.00     0.222 HD
ENDBRANCH  19  23
ENDBRANCH  18  19
ENDBRANCH   3  18
BRANCH   2  25
HETATM   25  O   UNK N   1      33.636  15.025  11.291  0.00  0.00    -0.390 OA
HETATM   26  H   UNK N   1      33.793  14.173  11.727  0.00  0.00     0.210 HD
ENDBRANCH   2  25
BRANCH   1  27
HETATM   27  C   UNK N   1      36.774  14.872  10.153  0.00  0.00     0.198 C 
BRANCH  27  28
HETATM   28  O   UNK N   1      36.725  16.080  10.850  0.00  0.00    -0.398 OA
HETATM   29  H   UNK N   1      35.889  16.566  10.923  0.00  0.00     0.209 HD
ENDBRANCH  27  28
ENDBRANCH   1  27
TORSDOF 9
ENDMDL
