MODEL 1
REMARK VINA RESULT:      -6.2      0.000      0.000
REMARK  8 active torsions:
REMARK  status: ('A' for Active; 'I' for Inactive)
REMARK    1  A    between atoms: N_1  and  C_2 
REMARK    2  A    between atoms: C_2  and  C_3 
REMARK    3  A    between atoms: C_3  and  C_4 
REMARK    4  A    between atoms: C_4  and  C_5 
REMARK    5  A    between atoms: C_5  and  N_6 
REMARK       I    between atoms: N_6  and  C_7 
REMARK    6  A    between atoms: C_7  and  C_9 
REMARK    7  A    between atoms: C_12  and  S_15 
REMARK    8  A    between atoms: S_15  and  N_16 
ROOT
HETATM    1  C   UNK N   1      29.581  17.654   8.324  0.00  0.00     0.032 A 
HETATM    2  C   UNK N   1      29.732  16.899   7.149  0.00  0.00     0.018 A 
HETATM    3  C   UNK N   1      31.000  16.702   6.591  0.00  0.00     0.026 A 
HETATM    4  C   UNK N   1      32.128  17.237   7.219  0.00  0.00     0.079 A 
HETATM    5  C   UNK N   1      31.994  17.938   8.415  0.00  0.00     0.026 A 
HETATM    6  C   UNK N   1      30.732  18.139   8.965  0.00  0.00     0.018 A 
ENDROOT
BRANCH   1   7
HETATM    7  C   UNK N   1      28.209  17.983   8.814  0.00  0.00     0.251 C 
HETATM    8  N   UNK N   1      27.470  19.021   8.341  0.00  0.00    -0.357 N 
HETATM    9  H   UNK N   1      26.576  19.158   8.732  0.00  0.00     0.162 HD
HETATM   10  O   UNK N   1      27.704  17.256   9.661  0.00  0.00    -0.268 OA
BRANCH   8  11
HETATM   11  C   UNK N   1      27.893  19.940   7.309  0.00  0.00     0.123 C 
BRANCH  11  12
HETATM   12  C   UNK N   1      26.733  20.815   6.885  0.00  0.00     0.021 C 
BRANCH  12  13
HETATM   13  C   UNK N   1      26.942  21.274   5.456  0.00  0.00     0.021 C 
BRANCH  13  14
HETATM   14  C   UNK N   1      26.583  20.152   4.511  0.00  0.00     0.111 C 
BRANCH  14  15
HETATM   15  N   UNK N   1      27.760  19.777   3.748  0.00  0.00    -0.430 N 
HETATM   16  H   UNK N   1      28.172  20.159   2.897  0.00  0.00     0.149 HD
HETATM   17  H   UNK N   1      28.269  18.984   4.136  0.00  0.00     0.149 HD
ENDBRANCH  14  15
ENDBRANCH  13  14
ENDBRANCH  12  13
ENDBRANCH  11  12
ENDBRANCH   8  11
ENDBRANCH   1   7
BRANCH   4  18
HETATM   18  S   UNK N   1      33.701  17.260   6.380  0.00  0.00     0.256 S 
HETATM   19  O   UNK N   1      34.632  18.244   7.103  0.00  0.00    -0.201 OA
HETATM   20  O   UNK N   1      33.647  17.884   4.977  0.00  0.00    -0.201 OA
BRANCH  18  21
HETATM   21  N   UNK N   1      34.661  15.789   6.231  0.00  0.00    -0.324 N 
HETATM   22  H   UNK N   1      34.805  15.146   5.453  0.00  0.00     0.169 HD
HETATM   23  H   UNK N   1      35.167  15.534   7.079  0.00  0.00     0.169 HD
ENDBRANCH  18  21
ENDBRANCH   4  18
TORSDOF 8
ENDMDL
MODEL 2
REMARK VINA RESULT:      -5.9      1.809      2.368
REMARK  8 active torsions:
REMARK  status: ('A' for Active; 'I' for Inactive)
REMARK    1  A    between atoms: N_1  and  C_2 
REMARK    2  A    between atoms: C_2  and  C_3 
REMARK    3  A    between atoms: C_3  and  C_4 
REMARK    4  A    between atoms: C_4  and  C_5 
REMARK    5  A    between atoms: C_5  and  N_6 
REMARK       I    between atoms: N_6  and  C_7 
REMARK    6  A    between atoms: C_7  and  C_9 
REMARK    7  A    between atoms: C_12  and  S_15 
REMARK    8  A    between atoms: S_15  and  N_16 
ROOT
HETATM    1  C   UNK N   1      29.492  17.510   7.798  0.00  0.00     0.032 A 
HETATM    2  C   UNK N   1      30.095  18.424   8.678  0.00  0.00     0.018 A 
HETATM    3  C   UNK N   1      31.487  18.471   8.807  0.00  0.00     0.026 A 
HETATM    4  C   UNK N   1      32.287  17.621   8.038  0.00  0.00     0.079 A 
HETATM    5  C   UNK N   1      31.700  16.752   7.121  0.00  0.00     0.026 A 
HETATM    6  C   UNK N   1      30.316  16.702   6.998  0.00  0.00     0.018 A 
ENDROOT
BRANCH   1   7
HETATM    7  C   UNK N   1      28.005  17.370   7.791  0.00  0.00     0.251 C 
HETATM    8  N   UNK N   1      27.213  17.810   6.778  0.00  0.00    -0.357 N 
HETATM    9  H   UNK N   1      26.241  17.674   6.869  0.00  0.00     0.162 HD
HETATM   10  O   UNK N   1      27.470  16.793   8.730  0.00  0.00    -0.268 OA
BRANCH   8  11
HETATM   11  C   UNK N   1      27.685  18.462   5.577  0.00  0.00     0.123 C 
BRANCH  11  12
HETATM   12  C   UNK N   1      26.894  19.728   5.330  0.00  0.00     0.021 C 
BRANCH  12  13
HETATM   13  C   UNK N   1      27.513  20.872   6.109  0.00  0.00     0.021 C 
BRANCH  13  14
HETATM   14  C   UNK N   1      26.424  21.644   6.815  0.00  0.00     0.111 C 
BRANCH  14  15
HETATM   15  N   UNK N   1      25.993  20.900   7.983  0.00  0.00    -0.430 N 
HETATM   16  H   UNK N   1      26.340  20.874   8.943  0.00  0.00     0.149 HD
HETATM   17  H   UNK N   1      25.195  20.289   7.814  0.00  0.00     0.149 HD
ENDBRANCH  14  15
ENDBRANCH  13  14
ENDBRANCH  12  13
ENDBRANCH  11  12
ENDBRANCH   8  11
ENDBRANCH   1   7
BRANCH   4  18
HETATM   18  S   UNK N   1      34.024  17.447   8.397  0.00  0.00     0.256 S 
HETATM   19  O   UNK N   1      34.742  18.749   8.013  0.00  0.00    -0.201 OA
HETATM   20  O   UNK N   1      34.746  16.437   7.493  0.00  0.00    -0.201 OA
BRANCH  18  21
HETATM   21  N   UNK N   1      34.574  17.122  10.040  0.00  0.00    -0.324 N 
HETATM   22  H   UNK N   1      34.162  17.329  10.949  0.00  0.00     0.169 HD
HETATM   23  H   UNK N   1      35.469  16.636  10.091  0.00  0.00     0.169 HD
ENDBRANCH  18  21
ENDBRANCH   4  18
TORSDOF 8
ENDMDL
MODEL 3
REMARK VINA RESULT:      -5.8      3.884      6.600
REMARK  8 active torsions:
REMARK  status: ('A' for Active; 'I' for Inactive)
REMARK    1  A    between atoms: N_1  and  C_2 
REMARK    2  A    between atoms: C_2  and  C_3 
REMARK    3  A    between atoms: C_3  and  C_4 
REMARK    4  A    between atoms: C_4  and  C_5 
REMARK    5  A    between atoms: C_5  and  N_6 
REMARK       I    between atoms: N_6  and  C_7 
REMARK    6  A    between atoms: C_7  and  C_9 
REMARK    7  A    between atoms: C_12  and  S_15 
REMARK    8  A    between atoms: S_15  and  N_16 
ROOT
HETATM    1  C   UNK N   1      33.459  17.670   7.589  0.00  0.00     0.032 A 
HETATM    2  C   UNK N   1      32.132  17.584   8.041  0.00  0.00     0.018 A 
HETATM    3  C   UNK N   1      31.095  17.301   7.147  0.00  0.00     0.026 A 
HETATM    4  C   UNK N   1      31.381  17.075   5.798  0.00  0.00     0.079 A 
HETATM    5  C   UNK N   1      32.700  17.101   5.351  0.00  0.00     0.026 A 
HETATM    6  C   UNK N   1      33.730  17.390   6.240  0.00  0.00     0.018 A 
ENDROOT
BRANCH   1   7
HETATM    7  C   UNK N   1      34.527  18.126   8.529  0.00  0.00     0.251 C 
HETATM    8  N   UNK N   1      34.996  17.371   9.558  0.00  0.00    -0.357 N 
HETATM    9  H   UNK N   1      35.700  17.762  10.125  0.00  0.00     0.162 HD
HETATM   10  O   UNK N   1      35.036  19.224   8.342  0.00  0.00    -0.268 OA
BRANCH   8  11
HETATM   11  C   UNK N   1      34.543  16.038   9.884  0.00  0.00     0.123 C 
BRANCH  11  12
HETATM   12  C   UNK N   1      35.417  15.010   9.198  0.00  0.00     0.021 C 
BRANCH  12  13
HETATM   13  C   UNK N   1      34.602  14.266   8.159  0.00  0.00     0.021 C 
BRANCH  13  14
HETATM   14  C   UNK N   1      33.198  14.059   8.676  0.00  0.00     0.111 C 
BRANCH  14  15
HETATM   15  N   UNK N   1      32.293  13.914   7.551  0.00  0.00    -0.430 N 
HETATM   16  H   UNK N   1      32.423  14.051   6.548  0.00  0.00     0.149 HD
HETATM   17  H   UNK N   1      31.352  13.622   7.812  0.00  0.00     0.149 HD
ENDBRANCH  14  15
ENDBRANCH  13  14
ENDBRANCH  12  13
ENDBRANCH  11  12
ENDBRANCH   8  11
ENDBRANCH   1   7
BRANCH   4  18
HETATM   18  S   UNK N   1      30.067  17.014   4.595  0.00  0.00     0.256 S 
HETATM   19  O   UNK N   1      29.194  18.267   4.749  0.00  0.00    -0.201 OA
HETATM   20  O   UNK N   1      29.036  15.905   4.858  0.00  0.00    -0.201 OA
BRANCH  18  21
HETATM   21  N   UNK N   1      30.430  16.952   2.870  0.00  0.00    -0.324 N 
HETATM   22  H   UNK N   1      31.005  17.546   2.274  0.00  0.00     0.169 HD
HETATM   23  H   UNK N   1      29.983  16.178   2.378  0.00  0.00     0.169 HD
ENDBRANCH  18  21
ENDBRANCH   4  18
TORSDOF 8
ENDMDL
MODEL 4
REMARK VINA RESULT:      -5.8     11.815     13.743
REMARK  8 active torsions:
REMARK  status: ('A' for Active; 'I' for Inactive)
REMARK    1  A    between atoms: N_1  and  C_2 
REMARK    2  A    between atoms: C_2  and  C_3 
REMARK    3  A    between atoms: C_3  and  C_4 
REMARK    4  A    between atoms: C_4  and  C_5 
REMARK    5  A    between atoms: C_5  and  N_6 
REMARK       I    between atoms: N_6  and  C_7 
REMARK    6  A    between atoms: C_7  and  C_9 
REMARK    7  A    between atoms: C_12  and  S_15 
REMARK    8  A    between atoms: S_15  and  N_16 
ROOT
HETATM    1  C   UNK N   1      27.125  23.751  -5.531  0.00  0.00     0.032 A 
HETATM    2  C   UNK N   1      27.316  24.133  -4.194  0.00  0.00     0.018 A 
HETATM    3  C   UNK N   1      28.513  23.834  -3.534  0.00  0.00     0.026 A 
HETATM    4  C   UNK N   1      29.537  23.173  -4.216  0.00  0.00     0.079 A 
HETATM    5  C   UNK N   1      29.380  22.841  -5.560  0.00  0.00     0.026 A 
HETATM    6  C   UNK N   1      28.186  23.133  -6.212  0.00  0.00     0.018 A 
ENDROOT
BRANCH   1   7
HETATM    7  C   UNK N   1      25.786  23.941  -6.166  0.00  0.00     0.251 C 
HETATM    8  N   UNK N   1      25.334  25.139  -6.622  0.00  0.00    -0.357 N 
HETATM    9  H   UNK N   1      24.434  25.162  -7.022  0.00  0.00     0.162 HD
HETATM   10  O   UNK N   1      25.070  22.959  -6.319  0.00  0.00    -0.268 OA
BRANCH   8  11
HETATM   11  C   UNK N   1      26.070  26.381  -6.567  0.00  0.00     0.123 C 
BRANCH  11  12
HETATM   12  C   UNK N   1      25.465  27.297  -5.526  0.00  0.00     0.021 C 
BRANCH  12  13
HETATM   13  C   UNK N   1      26.467  28.371  -5.151  0.00  0.00     0.021 C 
BRANCH  13  14
HETATM   14  C   UNK N   1      26.215  28.819  -3.732  0.00  0.00     0.111 C 
BRANCH  14  15
HETATM   15  N   UNK N   1      25.749  27.688  -2.951  0.00  0.00    -0.430 N 
HETATM   16  H   UNK N   1      25.358  27.622  -2.011  0.00  0.00     0.149 HD
HETATM   17  H   UNK N   1      25.828  26.793  -3.432  0.00  0.00     0.149 HD
ENDBRANCH  14  15
ENDBRANCH  13  14
ENDBRANCH  12  13
ENDBRANCH  11  12
ENDBRANCH   8  11
ENDBRANCH   1   7
BRANCH   4  18
HETATM   18  S   UNK N   1      30.936  22.517  -3.327  0.00  0.00     0.256 S 
HETATM   19  O   UNK N   1      30.838  22.951  -1.858  0.00  0.00    -0.201 OA
HETATM   20  O   UNK N   1      32.278  23.148  -3.730  0.00  0.00    -0.201 OA
BRANCH  18  21
HETATM   21  N   UNK N   1      31.213  20.778  -3.245  0.00  0.00    -0.324 N 
HETATM   22  H   UNK N   1      30.578  19.994  -3.098  0.00  0.00     0.169 HD
HETATM   23  H   UNK N   1      32.188  20.505  -3.366  0.00  0.00     0.169 HD
ENDBRANCH  18  21
ENDBRANCH   4  18
TORSDOF 8
ENDMDL
MODEL 5
REMARK VINA RESULT:      -5.6      4.445      6.177
REMARK  8 active torsions:
REMARK  status: ('A' for Active; 'I' for Inactive)
REMARK    1  A    between atoms: N_1  and  C_2 
REMARK    2  A    between atoms: C_2  and  C_3 
REMARK    3  A    between atoms: C_3  and  C_4 
REMARK    4  A    between atoms: C_4  and  C_5 
REMARK    5  A    between atoms: C_5  and  N_6 
REMARK       I    between atoms: N_6  and  C_7 
REMARK    6  A    between atoms: C_7  and  C_9 
REMARK    7  A    between atoms: C_12  and  S_15 
REMARK    8  A    between atoms: S_15  and  N_16 
ROOT
HETATM    1  C   UNK N   1      34.868  16.873   9.233  0.00  0.00     0.032 A 
HETATM    2  C   UNK N   1      35.021  15.675   8.517  0.00  0.00     0.018 A 
HETATM    3  C   UNK N   1      35.589  14.552   9.126  0.00  0.00     0.026 A 
HETATM    4  C   UNK N   1      35.983  14.611  10.465  0.00  0.00     0.079 A 
HETATM    5  C   UNK N   1      35.782  15.777  11.201  0.00  0.00     0.026 A 
HETATM    6  C   UNK N   1      35.224  16.895  10.591  0.00  0.00     0.018 A 
ENDROOT
BRANCH   1   7
HETATM    7  C   UNK N   1      34.406  18.102   8.520  0.00  0.00     0.251 C 
HETATM    8  N   UNK N   1      33.120  18.306   8.129  0.00  0.00    -0.357 N 
HETATM    9  H   UNK N   1      32.915  19.148   7.661  0.00  0.00     0.162 HD
HETATM   10  O   UNK N   1      35.219  18.993   8.309  0.00  0.00    -0.268 OA
BRANCH   8  11
HETATM   11  C   UNK N   1      32.030  17.382   8.346  0.00  0.00     0.123 C 
BRANCH  11  12
HETATM   12  C   UNK N   1      30.795  18.133   8.794  0.00  0.00     0.021 C 
BRANCH  12  13
HETATM   13  C   UNK N   1      29.556  17.373   8.363  0.00  0.00     0.021 C 
BRANCH  13  14
HETATM   14  C   UNK N   1      28.448  17.615   9.360  0.00  0.00     0.111 C 
BRANCH  14  15
HETATM   15  N   UNK N   1      27.627  18.719   8.900  0.00  0.00    -0.430 N 
HETATM   16  H   UNK N   1      27.108  18.870   8.035  0.00  0.00     0.149 HD
HETATM   17  H   UNK N   1      27.555  19.487   9.567  0.00  0.00     0.149 HD
ENDBRANCH  14  15
ENDBRANCH  13  14
ENDBRANCH  12  13
ENDBRANCH  11  12
ENDBRANCH   8  11
ENDBRANCH   1   7
BRANCH   4  18
HETATM   18  S   UNK N   1      36.974  13.309  11.173  0.00  0.00     0.256 S 
HETATM   19  O   UNK N   1      38.377  13.361  10.551  0.00  0.00    -0.201 OA
HETATM   20  O   UNK N   1      36.526  11.897  10.765  0.00  0.00    -0.201 OA
BRANCH  18  21
HETATM   21  N   UNK N   1      37.274  13.251  12.909  0.00  0.00    -0.324 N 
HETATM   22  H   UNK N   1      37.326  13.983  13.616  0.00  0.00     0.169 HD
HETATM   23  H   UNK N   1      37.423  12.310  13.274  0.00  0.00     0.169 HD
ENDBRANCH  18  21
ENDBRANCH   4  18
TORSDOF 8
ENDMDL
MODEL 6
REMARK VINA RESULT:      -5.6      3.335      4.903
REMARK  8 active torsions:
REMARK  status: ('A' for Active; 'I' for Inactive)
REMARK    1  A    between atoms: N_1  and  C_2 
REMARK    2  A    between atoms: C_2  and  C_3 
REMARK    3  A    between atoms: C_3  and  C_4 
REMARK    4  A    between atoms: C_4  and  C_5 
REMARK    5  A    between atoms: C_5  and  N_6 
REMARK       I    between atoms: N_6  and  C_7 
REMARK    6  A    between atoms: C_7  and  C_9 
REMARK    7  A    between atoms: C_12  and  S_15 
REMARK    8  A    between atoms: S_15  and  N_16 
ROOT
HETATM    1  C   UNK N   1      33.118  16.998   6.405  0.00  0.00     0.032 A 
HETATM    2  C   UNK N   1      33.480  18.008   7.311  0.00  0.00     0.018 A 
HETATM    3  C   UNK N   1      34.212  17.701   8.462  0.00  0.00     0.026 A 
HETATM    4  C   UNK N   1      34.610  16.383   8.702  0.00  0.00     0.079 A 
HETATM    5  C   UNK N   1      34.305  15.383   7.782  0.00  0.00     0.026 A 
HETATM    6  C   UNK N   1      33.572  15.690   6.640  0.00  0.00     0.018 A 
ENDROOT
BRANCH   1   7
HETATM    7  C   UNK N   1      32.206  17.323   5.268  0.00  0.00     0.251 C 
HETATM    8  N   UNK N   1      30.861  17.132   5.304  0.00  0.00    -0.357 N 
HETATM    9  H   UNK N   1      30.345  17.375   4.500  0.00  0.00     0.162 HD
HETATM   10  O   UNK N   1      32.689  17.824   4.260  0.00  0.00    -0.268 OA
BRANCH   8  11
HETATM   11  C   UNK N   1      30.127  16.602   6.431  0.00  0.00     0.123 C 
BRANCH  11  12
HETATM   12  C   UNK N   1      29.436  17.724   7.175  0.00  0.00     0.021 C 
BRANCH  12  13
HETATM   13  C   UNK N   1      30.012  17.835   8.572  0.00  0.00     0.021 C 
BRANCH  13  14
HETATM   14  C   UNK N   1      28.886  17.887   9.576  0.00  0.00     0.111 C 
BRANCH  14  15
HETATM   15  N   UNK N   1      27.744  18.553   8.977  0.00  0.00    -0.430 N 
HETATM   16  H   UNK N   1      26.739  18.425   9.095  0.00  0.00     0.149 HD
HETATM   17  H   UNK N   1      27.994  19.286   8.314  0.00  0.00     0.149 HD
ENDBRANCH  14  15
ENDBRANCH  13  14
ENDBRANCH  12  13
ENDBRANCH  11  12
ENDBRANCH   8  11
ENDBRANCH   1   7
BRANCH   4  18
HETATM   18  S   UNK N   1      35.272  15.916  10.290  0.00  0.00     0.256 S 
HETATM   19  O   UNK N   1      35.322  17.158  11.191  0.00  0.00    -0.201 OA
HETATM   20  O   UNK N   1      36.756  15.521  10.252  0.00  0.00    -0.201 OA
BRANCH  18  21
HETATM   21  N   UNK N   1      34.462  14.700  11.279  0.00  0.00    -0.324 N 
HETATM   22  H   UNK N   1      34.359  14.602  12.288  0.00  0.00     0.169 HD
HETATM   23  H   UNK N   1      34.014  13.959  10.741  0.00  0.00     0.169 HD
ENDBRANCH  18  21
ENDBRANCH   4  18
TORSDOF 8
ENDMDL
MODEL 7
REMARK VINA RESULT:      -5.5      3.868      7.577
REMARK  8 active torsions:
REMARK  status: ('A' for Active; 'I' for Inactive)
REMARK    1  A    between atoms: N_1  and  C_2 
REMARK    2  A    between atoms: C_2  and  C_3 
REMARK    3  A    between atoms: C_3  and  C_4 
REMARK    4  A    between atoms: C_4  and  C_5 
REMARK    5  A    between atoms: C_5  and  N_6 
REMARK       I    between atoms: N_6  and  C_7 
REMARK    6  A    between atoms: C_7  and  C_9 
REMARK    7  A    between atoms: C_12  and  S_15 
REMARK    8  A    between atoms: S_15  and  N_16 
ROOT
HETATM    1  C   UNK N   1      33.431  17.799   7.437  0.00  0.00     0.032 A 
HETATM    2  C   UNK N   1      33.816  17.568   6.107  0.00  0.00     0.018 A 
HETATM    3  C   UNK N   1      32.883  17.120   5.166  0.00  0.00     0.026 A 
HETATM    4  C   UNK N   1      31.552  16.924   5.545  0.00  0.00     0.079 A 
HETATM    5  C   UNK N   1      31.149  17.205   6.848  0.00  0.00     0.026 A 
HETATM    6  C   UNK N   1      32.079  17.645   7.784  0.00  0.00     0.018 A 
ENDROOT
BRANCH   1   7
HETATM    7  C   UNK N   1      34.473  18.126   8.457  0.00  0.00     0.251 C 
HETATM    8  N   UNK N   1      34.844  17.277   9.452  0.00  0.00    -0.357 N 
HETATM    9  H   UNK N   1      35.539  17.586  10.078  0.00  0.00     0.162 HD
HETATM   10  O   UNK N   1      35.054  19.201   8.372  0.00  0.00    -0.268 OA
BRANCH   8  11
HETATM   11  C   UNK N   1      34.298  15.955   9.663  0.00  0.00     0.123 C 
BRANCH  11  12
HETATM   12  C   UNK N   1      35.375  14.911   9.463  0.00  0.00     0.021 C 
BRANCH  12  13
HETATM   13  C   UNK N   1      36.523  15.180  10.416  0.00  0.00     0.021 C 
BRANCH  13  14
HETATM   14  C   UNK N   1      36.545  14.114  11.486  0.00  0.00     0.111 C 
BRANCH  14  15
HETATM   15  N   UNK N   1      37.790  13.374  11.395  0.00  0.00    -0.430 N 
HETATM   16  H   UNK N   1      38.734  13.583  11.719  0.00  0.00     0.149 HD
HETATM   17  H   UNK N   1      37.703  12.477  10.918  0.00  0.00     0.149 HD
ENDBRANCH  14  15
ENDBRANCH  13  14
ENDBRANCH  12  13
ENDBRANCH  11  12
ENDBRANCH   8  11
ENDBRANCH   1   7
BRANCH   4  18
HETATM   18  S   UNK N   1      30.421  16.074   4.460  0.00  0.00     0.256 S 
HETATM   19  O   UNK N   1      29.150  15.722   5.246  0.00  0.00    -0.201 OA
HETATM   20  O   UNK N   1      30.899  14.678   4.035  0.00  0.00    -0.201 OA
BRANCH  18  21
HETATM   21  N   UNK N   1      29.820  16.856   2.998  0.00  0.00    -0.324 N 
HETATM   22  H   UNK N   1      28.977  17.399   2.814  0.00  0.00     0.169 HD
HETATM   23  H   UNK N   1      30.428  16.746   2.187  0.00  0.00     0.169 HD
ENDBRANCH  18  21
ENDBRANCH   4  18
TORSDOF 8
ENDMDL
MODEL 8
REMARK VINA RESULT:      -5.4     13.348     15.018
REMARK  8 active torsions:
REMARK  status: ('A' for Active; 'I' for Inactive)
REMARK    1  A    between atoms: N_1  and  C_2 
REMARK    2  A    between atoms: C_2  and  C_3 
REMARK    3  A    between atoms: C_3  and  C_4 
REMARK    4  A    between atoms: C_4  and  C_5 
REMARK    5  A    between atoms: C_5  and  N_6 
REMARK       I    between atoms: N_6  and  C_7 
REMARK    6  A    between atoms: C_7  and  C_9 
REMARK    7  A    between atoms: C_12  and  S_15 
REMARK    8  A    between atoms: S_15  and  N_16 
ROOT
HETATM    1  C   UNK N   1      28.017  24.238  -4.891  0.00  0.00     0.032 A 
HETATM    2  C   UNK N   1      28.475  23.494  -5.990  0.00  0.00     0.018 A 
HETATM    3  C   UNK N   1      27.569  22.835  -6.827  0.00  0.00     0.026 A 
HETATM    4  C   UNK N   1      26.197  22.937  -6.586  0.00  0.00     0.079 A 
HETATM    5  C   UNK N   1      25.730  23.719  -5.532  0.00  0.00     0.026 A 
HETATM    6  C   UNK N   1      26.633  24.369  -4.696  0.00  0.00     0.018 A 
ENDROOT
BRANCH   1   7
HETATM    7  C   UNK N   1      29.005  24.802  -3.923  0.00  0.00     0.251 C 
HETATM    8  N   UNK N   1      29.413  26.099  -3.935  0.00  0.00    -0.357 N 
HETATM    9  H   UNK N   1      30.072  26.375  -3.256  0.00  0.00     0.162 HD
HETATM   10  O   UNK N   1      29.444  24.069  -3.045  0.00  0.00    -0.268 OA
BRANCH   8  11
HETATM   11  C   UNK N   1      28.955  27.106  -4.866  0.00  0.00     0.123 C 
BRANCH  11  12
HETATM   12  C   UNK N   1      27.952  28.016  -4.193  0.00  0.00     0.021 C 
BRANCH  12  13
HETATM   13  C   UNK N   1      26.746  28.194  -5.094  0.00  0.00     0.021 C 
BRANCH  13  14
HETATM   14  C   UNK N   1      25.486  27.931  -4.304  0.00  0.00     0.111 C 
BRANCH  14  15
HETATM   15  N   UNK N   1      25.839  27.666  -2.921  0.00  0.00    -0.430 N 
HETATM   16  H   UNK N   1      25.837  28.259  -2.091  0.00  0.00     0.149 HD
HETATM   17  H   UNK N   1      26.145  26.710  -2.748  0.00  0.00     0.149 HD
ENDBRANCH  14  15
ENDBRANCH  13  14
ENDBRANCH  12  13
ENDBRANCH  11  12
ENDBRANCH   8  11
ENDBRANCH   1   7
BRANCH   4  18
HETATM   18  S   UNK N   1      25.048  21.875  -7.442  0.00  0.00     0.256 S 
HETATM   19  O   UNK N   1      24.225  22.724  -8.421  0.00  0.00    -0.201 OA
HETATM   20  O   UNK N   1      23.940  21.308  -6.542  0.00  0.00    -0.201 OA
BRANCH  18  21
HETATM   21  N   UNK N   1      25.629  20.529  -8.421  0.00  0.00    -0.324 N 
HETATM   22  H   UNK N   1      26.566  20.167  -8.594  0.00  0.00     0.169 HD
HETATM   23  H   UNK N   1      24.890  20.016  -8.902  0.00  0.00     0.169 HD
ENDBRANCH  18  21
ENDBRANCH   4  18
TORSDOF 8
ENDMDL
MODEL 9
REMARK VINA RESULT:      -5.3     10.488     12.494
REMARK  8 active torsions:
REMARK  status: ('A' for Active; 'I' for Inactive)
REMARK    1  A    between atoms: N_1  and  C_2 
REMARK    2  A    between atoms: C_2  and  C_3 
REMARK    3  A    between atoms: C_3  and  C_4 
REMARK    4  A    between atoms: C_4  and  C_5 
REMARK    5  A    between atoms: C_5  and  N_6 
REMARK       I    between atoms: N_6  and  C_7 
REMARK    6  A    between atoms: C_7  and  C_9 
REMARK    7  A    between atoms: C_12  and  S_15 
REMARK    8  A    between atoms: S_15  and  N_16 
ROOT
HETATM    1  C   UNK N   1      36.264  13.449  16.130  0.00  0.00     0.032 A 
HETATM    2  C   UNK N   1      36.475  12.092  15.835  0.00  0.00     0.018 A 
HETATM    3  C   UNK N   1      36.015  11.098  16.705  0.00  0.00     0.026 A 
HETATM    4  C   UNK N   1      35.318  11.453  17.862  0.00  0.00     0.079 A 
HETATM    5  C   UNK N   1      35.054  12.794  18.134  0.00  0.00     0.026 A 
HETATM    6  C   UNK N   1      35.518  13.782  17.271  0.00  0.00     0.018 A 
ENDROOT
BRANCH   1   7
HETATM    7  C   UNK N   1      36.897  14.494  15.270  0.00  0.00     0.251 C 
HETATM    8  N   UNK N   1      36.617  14.653  13.949  0.00  0.00    -0.357 N 
HETATM    9  H   UNK N   1      37.090  15.370  13.467  0.00  0.00     0.162 HD
HETATM   10  O   UNK N   1      37.684  15.276  15.789  0.00  0.00    -0.268 OA
BRANCH   8  11
HETATM   11  C   UNK N   1      35.677  13.853  13.198  0.00  0.00     0.123 C 
BRANCH  11  12
HETATM   12  C   UNK N   1      35.834  14.122  11.717  0.00  0.00     0.021 C 
BRANCH  12  13
HETATM   13  C   UNK N   1      35.327  15.515  11.400  0.00  0.00     0.021 C 
BRANCH  13  14
HETATM   14  C   UNK N   1      34.410  15.454  10.201  0.00  0.00     0.111 C 
BRANCH  14  15
HETATM   15  N   UNK N   1      33.080  15.073  10.639  0.00  0.00    -0.430 N 
HETATM   16  H   UNK N   1      32.655  14.164  10.820  0.00  0.00     0.149 HD
HETATM   17  H   UNK N   1      32.454  15.863  10.795  0.00  0.00     0.149 HD
ENDBRANCH  14  15
ENDBRANCH  13  14
ENDBRANCH  12  13
ENDBRANCH  11  12
ENDBRANCH   8  11
ENDBRANCH   1   7
BRANCH   4  18
HETATM   18  S   UNK N   1      34.990  10.240  19.127  0.00  0.00     0.256 S 
HETATM   19  O   UNK N   1      36.175   9.266  19.198  0.00  0.00    -0.201 OA
HETATM   20  O   UNK N   1      33.842   9.280  18.782  0.00  0.00    -0.201 OA
BRANCH  18  21
HETATM   21  N   UNK N   1      34.737  10.733  20.800  0.00  0.00    -0.324 N 
HETATM   22  H   UNK N   1      34.646  11.651  21.234  0.00  0.00     0.169 HD
HETATM   23  H   UNK N   1      34.668   9.955  21.457  0.00  0.00     0.169 HD
ENDBRANCH  18  21
ENDBRANCH   4  18
TORSDOF 8
ENDMDL
