MODEL 1
REMARK VINA RESULT:      -4.7      0.000      0.000
REMARK  4 active torsions:
REMARK  status: ('A' for Active; 'I' for Inactive)
REMARK    1  A    between atoms: C_1  and  O_7 
REMARK    2  A    between atoms: C_2  and  O_8 
REMARK    3  A    between atoms: C_3  and  O_9 
REMARK    4  A    between atoms: O_10  and  C_5 
ROOT
HETATM    1  C   UNK N   1      34.013  15.680   8.370  0.00  0.00     0.185 C 
HETATM    2  C   UNK N   1      32.529  16.062   8.273  0.00  0.00     0.209 C 
HETATM    3  C   UNK N   1      34.828  16.868   8.907  0.00  0.00     0.204 C 
HETATM    4  C   UNK N   1      32.406  17.347   7.438  0.00  0.00     0.341 C 
HETATM    5  C   UNK N   1      34.533  18.103   8.035  0.00  0.00     0.291 C 
HETATM    6  F   UNK N   1      31.075  17.719   7.378  0.00  0.00    -0.217 F 
HETATM    7  O   UNK N   1      33.148  18.407   8.030  0.00  0.00    -0.322 OA
ENDROOT
BRANCH   1   8
HETATM    8  O   UNK N   1      34.180  14.560   9.188  0.00  0.00    -0.390 OA
HETATM    9  H   UNK N   1      34.315  13.680   8.802  0.00  0.00     0.210 HD
ENDBRANCH   1   8
BRANCH   2  10
HETATM   10  O   UNK N   1      31.991  16.277   9.546  0.00  0.00    -0.388 OA
HETATM   11  H   UNK N   1      31.812  16.533  10.463  0.00  0.00     0.210 HD
ENDBRANCH   2  10
BRANCH   3  12
HETATM   12  O   UNK N   1      34.482  17.135  10.234  0.00  0.00    -0.388 OA
HETATM   13  H   UNK N   1      34.452  17.417  11.163  0.00  0.00     0.210 HD
ENDBRANCH   3  12
BRANCH   5  14
HETATM   14  O   UNK N   1      35.229  19.202   8.552  0.00  0.00    -0.368 OA
ATOM     15  HO  UNK N   1      34.631  19.934   8.640  1.00  0.00     0.212 HD
ENDBRANCH   5  14
TORSDOF 4
ENDMDL
MODEL 2
REMARK VINA RESULT:      -4.6      6.870      7.952
REMARK  4 active torsions:
REMARK  status: ('A' for Active; 'I' for Inactive)
REMARK    1  A    between atoms: C_1  and  O_7 
REMARK    2  A    between atoms: C_2  and  O_8 
REMARK    3  A    between atoms: C_3  and  O_9 
REMARK    4  A    between atoms: O_10  and  C_5 
ROOT
HETATM    1  C   UNK N   1      37.122  11.859  14.119  0.00  0.00     0.185 C 
HETATM    2  C   UNK N   1      36.793  12.666  15.383  0.00  0.00     0.209 C 
HETATM    3  C   UNK N   1      36.481  12.524  12.889  0.00  0.00     0.204 C 
HETATM    4  C   UNK N   1      35.267  12.835  15.473  0.00  0.00     0.341 C 
HETATM    5  C   UNK N   1      34.978  12.717  13.159  0.00  0.00     0.291 C 
HETATM    6  F   UNK N   1      34.965  13.594  16.590  0.00  0.00    -0.217 F 
HETATM    7  O   UNK N   1      34.764  13.501  14.321  0.00  0.00    -0.322 OA
ENDROOT
BRANCH   1   8
HETATM    8  O   UNK N   1      38.505  11.748  13.952  0.00  0.00    -0.390 OA
HETATM    9  H   UNK N   1      39.113  12.037  14.651  0.00  0.00     0.210 HD
ENDBRANCH   1   8
BRANCH   2  10
HETATM   10  O   UNK N   1      37.402  13.924  15.337  0.00  0.00    -0.388 OA
HETATM   11  H   UNK N   1      37.981  14.687  15.187  0.00  0.00     0.210 HD
ENDBRANCH   2  10
BRANCH   3  12
HETATM   12  O   UNK N   1      37.078  13.762  12.638  0.00  0.00    -0.388 OA
HETATM   13  H   UNK N   1      37.550  14.609  12.687  0.00  0.00     0.210 HD
ENDBRANCH   3  12
BRANCH   5  14
HETATM   14  O   UNK N   1      34.398  13.371  12.066  0.00  0.00    -0.368 OA
ATOM     15  HO  UNK N   1      34.621  14.293  12.104  1.00  0.00     0.212 HD
ENDBRANCH   5  14
TORSDOF 4
ENDMDL
MODEL 3
REMARK VINA RESULT:      -4.6      4.251      5.226
REMARK  4 active torsions:
REMARK  status: ('A' for Active; 'I' for Inactive)
REMARK    1  A    between atoms: C_1  and  O_7 
REMARK    2  A    between atoms: C_2  and  O_8 
REMARK    3  A    between atoms: C_3  and  O_9 
REMARK    4  A    between atoms: O_10  and  C_5 
ROOT
HETATM    1  C   UNK N   1      36.949  13.837  10.521  0.00  0.00     0.185 C 
HETATM    2  C   UNK N   1      36.540  13.325  11.909  0.00  0.00     0.209 C 
HETATM    3  C   UNK N   1      36.254  15.177  10.229  0.00  0.00     0.204 C 
HETATM    4  C   UNK N   1      35.005  13.274  11.981  0.00  0.00     0.341 C 
HETATM    5  C   UNK N   1      34.738  15.001  10.432  0.00  0.00     0.291 C 
HETATM    6  F   UNK N   1      34.627  12.849  13.242  0.00  0.00    -0.217 F 
HETATM    7  O   UNK N   1      34.446  14.561  11.748  0.00  0.00    -0.322 OA
ENDROOT
BRANCH   1   8
HETATM    8  O   UNK N   1      38.337  13.975  10.438  0.00  0.00    -0.390 OA
HETATM    9  H   UNK N   1      38.893  13.235  10.150  0.00  0.00     0.210 HD
ENDBRANCH   1   8
BRANCH   2  10
HETATM   10  O   UNK N   1      37.028  14.170  12.911  0.00  0.00    -0.388 OA
HETATM   11  H   UNK N   1      37.366  14.568  13.727  0.00  0.00     0.210 HD
ENDBRANCH   2  10
BRANCH   3  12
HETATM   12  O   UNK N   1      36.732  16.171  11.087  0.00  0.00    -0.388 OA
HETATM   13  H   UNK N   1      37.270  16.778  11.621  0.00  0.00     0.210 HD
ENDBRANCH   3  12
BRANCH   5  14
HETATM   14  O   UNK N   1      34.104  16.231  10.221  0.00  0.00    -0.368 OA
ATOM     15  HO  UNK N   1      33.300  16.255  10.725  1.00  0.00     0.212 HD
ENDBRANCH   5  14
TORSDOF 4
ENDMDL
MODEL 4
REMARK VINA RESULT:      -4.5      1.574      2.148
REMARK  4 active torsions:
REMARK  status: ('A' for Active; 'I' for Inactive)
REMARK    1  A    between atoms: C_1  and  O_7 
REMARK    2  A    between atoms: C_2  and  O_8 
REMARK    3  A    between atoms: C_3  and  O_9 
REMARK    4  A    between atoms: O_10  and  C_5 
ROOT
HETATM    1  C   UNK N   1      33.188  14.681   8.845  0.00  0.00     0.185 C 
HETATM    2  C   UNK N   1      32.400  15.970   8.570  0.00  0.00     0.209 C 
HETATM    3  C   UNK N   1      34.119  14.880  10.052  0.00  0.00     0.204 C 
HETATM    4  C   UNK N   1      33.396  17.131   8.421  0.00  0.00     0.341 C 
HETATM    5  C   UNK N   1      34.987  16.128   9.805  0.00  0.00     0.291 C 
HETATM    6  F   UNK N   1      32.692  18.303   8.211  0.00  0.00    -0.217 F 
HETATM    7  O   UNK N   1      34.182  17.277   9.597  0.00  0.00    -0.322 OA
ENDROOT
BRANCH   1   8
HETATM    8  O   UNK N   1      32.318  13.611   9.068  0.00  0.00    -0.390 OA
HETATM    9  H   UNK N   1      31.609  13.677   9.726  0.00  0.00     0.210 HD
ENDBRANCH   1   8
BRANCH   2  10
HETATM   10  O   UNK N   1      31.518  16.241   9.621  0.00  0.00    -0.388 OA
HETATM   11  H   UNK N   1      30.778  16.279  10.246  0.00  0.00     0.210 HD
ENDBRANCH   2  10
BRANCH   3  12
HETATM   12  O   UNK N   1      33.372  15.050  11.220  0.00  0.00    -0.388 OA
HETATM   13  H   UNK N   1      33.061  15.190  12.129  0.00  0.00     0.210 HD
ENDBRANCH   3  12
BRANCH   5  14
HETATM   14  O   UNK N   1      35.799  16.348  10.924  0.00  0.00    -0.368 OA
ATOM     15  HO  UNK N   1      35.253  16.611  11.655  1.00  0.00     0.212 HD
ENDBRANCH   5  14
TORSDOF 4
ENDMDL
MODEL 5
REMARK VINA RESULT:      -4.5      3.932      5.063
REMARK  4 active torsions:
REMARK  status: ('A' for Active; 'I' for Inactive)
REMARK    1  A    between atoms: C_1  and  O_7 
REMARK    2  A    between atoms: C_2  and  O_8 
REMARK    3  A    between atoms: C_3  and  O_9 
REMARK    4  A    between atoms: O_10  and  C_5 
ROOT
HETATM    1  C   UNK N   1      34.992  13.300  10.599  0.00  0.00     0.185 C 
HETATM    2  C   UNK N   1      34.537  14.766  10.548  0.00  0.00     0.209 C 
HETATM    3  C   UNK N   1      35.455  12.943  12.021  0.00  0.00     0.204 C 
HETATM    4  C   UNK N   1      35.671  15.651  11.090  0.00  0.00     0.341 C 
HETATM    5  C   UNK N   1      36.516  13.966  12.467  0.00  0.00     0.291 C 
HETATM    6  F   UNK N   1      35.254  16.970  11.082  0.00  0.00    -0.217 F 
HETATM    7  O   UNK N   1      36.002  15.287  12.424  0.00  0.00    -0.322 OA
ENDROOT
BRANCH   1   8
HETATM    8  O   UNK N   1      33.962  12.451  10.189  0.00  0.00    -0.390 OA
HETATM    9  H   UNK N   1      33.138  12.390  10.697  0.00  0.00     0.210 HD
ENDBRANCH   1   8
BRANCH   2  10
HETATM   10  O   UNK N   1      33.387  14.952  11.321  0.00  0.00    -0.388 OA
HETATM   11  H   UNK N   1      32.570  15.268  11.736  0.00  0.00     0.210 HD
ENDBRANCH   2  10
BRANCH   3  12
HETATM   12  O   UNK N   1      34.374  12.969  12.906  0.00  0.00    -0.388 OA
HETATM   13  H   UNK N   1      33.633  13.215  13.483  0.00  0.00     0.210 HD
ENDBRANCH   3  12
BRANCH   5  14
HETATM   14  O   UNK N   1      36.902  13.679  13.782  0.00  0.00    -0.368 OA
ATOM     15  HO  UNK N   1      36.852  12.741  13.921  1.00  0.00     0.212 HD
ENDBRANCH   5  14
TORSDOF 4
ENDMDL
MODEL 6
REMARK VINA RESULT:      -4.5     13.068     14.437
REMARK  4 active torsions:
REMARK  status: ('A' for Active; 'I' for Inactive)
REMARK    1  A    between atoms: C_1  and  O_7 
REMARK    2  A    between atoms: C_2  and  O_8 
REMARK    3  A    between atoms: C_3  and  O_9 
REMARK    4  A    between atoms: O_10  and  C_5 
ROOT
HETATM    1  C   UNK N   1      19.360  18.882   2.928  0.00  0.00     0.185 C 
HETATM    2  C   UNK N   1      20.328  17.692   2.891  0.00  0.00     0.209 C 
HETATM    3  C   UNK N   1      20.060  20.146   2.401  0.00  0.00     0.204 C 
HETATM    4  C   UNK N   1      21.607  18.075   3.653  0.00  0.00     0.341 C 
HETATM    5  C   UNK N   1      21.368  20.351   3.188  0.00  0.00     0.291 C 
HETATM    6  F   UNK N   1      22.500  17.020   3.592  0.00  0.00    -0.217 F 
HETATM    7  O   UNK N   1      22.217  19.221   3.071  0.00  0.00    -0.322 OA
ENDROOT
BRANCH   1   8
HETATM    8  O   UNK N   1      18.214  18.608   2.178  0.00  0.00    -0.390 OA
HETATM    9  H   UNK N   1      17.973  17.694   1.957  0.00  0.00     0.210 HD
ENDBRANCH   1   8
BRANCH   2  10
HETATM   10  O   UNK N   1      20.651  17.359   1.571  0.00  0.00    -0.388 OA
HETATM   11  H   UNK N   1      21.046  17.268   0.691  0.00  0.00     0.210 HD
ENDBRANCH   2  10
BRANCH   3  12
HETATM   12  O   UNK N   1      20.347  20.012   1.040  0.00  0.00    -0.388 OA
HETATM   13  H   UNK N   1      20.670  20.109   0.129  0.00  0.00     0.210 HD
ENDBRANCH   3  12
BRANCH   5  14
HETATM   14  O   UNK N   1      22.038  21.468   2.677  0.00  0.00    -0.368 OA
ATOM     15  HO  UNK N   1      22.847  21.184   2.269  1.00  0.00     0.212 HD
ENDBRANCH   5  14
TORSDOF 4
ENDMDL
MODEL 7
REMARK VINA RESULT:      -4.5     12.851     14.191
REMARK  4 active torsions:
REMARK  status: ('A' for Active; 'I' for Inactive)
REMARK    1  A    between atoms: C_1  and  O_7 
REMARK    2  A    between atoms: C_2  and  O_8 
REMARK    3  A    between atoms: C_3  and  O_9 
REMARK    4  A    between atoms: O_10  and  C_5 
ROOT
HETATM    1  C   UNK N   1      22.498  19.532   2.987  0.00  0.00     0.185 C 
HETATM    2  C   UNK N   1      21.325  18.916   3.761  0.00  0.00     0.209 C 
HETATM    3  C   UNK N   1      21.979  20.595   2.005  0.00  0.00     0.204 C 
HETATM    4  C   UNK N   1      20.287  18.398   2.752  0.00  0.00     0.341 C 
HETATM    5  C   UNK N   1      20.884  19.963   1.126  0.00  0.00     0.291 C 
HETATM    6  F   UNK N   1      19.210  17.875   3.443  0.00  0.00    -0.217 F 
HETATM    7  O   UNK N   1      19.824  19.453   1.918  0.00  0.00    -0.322 OA
ENDROOT
BRANCH   1   8
HETATM    8  O   UNK N   1      23.430  20.088   3.866  0.00  0.00    -0.390 OA
HETATM    9  H   UNK N   1      23.503  19.769   4.779  0.00  0.00     0.210 HD
ENDBRANCH   1   8
BRANCH   2  10
HETATM   10  O   UNK N   1      20.731  19.868   4.596  0.00  0.00    -0.388 OA
HETATM   11  H   UNK N   1      20.187  20.562   4.998  0.00  0.00     0.210 HD
ENDBRANCH   2  10
BRANCH   3  12
HETATM   12  O   UNK N   1      21.453  21.686   2.702  0.00  0.00    -0.388 OA
HETATM   13  H   UNK N   1      21.309  22.495   3.219  0.00  0.00     0.210 HD
ENDBRANCH   3  12
BRANCH   5  14
HETATM   14  O   UNK N   1      20.369  20.941   0.267  0.00  0.00    -0.368 OA
ATOM     15  HO  UNK N   1      19.464  21.111   0.499  1.00  0.00     0.212 HD
ENDBRANCH   5  14
TORSDOF 4
ENDMDL
MODEL 8
REMARK VINA RESULT:      -4.4     13.136     14.668
REMARK  4 active torsions:
REMARK  status: ('A' for Active; 'I' for Inactive)
REMARK    1  A    between atoms: C_1  and  O_7 
REMARK    2  A    between atoms: C_2  and  O_8 
REMARK    3  A    between atoms: C_3  and  O_9 
REMARK    4  A    between atoms: O_10  and  C_5 
ROOT
HETATM    1  C   UNK N   1      20.791  19.357   1.773  0.00  0.00     0.185 C 
HETATM    2  C   UNK N   1      21.338  19.757   3.150  0.00  0.00     0.209 C 
HETATM    3  C   UNK N   1      19.740  18.245   1.928  0.00  0.00     0.204 C 
HETATM    4  C   UNK N   1      21.849  18.494   3.862  0.00  0.00     0.341 C 
HETATM    5  C   UNK N   1      20.359  17.091   2.738  0.00  0.00     0.291 C 
HETATM    6  F   UNK N   1      22.309  18.841   5.119  0.00  0.00    -0.217 F 
HETATM    7  O   UNK N   1      20.804  17.540   4.008  0.00  0.00    -0.322 OA
ENDROOT
BRANCH   1   8
HETATM    8  O   UNK N   1      20.241  20.464   1.121  0.00  0.00    -0.390 OA
HETATM    9  H   UNK N   1      19.506  20.958   1.516  0.00  0.00     0.210 HD
ENDBRANCH   1   8
BRANCH   2  10
HETATM   10  O   UNK N   1      20.339  20.358   3.922  0.00  0.00    -0.388 OA
HETATM   11  H   UNK N   1      19.746  20.665   4.625  0.00  0.00     0.210 HD
ENDBRANCH   2  10
BRANCH   3  12
HETATM   12  O   UNK N   1      18.609  18.732   2.588  0.00  0.00    -0.388 OA
HETATM   13  H   UNK N   1      17.830  19.230   2.882  0.00  0.00     0.210 HD
ENDBRANCH   3  12
BRANCH   5  14
HETATM   14  O   UNK N   1      19.390  16.098   2.930  0.00  0.00    -0.368 OA
ATOM     15  HO  UNK N   1      18.761  16.400   3.574  1.00  0.00     0.212 HD
ENDBRANCH   5  14
TORSDOF 4
ENDMDL
MODEL 9
REMARK VINA RESULT:      -4.4      1.898      2.343
REMARK  4 active torsions:
REMARK  status: ('A' for Active; 'I' for Inactive)
REMARK    1  A    between atoms: C_1  and  O_7 
REMARK    2  A    between atoms: C_2  and  O_8 
REMARK    3  A    between atoms: C_3  and  O_9 
REMARK    4  A    between atoms: O_10  and  C_5 
ROOT
HETATM    1  C   UNK N   1      32.803  16.124   8.036  0.00  0.00     0.185 C 
HETATM    2  C   UNK N   1      32.574  16.293   6.528  0.00  0.00     0.209 C 
HETATM    3  C   UNK N   1      33.314  17.443   8.641  0.00  0.00     0.204 C 
HETATM    4  C   UNK N   1      33.868  16.827   5.891  0.00  0.00     0.341 C 
HETATM    5  C   UNK N   1      34.550  17.905   7.847  0.00  0.00     0.291 C 
HETATM    6  F   UNK N   1      33.657  17.017   4.537  0.00  0.00    -0.217 F 
HETATM    7  O   UNK N   1      34.241  18.070   6.472  0.00  0.00    -0.322 OA
ENDROOT
BRANCH   1   8
HETATM    8  O   UNK N   1      31.627  15.716   8.670  0.00  0.00    -0.390 OA
HETATM    9  H   UNK N   1      31.547  15.750   9.636  0.00  0.00     0.210 HD
ENDBRANCH   1   8
BRANCH   2  10
HETATM   10  O   UNK N   1      31.528  17.189   6.285  0.00  0.00    -0.388 OA
HETATM   11  H   UNK N   1      30.682  17.658   6.228  0.00  0.00     0.210 HD
ENDBRANCH   2  10
BRANCH   3  12
HETATM   12  O   UNK N   1      32.320  18.424   8.579  0.00  0.00    -0.388 OA
HETATM   13  H   UNK N   1      31.768  19.215   8.684  0.00  0.00     0.210 HD
ENDBRANCH   3  12
BRANCH   5  14
HETATM   14  O   UNK N   1      34.986  19.133   8.357  0.00  0.00    -0.368 OA
ATOM     15  HO  UNK N   1      34.483  19.342   9.134  1.00  0.00     0.212 HD
ENDBRANCH   5  14
TORSDOF 4
ENDMDL
