REMARK  19 active torsions:
REMARK  status: ('A' for Active; 'I' for Inactive)
REMARK    1  A    between atoms: C_2  and  C_1 
REMARK    2  A    between atoms: C_3  and  C_1 
REMARK    3  A    between atoms: C_12  and  C_2 
REMARK    4  A    between atoms: C_13  and  C_3 
REMARK    5  A    between atoms: C_9  and  C_8 
REMARK    6  A    between atoms: C_14  and  C_8 
REMARK    7  A    between atoms: C_15  and  C_9 
REMARK    8  A    between atoms: C_13  and  C_10 
REMARK    9  A    between atoms: C_17  and  C_11 
REMARK   10  A    between atoms: C_21  and  C_13 
REMARK   11  A    between atoms: C_19  and  C_14 
REMARK   12  A    between atoms: C_14  and  N_28 
REMARK   13  A    between atoms: O_33  and  C_15 
REMARK   14  A    between atoms: C_16  and  N_26 
REMARK       I    between atoms: N_28  and  C_17 
REMARK   15  A    between atoms: O_35  and  C_18 
REMARK   16  A    between atoms: O_37  and  C_19 
REMARK       I    between atoms: C_20  and  N_27 
REMARK   17  A    between atoms: C_22  and  C_21 
REMARK   18  A    between atoms: O_38  and  C_21 
REMARK   19  A    between atoms: O_39  and  C_21 
ROOT
HETATM    1  C   UNK N   1      -2.314   0.655  -0.310  0.00  0.00     0.090 C 
ENDROOT
BRANCH   1   2
HETATM    2  C   UNK N   1      -1.575   0.050  -1.504  0.00  0.00     0.015 C 
BRANCH   2   3
HETATM    3  C   UNK N   1      -0.409  -0.798  -1.064  0.00  0.00     0.002 C 
BRANCH   3   4
HETATM    4  C   UNK N   1       0.817  -0.229  -1.744  0.00  0.00     0.017 C 
BRANCH   4   5
HETATM    5  C   UNK N   1       1.911   0.247  -0.780  0.00  0.00     0.102 C 
HETATM    6  C   UNK N   1       2.355  -0.790   0.241  0.00  0.00     0.184 C 
HETATM    7  N   UNK N   1       3.577  -0.292   0.883  0.00  0.00    -0.365 N 
HETATM    8  C   UNK N   1       3.497   1.080   1.432  0.00  0.00     0.280 C 
HETATM    9  H   UNK N   1       4.426  -0.854   0.946  0.00  0.00     0.159 HD
HETATM   10  N   UNK N   1       4.716   1.795   1.096  0.00  0.00    -0.395 N 
HETATM   11  N   UNK N   1       2.357   1.856   0.966  0.00  0.00    -0.337 N 
HETATM   12  H   UNK N   1       5.578   1.304   0.860  0.00  0.00     0.153 HD
HETATM   13  H   UNK N   1       4.709   2.815   1.096  0.00  0.00     0.153 HD
HETATM   14  C   UNK N   1       1.590   1.490   0.001  0.00  0.00     0.122 C 
ATOM     15  HN  UNK N   1       2.155   2.741   1.431  1.00  0.00     0.165 HD
BRANCH   6  16
HETATM   16  N   UNK N   1       2.656  -2.049  -0.420  0.00  0.00    -0.410 N 
HETATM   17  H   UNK N   1       1.997  -2.674  -0.885  0.00  0.00     0.151 HD
HETATM   18  H   UNK N   1       3.634  -2.339  -0.420  0.00  0.00     0.151 HD
ENDBRANCH   6  16
BRANCH  14  19
HETATM   19  O   UNK N   1       0.510   2.227  -0.284  0.00  0.00    -0.349 OA
HETATM   20  H   UNK N   1       0.579   3.140  -0.484  0.00  0.00     0.219 HD
ENDBRANCH  14  19
ENDBRANCH   4   5
ENDBRANCH   3   4
ENDBRANCH   2   3
ENDBRANCH   1   2
BRANCH   1  21
HETATM   21  C   UNK N   1      -3.417  -0.347   0.013  0.00  0.00    -0.048 A 
HETATM   22  C   UNK N   1      -4.729   0.025  -0.223  0.00  0.00     0.009 A 
HETATM   23  C   UNK N   1      -5.728  -0.896  -0.245  0.00  0.00     0.017 A 
HETATM   24  C   UNK N   1      -5.479  -2.240  -0.014  0.00  0.00     0.032 A 
HETATM   25  C   UNK N   1      -4.183  -2.654   0.344  0.00  0.00     0.017 A 
HETATM   26  C   UNK N   1      -3.140  -1.701   0.331  0.00  0.00     0.009 A 
BRANCH  24  27
HETATM   27  C   UNK N   1      -6.650  -3.108  -0.125  0.00  0.00     0.252 C 
HETATM   28  N   UNK N   1      -7.715  -2.564  -0.783  0.00  0.00    -0.343 N 
HETATM   29  H   UNK N   1      -7.507  -2.028  -1.582  0.00  0.00     0.163 HD
HETATM   30  O   UNK N   1      -6.714  -4.190   0.422  0.00  0.00    -0.268 OA
BRANCH  28  31
HETATM   31  C   UNK N   1      -9.099  -2.684  -0.441  0.00  0.00     0.183 C 
BRANCH  31  32
HETATM   32  C   UNK N   1      -9.259  -1.819   0.822  0.00  0.00     0.046 C 
BRANCH  32  33
HETATM   33  C   UNK N   1     -10.674  -1.573   1.305  0.00  0.00     0.112 C 
BRANCH  33  34
HETATM   34  C   UNK N   1     -11.501  -0.898   0.267  0.00  0.00     0.139 C 
HETATM   35  O   UNK N   1     -12.499  -1.453  -0.154  0.00  0.00    -0.650 OA
BRANCH  34  36
HETATM   36  O   UNK N   1     -11.153   0.314  -0.207  0.00  0.00    -0.776 OA
HETATM   37  H   UNK N   1     -10.302   0.526  -0.537  0.00  0.00     0.167 HD
ENDBRANCH  34  36
ENDBRANCH  33  34
ENDBRANCH  32  33
ENDBRANCH  31  32
BRANCH  31  38
HETATM   38  C   UNK N   1      -9.563  -4.104  -0.287  0.00  0.00     0.163 C 
HETATM   39  O   UNK N   1      -9.221  -4.949  -1.098  0.00  0.00    -0.648 OA
BRANCH  38  40
HETATM   40  O   UNK N   1     -10.452  -4.424   0.671  0.00  0.00    -0.775 OA
HETATM   41  H   UNK N   1     -10.955  -4.000   1.338  0.00  0.00     0.167 HD
ENDBRANCH  38  40
ENDBRANCH  31  38
ENDBRANCH  28  31
ENDBRANCH  24  27
ENDBRANCH   1  21
BRANCH   1  42
HETATM   42  C   UNK N   1      -2.782   2.080  -0.746  0.00  0.00     0.268 C 
BRANCH  42  43
HETATM   43  C   UNK N   1      -3.259   2.867   0.469  0.00  0.00     0.445 C 
HETATM   44  F   UNK N   1      -2.215   3.029   1.364  0.00  0.00    -0.166 F 
HETATM   45  F   UNK N   1      -4.314   2.277   1.135  0.00  0.00    -0.166 F 
HETATM   46  F   UNK N   1      -3.666   4.124   0.053  0.00  0.00    -0.166 F 
ENDBRANCH  42  43
BRANCH  42  47
HETATM   47  O   UNK N   1      -1.744   2.755  -1.275  0.00  0.00    -0.358 OA
HETATM   48  H   UNK N   1      -0.976   2.364  -1.642  0.00  0.00     0.213 HD
ENDBRANCH  42  47
BRANCH  42  49
HETATM   49  O   UNK N   1      -3.778   1.988  -1.656  0.00  0.00    -0.358 OA
HETATM   50  H   UNK N   1      -4.178   2.554  -2.286  0.00  0.00     0.213 HD
ENDBRANCH  42  49
ENDBRANCH   1  42
TORSDOF 19
