MODEL 1
REMARK VINA RESULT:      -3.7      0.000      0.000
REMARK  7 active torsions:
REMARK  status: ('A' for Active; 'I' for Inactive)
REMARK    1  A    between atoms: C_2  and  O_3 
REMARK    2  A    between atoms: O_3  and  C_4 
REMARK    3  A    between atoms: C_4  and  C_5 
REMARK    4  A    between atoms: C_5  and  O_6 
REMARK    5  A    between atoms: O_6  and  C_7 
REMARK    6  A    between atoms: C_7  and  C_8 
REMARK    7  A    between atoms: C_8  and  O_9 
ROOT
HETATM    1  C   UNK N   1      35.554  16.533  10.921  0.00  0.00     0.193 C 
ENDROOT
BRANCH   1   2
HETATM    2  C   UNK N   1      34.503  15.488  10.619  0.00  0.00     0.193 C 
BRANCH   2   3
HETATM    3  O   UNK N   1      34.398  14.605  11.688  0.00  0.00    -0.389 OA
BRANCH   3   4
HETATM    4  C   UNK N   1      35.673  14.594  12.249  0.00  0.00     0.163 C 
HETATM    5  C   UNK N   1      35.647  13.799  13.536  0.00  0.00     0.033 C 
ENDBRANCH   3   4
ENDBRANCH   2   3
ENDBRANCH   1   2
BRANCH   1   6
HETATM    6  O   UNK N   1      35.414  17.570  10.006  0.00  0.00    -0.387 OA
BRANCH   6   7
HETATM    7  C   UNK N   1      34.505  17.111   9.058  0.00  0.00     0.193 C 
BRANCH   7   8
HETATM    8  C   UNK N   1      34.152  18.267   8.150  0.00  0.00     0.193 C 
BRANCH   8   9
HETATM    9  O   UNK N   1      34.576  18.006   6.851  0.00  0.00    -0.394 OA
HETATM   10  C   UNK N   1      34.008  16.769   6.553  0.00  0.00     0.201 C 
ENDBRANCH   8   9
ENDBRANCH   7   8
ENDBRANCH   6   7
ENDBRANCH   1   6
TORSDOF 7
ENDMDL
MODEL 2
REMARK VINA RESULT:      -3.7      0.486      5.100
REMARK  7 active torsions:
REMARK  status: ('A' for Active; 'I' for Inactive)
REMARK    1  A    between atoms: C_2  and  O_3 
REMARK    2  A    between atoms: O_3  and  C_4 
REMARK    3  A    between atoms: C_4  and  C_5 
REMARK    4  A    between atoms: C_5  and  O_6 
REMARK    5  A    between atoms: O_6  and  C_7 
REMARK    6  A    between atoms: C_7  and  C_8 
REMARK    7  A    between atoms: C_8  and  O_9 
ROOT
HETATM    1  C   UNK N   1      34.586  17.166   9.085  0.00  0.00     0.193 C 
ENDROOT
BRANCH   1   2
HETATM    2  C   UNK N   1      34.361  18.363   8.189  0.00  0.00     0.193 C 
BRANCH   2   3
HETATM    3  O   UNK N   1      34.559  18.001   6.862  0.00  0.00    -0.389 OA
BRANCH   3   4
HETATM    4  C   UNK N   1      34.139  16.674   6.802  0.00  0.00     0.163 C 
HETATM    5  C   UNK N   1      33.937  16.275   5.358  0.00  0.00     0.033 C 
ENDBRANCH   3   4
ENDBRANCH   2   3
ENDBRANCH   1   2
BRANCH   1   6
HETATM    6  O   UNK N   1      35.462  17.537  10.098  0.00  0.00    -0.387 OA
BRANCH   6   7
HETATM    7  C   UNK N   1      35.670  16.385  10.850  0.00  0.00     0.193 C 
BRANCH   7   8
HETATM    8  C   UNK N   1      34.534  15.429  10.566  0.00  0.00     0.193 C 
BRANCH   8   9
HETATM    9  O   UNK N   1      34.282  14.635  11.679  0.00  0.00    -0.394 OA
HETATM   10  C   UNK N   1      35.540  14.437  12.243  0.00  0.00     0.201 C 
ENDBRANCH   8   9
ENDBRANCH   7   8
ENDBRANCH   6   7
ENDBRANCH   1   6
TORSDOF 7
ENDMDL
MODEL 3
REMARK VINA RESULT:      -3.6      1.651      3.387
REMARK  7 active torsions:
REMARK  status: ('A' for Active; 'I' for Inactive)
REMARK    1  A    between atoms: C_2  and  O_3 
REMARK    2  A    between atoms: O_3  and  C_4 
REMARK    3  A    between atoms: C_4  and  C_5 
REMARK    4  A    between atoms: C_5  and  O_6 
REMARK    5  A    between atoms: O_6  and  C_7 
REMARK    6  A    between atoms: C_7  and  C_8 
REMARK    7  A    between atoms: C_8  and  O_9 
ROOT
HETATM    1  C   UNK N   1      35.869  14.391  12.505  0.00  0.00     0.193 C 
ENDROOT
BRANCH   1   2
HETATM    2  C   UNK N   1      35.855  13.694  13.847  0.00  0.00     0.193 C 
BRANCH   2   3
HETATM    3  O   UNK N   1      34.591  13.168  14.090  0.00  0.00    -0.389 OA
BRANCH   3   4
HETATM    4  C   UNK N   1      34.781  12.299  15.161  0.00  0.00     0.163 C 
HETATM    5  C   UNK N   1      34.763  13.083  16.454  0.00  0.00     0.033 C 
ENDBRANCH   3   4
ENDBRANCH   2   3
ENDBRANCH   1   2
BRANCH   1   6
HETATM    6  O   UNK N   1      34.570  14.418  12.012  0.00  0.00    -0.387 OA
BRANCH   6   7
HETATM    7  C   UNK N   1      34.631  15.169  10.843  0.00  0.00     0.193 C 
BRANCH   7   8
HETATM    8  C   UNK N   1      35.856  16.051  10.917  0.00  0.00     0.193 C 
BRANCH   8   9
HETATM    9  O   UNK N   1      35.567  17.319  10.423  0.00  0.00    -0.394 OA
HETATM   10  C   UNK N   1      34.685  17.078   9.373  0.00  0.00     0.201 C 
ENDBRANCH   8   9
ENDBRANCH   7   8
ENDBRANCH   6   7
ENDBRANCH   1   6
TORSDOF 7
ENDMDL
MODEL 4
REMARK VINA RESULT:      -3.5      1.240      5.667
REMARK  7 active torsions:
REMARK  status: ('A' for Active; 'I' for Inactive)
REMARK    1  A    between atoms: C_2  and  O_3 
REMARK    2  A    between atoms: O_3  and  C_4 
REMARK    3  A    between atoms: C_4  and  C_5 
REMARK    4  A    between atoms: C_5  and  O_6 
REMARK    5  A    between atoms: O_6  and  C_7 
REMARK    6  A    between atoms: C_7  and  C_8 
REMARK    7  A    between atoms: C_8  and  O_9 
ROOT
HETATM    1  C   UNK N   1      34.641  15.416  10.613  0.00  0.00     0.193 C 
ENDROOT
BRANCH   1   2
HETATM    2  C   UNK N   1      35.577  16.552  10.960  0.00  0.00     0.193 C 
BRANCH   2   3
HETATM    3  O   UNK N   1      35.447  17.571  10.022  0.00  0.00    -0.389 OA
BRANCH   3   4
HETATM    4  C   UNK N   1      34.471  17.106   9.144  0.00  0.00     0.163 C 
HETATM    5  C   UNK N   1      34.297  18.099   8.016  0.00  0.00     0.033 C 
ENDBRANCH   3   4
ENDBRANCH   2   3
ENDBRANCH   1   2
BRANCH   1   6
HETATM    6  O   UNK N   1      34.549  14.573  11.714  0.00  0.00    -0.387 OA
BRANCH   6   7
HETATM    7  C   UNK N   1      35.825  14.541  12.266  0.00  0.00     0.193 C 
BRANCH   7   8
HETATM    8  C   UNK N   1      35.857  13.447  13.308  0.00  0.00     0.193 C 
BRANCH   8   9
HETATM    9  O   UNK N   1      34.579  13.222  13.811  0.00  0.00    -0.394 OA
HETATM   10  C   UNK N   1      34.540  11.847  14.029  0.00  0.00     0.201 C 
ENDBRANCH   8   9
ENDBRANCH   7   8
ENDBRANCH   6   7
ENDBRANCH   1   6
TORSDOF 7
ENDMDL
MODEL 5
REMARK VINA RESULT:      -3.5      1.996      5.250
REMARK  7 active torsions:
REMARK  status: ('A' for Active; 'I' for Inactive)
REMARK    1  A    between atoms: C_2  and  O_3 
REMARK    2  A    between atoms: O_3  and  C_4 
REMARK    3  A    between atoms: C_4  and  C_5 
REMARK    4  A    between atoms: C_5  and  O_6 
REMARK    5  A    between atoms: O_6  and  C_7 
REMARK    6  A    between atoms: C_7  and  C_8 
REMARK    7  A    between atoms: C_8  and  O_9 
ROOT
HETATM    1  C   UNK N   1      33.979  16.881   6.510  0.00  0.00     0.193 C 
ENDROOT
BRANCH   1   2
HETATM    2  C   UNK N   1      32.702  17.170   5.754  0.00  0.00     0.193 C 
BRANCH   2   3
HETATM    3  O   UNK N   1      31.707  16.285   6.155  0.00  0.00    -0.389 OA
BRANCH   3   4
HETATM    4  C   UNK N   1      30.616  17.101   6.440  0.00  0.00     0.163 C 
HETATM    5  C   UNK N   1      30.538  17.331   7.933  0.00  0.00     0.033 C 
ENDBRANCH   3   4
ENDBRANCH   2   3
ENDBRANCH   1   2
BRANCH   1   6
HETATM    6  O   UNK N   1      34.565  18.092   6.858  0.00  0.00    -0.387 OA
BRANCH   6   7
HETATM    7  C   UNK N   1      34.148  18.346   8.161  0.00  0.00     0.193 C 
BRANCH   7   8
HETATM    8  C   UNK N   1      34.556  17.171   9.019  0.00  0.00     0.193 C 
BRANCH   8   9
HETATM    9  O   UNK N   1      35.422  17.585  10.026  0.00  0.00    -0.394 OA
HETATM   10  C   UNK N   1      35.466  16.502  10.900  0.00  0.00     0.201 C 
ENDBRANCH   8   9
ENDBRANCH   7   8
ENDBRANCH   6   7
ENDBRANCH   1   6
TORSDOF 7
ENDMDL
MODEL 6
REMARK VINA RESULT:      -3.4     14.055     14.520
REMARK  7 active torsions:
REMARK  status: ('A' for Active; 'I' for Inactive)
REMARK    1  A    between atoms: C_2  and  O_3 
REMARK    2  A    between atoms: O_3  and  C_4 
REMARK    3  A    between atoms: C_4  and  C_5 
REMARK    4  A    between atoms: C_5  and  O_6 
REMARK    5  A    between atoms: O_6  and  C_7 
REMARK    6  A    between atoms: C_7  and  C_8 
REMARK    7  A    between atoms: C_8  and  O_9 
ROOT
HETATM    1  C   UNK N   1      20.932  13.238   8.997  0.00  0.00     0.193 C 
ENDROOT
BRANCH   1   2
HETATM    2  C   UNK N   1      21.499  12.966  10.373  0.00  0.00     0.193 C 
BRANCH   2   3
HETATM    3  O   UNK N   1      22.139  11.731  10.381  0.00  0.00    -0.389 OA
BRANCH   3   4
HETATM    4  C   UNK N   1      23.353  11.979  11.015  0.00  0.00     0.163 C 
HETATM    5  C   UNK N   1      23.148  11.971  12.514  0.00  0.00     0.033 C 
ENDBRANCH   3   4
ENDBRANCH   2   3
ENDBRANCH   1   2
BRANCH   1   6
HETATM    6  O   UNK N   1      19.938  14.203   9.117  0.00  0.00    -0.387 OA
BRANCH   6   7
HETATM    7  C   UNK N   1      20.575  15.422   8.907  0.00  0.00     0.193 C 
BRANCH   7   8
HETATM    8  C   UNK N   1      19.515  16.497   8.840  0.00  0.00     0.193 C 
BRANCH   8   9
HETATM    9  O   UNK N   1      18.283  15.985   9.233  0.00  0.00    -0.394 OA
HETATM   10  C   UNK N   1      17.430  17.086   9.187  0.00  0.00     0.201 C 
ENDBRANCH   8   9
ENDBRANCH   7   8
ENDBRANCH   6   7
ENDBRANCH   1   6
TORSDOF 7
ENDMDL
MODEL 7
REMARK VINA RESULT:      -3.4     14.443     15.906
REMARK  7 active torsions:
REMARK  status: ('A' for Active; 'I' for Inactive)
REMARK    1  A    between atoms: C_2  and  O_3 
REMARK    2  A    between atoms: O_3  and  C_4 
REMARK    3  A    between atoms: C_4  and  C_5 
REMARK    4  A    between atoms: C_5  and  O_6 
REMARK    5  A    between atoms: O_6  and  C_7 
REMARK    6  A    between atoms: C_7  and  C_8 
REMARK    7  A    between atoms: C_8  and  O_9 
ROOT
HETATM    1  C   UNK N   1      20.974  17.704   6.855  0.00  0.00     0.193 C 
ENDROOT
BRANCH   1   2
HETATM    2  C   UNK N   1      21.656  18.305   5.647  0.00  0.00     0.193 C 
BRANCH   2   3
HETATM    3  O   UNK N   1      20.971  19.445   5.240  0.00  0.00    -0.389 OA
BRANCH   3   4
HETATM    4  C   UNK N   1      21.127  19.462   3.856  0.00  0.00     0.163 C 
HETATM    5  C   UNK N   1      20.203  18.439   3.233  0.00  0.00     0.033 C 
ENDBRANCH   3   4
ENDBRANCH   2   3
ENDBRANCH   1   2
BRANCH   1   6
HETATM    6  O   UNK N   1      20.606  18.737   7.709  0.00  0.00    -0.387 OA
BRANCH   6   7
HETATM    7  C   UNK N   1      19.769  18.157   8.657  0.00  0.00     0.193 C 
BRANCH   7   8
HETATM    8  C   UNK N   1      19.799  16.659   8.452  0.00  0.00     0.193 C 
BRANCH   8   9
HETATM    9  O   UNK N   1      18.664  16.074   9.006  0.00  0.00    -0.394 OA
HETATM   10  C   UNK N   1      17.793  17.145   9.198  0.00  0.00     0.201 C 
ENDBRANCH   8   9
ENDBRANCH   7   8
ENDBRANCH   6   7
ENDBRANCH   1   6
TORSDOF 7
ENDMDL
MODEL 8
REMARK VINA RESULT:      -3.4      1.827      3.082
REMARK  7 active torsions:
REMARK  status: ('A' for Active; 'I' for Inactive)
REMARK    1  A    between atoms: C_2  and  O_3 
REMARK    2  A    between atoms: O_3  and  C_4 
REMARK    3  A    between atoms: C_4  and  C_5 
REMARK    4  A    between atoms: C_5  and  O_6 
REMARK    5  A    between atoms: O_6  and  C_7 
REMARK    6  A    between atoms: C_7  and  C_8 
REMARK    7  A    between atoms: C_8  and  O_9 
ROOT
HETATM    1  C   UNK N   1      34.499  18.430   8.190  0.00  0.00     0.193 C 
ENDROOT
BRANCH   1   2
HETATM    2  C   UNK N   1      34.634  17.237   9.109  0.00  0.00     0.193 C 
BRANCH   2   3
HETATM    3  O   UNK N   1      35.488  17.548  10.161  0.00  0.00    -0.389 OA
BRANCH   3   4
HETATM    4  C   UNK N   1      35.632  16.348  10.853  0.00  0.00     0.163 C 
HETATM    5  C   UNK N   1      35.809  15.217   9.865  0.00  0.00     0.033 C 
ENDBRANCH   3   4
ENDBRANCH   2   3
ENDBRANCH   1   2
BRANCH   1   6
HETATM    6  O   UNK N   1      34.560  17.979   6.877  0.00  0.00    -0.387 OA
BRANCH   6   7
HETATM    7  C   UNK N   1      33.819  16.802   6.852  0.00  0.00     0.193 C 
BRANCH   7   8
HETATM    8  C   UNK N   1      32.567  17.055   6.044  0.00  0.00     0.193 C 
BRANCH   8   9
HETATM    9  O   UNK N   1      32.669  16.453   4.794  0.00  0.00    -0.394 OA
HETATM   10  C   UNK N   1      32.468  17.500   3.898  0.00  0.00     0.201 C 
ENDBRANCH   8   9
ENDBRANCH   7   8
ENDBRANCH   6   7
ENDBRANCH   1   6
TORSDOF 7
ENDMDL
MODEL 9
REMARK VINA RESULT:      -3.3     11.206     13.305
REMARK  7 active torsions:
REMARK  status: ('A' for Active; 'I' for Inactive)
REMARK    1  A    between atoms: C_2  and  O_3 
REMARK    2  A    between atoms: O_3  and  C_4 
REMARK    3  A    between atoms: C_4  and  C_5 
REMARK    4  A    between atoms: C_5  and  O_6 
REMARK    5  A    between atoms: O_6  and  C_7 
REMARK    6  A    between atoms: C_7  and  C_8 
REMARK    7  A    between atoms: C_8  and  O_9 
ROOT
HETATM    1  C   UNK N   1      25.488  20.511   2.661  0.00  0.00     0.193 C 
ENDROOT
BRANCH   1   2
HETATM    2  C   UNK N   1      25.491  20.230   4.147  0.00  0.00     0.193 C 
BRANCH   2   3
HETATM    3  O   UNK N   1      26.663  19.570   4.498  0.00  0.00    -0.389 OA
BRANCH   3   4
HETATM    4  C   UNK N   1      26.834  19.869   5.847  0.00  0.00     0.163 C 
HETATM    5  C   UNK N   1      27.163  21.338   5.998  0.00  0.00     0.033 C 
ENDBRANCH   3   4
ENDBRANCH   2   3
ENDBRANCH   1   2
BRANCH   1   6
HETATM    6  O   UNK N   1      24.239  21.013   2.313  0.00  0.00    -0.387 OA
BRANCH   6   7
HETATM    7  C   UNK N   1      23.323  20.288   3.069  0.00  0.00     0.193 C 
BRANCH   7   8
HETATM    8  C   UNK N   1      21.949  20.515   2.481  0.00  0.00     0.193 C 
BRANCH   8   9
HETATM    9  O   UNK N   1      20.987  20.511   3.486  0.00  0.00    -0.394 OA
HETATM   10  C   UNK N   1      20.042  19.588   3.043  0.00  0.00     0.201 C 
ENDBRANCH   8   9
ENDBRANCH   7   8
ENDBRANCH   6   7
ENDBRANCH   1   6
TORSDOF 7
ENDMDL
