MODEL 1
REMARK VINA RESULT:      -6.7      0.000      0.000
REMARK  8 active torsions:
REMARK  status: ('A' for Active; 'I' for Inactive)
REMARK    1  A    between atoms: C_6  and  C_7 
REMARK    2  A    between atoms: C_7  and  N_8 
REMARK    3  A    between atoms: C_11  and  C_12 
REMARK    4  A    between atoms: C_12  and  C_13 
REMARK    5  A    between atoms: C_13  and  O_14 
REMARK    6  A    between atoms: O_14  and  P_15 
REMARK    7  A    between atoms: P_15  and  O_16 
REMARK    8  A    between atoms: C_21  and  N_22 
ROOT
HETATM    1  N   UNK N   1      27.369  18.594   6.056  0.00  0.00    -0.349 N 
HETATM    2  C   UNK N   1      27.465  19.887   6.477  0.00  0.00     0.141 A 
HETATM    3  S   UNK N   1      26.793  20.853   5.314  0.00  0.00    -0.087 SA
HETATM    4  C   UNK N   1      26.359  19.668   4.243  0.00  0.00     0.008 A 
HETATM    5  C   UNK N   1      26.759  18.460   4.823  0.00  0.00     0.021 A 
HETATM    6  C   UNK N   1      26.505  17.133   4.185  0.00  0.00     0.069 C 
ENDROOT
BRANCH   1   7
HETATM    7  C   UNK N   1      27.770  17.464   6.893  0.00  0.00     0.172 C 
BRANCH   7   8
HETATM    8  C   UNK N   1      29.210  17.501   7.315  0.00  0.00     0.019 A 
HETATM    9  C   UNK N   1      30.230  17.145   6.428  0.00  0.00     0.102 A 
HETATM   10  N   UNK N   1      31.528  17.233   6.809  0.00  0.00    -0.355 N 
HETATM   11  C   UNK N   1      31.864  17.679   8.048  0.00  0.00     0.078 A 
ATOM     12  HN  UNK N   1      32.263  16.959   6.157  1.00  0.00     0.166 HD
HETATM   13  C   UNK N   1      33.291  17.787   8.437  0.00  0.00     0.089 C 
HETATM   14  N   UNK N   1      30.887  18.042   8.927  0.00  0.00    -0.332 N 
HETATM   15  C   UNK N   1      29.578  17.960   8.588  0.00  0.00     0.109 A 
ATOM     16  HN  UNK N   1      31.146  18.378   9.854  1.00  0.00     0.168 HD
BRANCH  15  17
HETATM   17  N   UNK N   1      28.591  18.370   9.514  0.00  0.00    -0.385 N 
HETATM   18  H   UNK N   1      27.651  18.108   9.383  0.00  0.00     0.157 HD
HETATM   19  H   UNK N   1      28.844  18.920  10.290  0.00  0.00     0.157 HD
ENDBRANCH  15  17
ENDBRANCH   7   8
ENDBRANCH   1   7
BRANCH   4  20
HETATM   20  C   UNK N   1      25.602  19.838   2.968  0.00  0.00     0.075 C 
BRANCH  20  21
HETATM   21  C   UNK N   1      24.277  20.533   3.196  0.00  0.00     0.186 C 
BRANCH  21  22
HETATM   22  O   UNK N   1      23.305  19.561   3.433  0.00  0.00    -0.290 OA
BRANCH  22  23
HETATM   23  P   UNK N   1      21.844  20.145   2.694  0.00  0.00     0.406 P 
HETATM   24  O   UNK N   1      22.590  21.691   2.847  0.00  0.00    -0.624 OA
HETATM   25  O   UNK N   1      20.725  20.672   3.631  0.00  0.00    -0.624 OA
BRANCH  23  26
HETATM   26  O   UNK N   1      21.696  20.540   1.010  0.00  0.00    -0.300 OA
HETATM   27  H   UNK N   1      22.186  20.511   0.173  0.00  0.00     0.223 HD
ENDBRANCH  23  26
ENDBRANCH  22  23
ENDBRANCH  21  22
ENDBRANCH  20  21
ENDBRANCH   4  20
TORSDOF 8
ENDMDL
MODEL 2
REMARK VINA RESULT:      -6.6      7.596      9.478
REMARK  8 active torsions:
REMARK  status: ('A' for Active; 'I' for Inactive)
REMARK    1  A    between atoms: C_6  and  C_7 
REMARK    2  A    between atoms: C_7  and  N_8 
REMARK    3  A    between atoms: C_11  and  C_12 
REMARK    4  A    between atoms: C_12  and  C_13 
REMARK    5  A    between atoms: C_13  and  O_14 
REMARK    6  A    between atoms: O_14  and  P_15 
REMARK    7  A    between atoms: P_15  and  O_16 
REMARK    8  A    between atoms: C_21  and  N_22 
ROOT
HETATM    1  N   UNK N   1      30.688  17.002   6.601  0.00  0.00    -0.349 N 
HETATM    2  C   UNK N   1      31.168  16.467   5.442  0.00  0.00     0.141 A 
HETATM    3  S   UNK N   1      32.812  16.650   5.440  0.00  0.00    -0.087 SA
HETATM    4  C   UNK N   1      32.969  17.410   6.901  0.00  0.00     0.008 A 
HETATM    5  C   UNK N   1      31.674  17.527   7.416  0.00  0.00     0.021 A 
HETATM    6  C   UNK N   1      31.385  18.122   8.755  0.00  0.00     0.069 C 
ENDROOT
BRANCH   1   7
HETATM    7  C   UNK N   1      29.278  16.916   6.981  0.00  0.00     0.172 C 
BRANCH   7   8
HETATM    8  C   UNK N   1      28.528  18.207   6.831  0.00  0.00     0.019 A 
HETATM    9  C   UNK N   1      28.423  18.840   5.588  0.00  0.00     0.102 A 
HETATM   10  N   UNK N   1      27.699  19.979   5.462  0.00  0.00    -0.355 N 
HETATM   11  C   UNK N   1      27.053  20.519   6.529  0.00  0.00     0.078 A 
ATOM     12  HN  UNK N   1      27.639  20.437   4.553  1.00  0.00     0.166 HD
HETATM   13  C   UNK N   1      26.250  21.754   6.363  0.00  0.00     0.089 C 
HETATM   14  N   UNK N   1      27.133  19.915   7.748  0.00  0.00    -0.332 N 
HETATM   15  C   UNK N   1      27.854  18.781   7.919  0.00  0.00     0.109 A 
ATOM     16  HN  UNK N   1      26.644  20.324   8.544  1.00  0.00     0.168 HD
BRANCH  15  17
HETATM   17  N   UNK N   1      27.893  18.164   9.191  0.00  0.00    -0.385 N 
HETATM   18  H   UNK N   1      28.739  17.796   9.536  0.00  0.00     0.157 HD
HETATM   19  H   UNK N   1      27.073  18.102   9.732  0.00  0.00     0.157 HD
ENDBRANCH  15  17
ENDBRANCH   7   8
ENDBRANCH   1   7
BRANCH   4  20
HETATM   20  C   UNK N   1      34.238  17.799   7.584  0.00  0.00     0.075 C 
BRANCH  20  21
HETATM   21  C   UNK N   1      34.698  16.733   8.555  0.00  0.00     0.186 C 
BRANCH  21  22
HETATM   22  O   UNK N   1      34.534  17.217   9.852  0.00  0.00    -0.290 OA
BRANCH  22  23
HETATM   23  P   UNK N   1      35.408  16.132  10.891  0.00  0.00     0.406 P 
HETATM   24  O   UNK N   1      35.329  15.057   9.545  0.00  0.00    -0.624 OA
HETATM   25  O   UNK N   1      34.588  15.081  11.685  0.00  0.00    -0.624 OA
BRANCH  23  26
HETATM   26  O   UNK N   1      37.123  15.881  10.811  0.00  0.00    -0.300 OA
HETATM   27  H   UNK N   1      37.957  16.348  10.643  0.00  0.00     0.223 HD
ENDBRANCH  23  26
ENDBRANCH  22  23
ENDBRANCH  21  22
ENDBRANCH  20  21
ENDBRANCH   4  20
TORSDOF 8
ENDMDL
MODEL 3
REMARK VINA RESULT:      -6.2      9.301     11.704
REMARK  8 active torsions:
REMARK  status: ('A' for Active; 'I' for Inactive)
REMARK    1  A    between atoms: C_6  and  C_7 
REMARK    2  A    between atoms: C_7  and  N_8 
REMARK    3  A    between atoms: C_11  and  C_12 
REMARK    4  A    between atoms: C_12  and  C_13 
REMARK    5  A    between atoms: C_13  and  O_14 
REMARK    6  A    between atoms: O_14  and  P_15 
REMARK    7  A    between atoms: P_15  and  O_16 
REMARK    8  A    between atoms: C_21  and  N_22 
ROOT
HETATM    1  N   UNK N   1      35.769  13.179  11.344  0.00  0.00    -0.349 N 
HETATM    2  C   UNK N   1      35.449  12.047  10.655  0.00  0.00     0.141 A 
HETATM    3  S   UNK N   1      34.295  12.441   9.536  0.00  0.00    -0.087 SA
HETATM    4  C   UNK N   1      34.165  14.053   9.888  0.00  0.00     0.008 A 
HETATM    5  C   UNK N   1      35.066  14.295  10.929  0.00  0.00     0.021 A 
HETATM    6  C   UNK N   1      35.287  15.653  11.510  0.00  0.00     0.069 C 
ENDROOT
BRANCH   1   7
HETATM    7  C   UNK N   1      36.838  13.214  12.342  0.00  0.00     0.172 C 
BRANCH   7   8
HETATM    8  C   UNK N   1      36.375  12.923  13.740  0.00  0.00     0.019 A 
HETATM    9  C   UNK N   1      35.842  11.675  14.076  0.00  0.00     0.102 A 
HETATM   10  N   UNK N   1      35.476  11.412  15.355  0.00  0.00    -0.355 N 
HETATM   11  C   UNK N   1      35.631  12.344  16.332  0.00  0.00     0.078 A 
ATOM     12  HN  UNK N   1      35.078  10.502  15.586  1.00  0.00     0.166 HD
HETATM   13  C   UNK N   1      35.243  12.027  17.728  0.00  0.00     0.089 C 
HETATM   14  N   UNK N   1      36.157  13.564  16.030  0.00  0.00    -0.332 N 
HETATM   15  C   UNK N   1      36.527  13.870  14.763  0.00  0.00     0.109 A 
ATOM     16  HN  UNK N   1      36.273  14.257  16.768  1.00  0.00     0.168 HD
BRANCH  15  17
HETATM   17  N   UNK N   1      37.096  15.135  14.488  0.00  0.00    -0.385 N 
HETATM   18  H   UNK N   1      38.066  15.274  14.591  0.00  0.00     0.157 HD
HETATM   19  H   UNK N   1      36.522  15.878  14.193  0.00  0.00     0.157 HD
ENDBRANCH  15  17
ENDBRANCH   7   8
ENDBRANCH   1   7
BRANCH   4  20
HETATM   20  C   UNK N   1      33.336  15.068   9.172  0.00  0.00     0.075 C 
BRANCH  20  21
HETATM   21  C   UNK N   1      33.916  15.405   7.816  0.00  0.00     0.186 C 
BRANCH  21  22
HETATM   22  O   UNK N   1      34.956  16.316   7.995  0.00  0.00    -0.290 OA
BRANCH  22  23
HETATM   23  P   UNK N   1      34.208  17.863   8.254  0.00  0.00     0.406 P 
HETATM   24  O   UNK N   1      34.366  18.032   6.545  0.00  0.00    -0.624 OA
HETATM   25  O   UNK N   1      35.138  19.098   8.388  0.00  0.00    -0.624 OA
BRANCH  23  26
HETATM   26  O   UNK N   1      32.523  18.185   7.988  0.00  0.00    -0.300 OA
HETATM   27  H   UNK N   1      31.868  18.289   7.280  0.00  0.00     0.223 HD
ENDBRANCH  23  26
ENDBRANCH  22  23
ENDBRANCH  21  22
ENDBRANCH  20  21
ENDBRANCH   4  20
TORSDOF 8
ENDMDL
MODEL 4
REMARK VINA RESULT:      -6.1      6.642      8.341
REMARK  8 active torsions:
REMARK  status: ('A' for Active; 'I' for Inactive)
REMARK    1  A    between atoms: C_6  and  C_7 
REMARK    2  A    between atoms: C_7  and  N_8 
REMARK    3  A    between atoms: C_11  and  C_12 
REMARK    4  A    between atoms: C_12  and  C_13 
REMARK    5  A    between atoms: C_13  and  O_14 
REMARK    6  A    between atoms: O_14  and  P_15 
REMARK    7  A    between atoms: P_15  and  O_16 
REMARK    8  A    between atoms: C_21  and  N_22 
ROOT
HETATM    1  N   UNK N   1      30.107  16.180   5.003  0.00  0.00    -0.349 N 
HETATM    2  C   UNK N   1      30.507  16.076   3.705  0.00  0.00     0.141 A 
HETATM    3  S   UNK N   1      32.130  15.749   3.697  0.00  0.00    -0.087 SA
HETATM    4  C   UNK N   1      32.375  15.730   5.334  0.00  0.00     0.008 A 
HETATM    5  C   UNK N   1      31.130  15.991   5.913  0.00  0.00     0.021 A 
HETATM    6  C   UNK N   1      30.914  16.014   7.391  0.00  0.00     0.069 C 
ENDROOT
BRANCH   1   7
HETATM    7  C   UNK N   1      28.705  16.360   5.380  0.00  0.00     0.172 C 
BRANCH   7   8
HETATM    8  C   UNK N   1      28.325  17.787   5.647  0.00  0.00     0.019 A 
HETATM    9  C   UNK N   1      28.458  18.765   4.656  0.00  0.00     0.102 A 
HETATM   10  N   UNK N   1      28.063  20.039   4.897  0.00  0.00    -0.355 N 
HETATM   11  C   UNK N   1      27.519  20.388   6.093  0.00  0.00     0.078 A 
ATOM     12  HN  UNK N   1      28.175  20.746   4.171  1.00  0.00     0.166 HD
HETATM   13  C   UNK N   1      27.075  21.783   6.328  0.00  0.00     0.089 C 
HETATM   14  N   UNK N   1      27.371  19.450   7.071  0.00  0.00    -0.332 N 
HETATM   15  C   UNK N   1      27.762  18.168   6.873  0.00  0.00     0.109 A 
ATOM     16  HN  UNK N   1      26.960  19.718   7.965  1.00  0.00     0.168 HD
BRANCH  15  17
HETATM   17  N   UNK N   1      27.567  17.213   7.898  0.00  0.00    -0.385 N 
HETATM   18  H   UNK N   1      28.238  17.111   8.612  0.00  0.00     0.157 HD
HETATM   19  H   UNK N   1      26.761  16.649   7.898  0.00  0.00     0.157 HD
ENDBRANCH  15  17
ENDBRANCH   7   8
ENDBRANCH   1   7
BRANCH   4  20
HETATM   20  C   UNK N   1      33.641  15.396   6.051  0.00  0.00     0.075 C 
BRANCH  20  21
HETATM   21  C   UNK N   1      34.632  16.538   5.992  0.00  0.00     0.186 C 
BRANCH  21  22
HETATM   22  O   UNK N   1      34.002  17.693   6.454  0.00  0.00    -0.290 OA
BRANCH  22  23
HETATM   23  P   UNK N   1      34.461  17.863   8.122  0.00  0.00     0.406 P 
HETATM   24  O   UNK N   1      32.991  18.754   8.256  0.00  0.00    -0.624 OA
HETATM   25  O   UNK N   1      35.201  19.163   8.535  0.00  0.00    -0.624 OA
BRANCH  23  26
HETATM   26  O   UNK N   1      33.825  16.890   9.410  0.00  0.00    -0.300 OA
HETATM   27  H   UNK N   1      33.275  16.108   9.576  0.00  0.00     0.223 HD
ENDBRANCH  23  26
ENDBRANCH  22  23
ENDBRANCH  21  22
ENDBRANCH  20  21
ENDBRANCH   4  20
TORSDOF 8
ENDMDL
MODEL 5
REMARK VINA RESULT:      -5.9      1.525      2.267
REMARK  8 active torsions:
REMARK  status: ('A' for Active; 'I' for Inactive)
REMARK    1  A    between atoms: C_6  and  C_7 
REMARK    2  A    between atoms: C_7  and  N_8 
REMARK    3  A    between atoms: C_11  and  C_12 
REMARK    4  A    between atoms: C_12  and  C_13 
REMARK    5  A    between atoms: C_13  and  O_14 
REMARK    6  A    between atoms: O_14  and  P_15 
REMARK    7  A    between atoms: P_15  and  O_16 
REMARK    8  A    between atoms: C_21  and  N_22 
ROOT
HETATM    1  N   UNK N   1      27.399  18.330   5.292  0.00  0.00    -0.349 N 
HETATM    2  C   UNK N   1      27.538  19.487   5.998  0.00  0.00     0.141 A 
HETATM    3  S   UNK N   1      26.540  20.620   5.321  0.00  0.00    -0.087 SA
HETATM    4  C   UNK N   1      25.901  19.683   4.115  0.00  0.00     0.008 A 
HETATM    5  C   UNK N   1      26.497  18.425   4.249  0.00  0.00     0.021 A 
HETATM    6  C   UNK N   1      26.150  17.268   3.369  0.00  0.00     0.069 C 
ENDROOT
BRANCH   1   7
HETATM    7  C   UNK N   1      28.059  17.086   5.686  0.00  0.00     0.172 C 
BRANCH   7   8
HETATM    8  C   UNK N   1      29.550  17.202   5.813  0.00  0.00     0.019 A 
HETATM    9  C   UNK N   1      30.169  17.202   7.067  0.00  0.00     0.102 A 
HETATM   10  N   UNK N   1      31.520  17.257   7.161  0.00  0.00    -0.355 N 
HETATM   11  C   UNK N   1      32.297  17.299   6.047  0.00  0.00     0.078 A 
ATOM     12  HN  UNK N   1      31.959  17.268   8.081  1.00  0.00     0.166 HD
HETATM   13  C   UNK N   1      33.774  17.338   6.173  0.00  0.00     0.089 C 
HETATM   14  N   UNK N   1      31.717  17.290   4.814  0.00  0.00    -0.332 N 
HETATM   15  C   UNK N   1      30.370  17.246   4.676  0.00  0.00     0.109 A 
ATOM     16  HN  UNK N   1      32.306  17.320   3.982  1.00  0.00     0.168 HD
BRANCH  15  17
HETATM   17  N   UNK N   1      29.802  17.210   3.382  0.00  0.00    -0.385 N 
HETATM   18  H   UNK N   1      30.375  17.306   2.587  0.00  0.00     0.157 HD
HETATM   19  H   UNK N   1      28.831  17.088   3.275  0.00  0.00     0.157 HD
ENDBRANCH  15  17
ENDBRANCH   7   8
ENDBRANCH   1   7
BRANCH   4  20
HETATM   20  C   UNK N   1      24.831  20.066   3.148  0.00  0.00     0.075 C 
BRANCH  20  21
HETATM   21  C   UNK N   1      23.462  19.645   3.636  0.00  0.00     0.186 C 
BRANCH  21  22
HETATM   22  O   UNK N   1      22.513  20.505   3.085  0.00  0.00    -0.290 OA
BRANCH  22  23
HETATM   23  P   UNK N   1      21.081  19.552   2.832  0.00  0.00     0.406 P 
HETATM   24  O   UNK N   1      20.323  20.745   3.820  0.00  0.00    -0.624 OA
HETATM   25  O   UNK N   1      20.707  18.516   3.925  0.00  0.00    -0.624 OA
BRANCH  23  26
HETATM   26  O   UNK N   1      19.851  19.935   1.670  0.00  0.00    -0.300 OA
HETATM   27  H   UNK N   1      19.076  20.504   1.537  0.00  0.00     0.223 HD
ENDBRANCH  23  26
ENDBRANCH  22  23
ENDBRANCH  21  22
ENDBRANCH  20  21
ENDBRANCH   4  20
TORSDOF 8
ENDMDL
MODEL 6
REMARK VINA RESULT:      -5.8      7.324      9.303
REMARK  8 active torsions:
REMARK  status: ('A' for Active; 'I' for Inactive)
REMARK    1  A    between atoms: C_6  and  C_7 
REMARK    2  A    between atoms: C_7  and  N_8 
REMARK    3  A    between atoms: C_11  and  C_12 
REMARK    4  A    between atoms: C_12  and  C_13 
REMARK    5  A    between atoms: C_13  and  O_14 
REMARK    6  A    between atoms: O_14  and  P_15 
REMARK    7  A    between atoms: P_15  and  O_16 
REMARK    8  A    between atoms: C_21  and  N_22 
ROOT
HETATM    1  N   UNK N   1      30.085  16.772   6.791  0.00  0.00    -0.349 N 
HETATM    2  C   UNK N   1      29.758  17.244   8.027  0.00  0.00     0.141 A 
HETATM    3  S   UNK N   1      31.127  17.873   8.711  0.00  0.00    -0.087 SA
HETATM    4  C   UNK N   1      32.175  17.567   7.468  0.00  0.00     0.008 A 
HETATM    5  C   UNK N   1      31.419  16.944   6.470  0.00  0.00     0.021 A 
HETATM    6  C   UNK N   1      31.993  16.545   5.150  0.00  0.00     0.069 C 
ENDROOT
BRANCH   1   7
HETATM    7  C   UNK N   1      29.087  16.242   5.863  0.00  0.00     0.172 C 
BRANCH   7   8
HETATM    8  C   UNK N   1      28.138  17.279   5.335  0.00  0.00     0.019 A 
HETATM    9  C   UNK N   1      28.551  18.211   4.378  0.00  0.00     0.102 A 
HETATM   10  N   UNK N   1      27.668  19.108   3.874  0.00  0.00    -0.355 N 
HETATM   11  C   UNK N   1      26.369  19.111   4.275  0.00  0.00     0.078 A 
ATOM     12  HN  UNK N   1      27.983  19.791   3.185  1.00  0.00     0.166 HD
HETATM   13  C   UNK N   1      25.415  20.088   3.695  0.00  0.00     0.089 C 
HETATM   14  N   UNK N   1      25.942  18.205   5.199  0.00  0.00    -0.332 N 
HETATM   15  C   UNK N   1      26.794  17.299   5.734  0.00  0.00     0.109 A 
ATOM     16  HN  UNK N   1      24.965  18.211   5.493  1.00  0.00     0.168 HD
BRANCH  15  17
HETATM   17  N   UNK N   1      26.312  16.355   6.670  0.00  0.00    -0.385 N 
HETATM   18  H   UNK N   1      25.357  16.340   6.911  0.00  0.00     0.157 HD
HETATM   19  H   UNK N   1      26.932  15.710   7.082  0.00  0.00     0.157 HD
ENDBRANCH  15  17
ENDBRANCH   7   8
ENDBRANCH   1   7
BRANCH   4  20
HETATM   20  C   UNK N   1      33.611  17.968   7.380  0.00  0.00     0.075 C 
BRANCH  20  21
HETATM   21  C   UNK N   1      34.520  16.920   7.984  0.00  0.00     0.186 C 
BRANCH  21  22
HETATM   22  O   UNK N   1      34.552  17.107   9.366  0.00  0.00    -0.290 OA
BRANCH  22  23
HETATM   23  P   UNK N   1      34.607  15.519  10.070  0.00  0.00     0.406 P 
HETATM   24  O   UNK N   1      35.329  16.328  11.410  0.00  0.00    -0.624 OA
HETATM   25  O   UNK N   1      35.929  14.718   9.934  0.00  0.00    -0.624 OA
BRANCH  23  26
HETATM   26  O   UNK N   1      33.456  14.929  11.227  0.00  0.00    -0.300 OA
HETATM   27  H   UNK N   1      32.730  15.221  11.800  0.00  0.00     0.223 HD
ENDBRANCH  23  26
ENDBRANCH  22  23
ENDBRANCH  21  22
ENDBRANCH  20  21
ENDBRANCH   4  20
TORSDOF 8
ENDMDL
MODEL 7
REMARK VINA RESULT:      -5.8      5.954      7.910
REMARK  8 active torsions:
REMARK  status: ('A' for Active; 'I' for Inactive)
REMARK    1  A    between atoms: C_6  and  C_7 
REMARK    2  A    between atoms: C_7  and  N_8 
REMARK    3  A    between atoms: C_11  and  C_12 
REMARK    4  A    between atoms: C_12  and  C_13 
REMARK    5  A    between atoms: C_13  and  O_14 
REMARK    6  A    between atoms: O_14  and  P_15 
REMARK    7  A    between atoms: P_15  and  O_16 
REMARK    8  A    between atoms: C_21  and  N_22 
ROOT
HETATM    1  N   UNK N   1      34.491  15.899   7.923  0.00  0.00    -0.349 N 
HETATM    2  C   UNK N   1      34.497  17.086   8.592  0.00  0.00     0.141 A 
HETATM    3  S   UNK N   1      33.211  17.980   8.057  0.00  0.00    -0.087 SA
HETATM    4  C   UNK N   1      32.608  16.894   6.963  0.00  0.00     0.008 A 
HETATM    5  C   UNK N   1      33.451  15.781   7.019  0.00  0.00     0.021 A 
HETATM    6  C   UNK N   1      33.220  14.548   6.208  0.00  0.00     0.069 C 
ENDROOT
BRANCH   1   7
HETATM    7  C   UNK N   1      35.432  14.821   8.227  0.00  0.00     0.172 C 
BRANCH   7   8
HETATM    8  C   UNK N   1      35.547  14.511   9.691  0.00  0.00     0.019 A 
HETATM    9  C   UNK N   1      36.612  15.007  10.451  0.00  0.00     0.102 A 
HETATM   10  N   UNK N   1      36.674  14.759  11.782  0.00  0.00    -0.355 N 
HETATM   11  C   UNK N   1      35.703  14.040  12.405  0.00  0.00     0.078 A 
ATOM     12  HN  UNK N   1      37.461  15.116  12.323  1.00  0.00     0.166 HD
HETATM   13  C   UNK N   1      35.780  13.798  13.866  0.00  0.00     0.089 C 
HETATM   14  N   UNK N   1      34.651  13.555  11.687  0.00  0.00    -0.332 N 
HETATM   15  C   UNK N   1      34.557  13.772  10.354  0.00  0.00     0.109 A 
ATOM     16  HN  UNK N   1      33.925  13.018  12.162  1.00  0.00     0.168 HD
BRANCH  15  17
HETATM   17  N   UNK N   1      33.438  13.278   9.644  0.00  0.00    -0.385 N 
HETATM   18  H   UNK N   1      33.530  13.007   8.701  0.00  0.00     0.157 HD
HETATM   19  H   UNK N   1      32.564  13.206  10.092  0.00  0.00     0.157 HD
ENDBRANCH  15  17
ENDBRANCH   7   8
ENDBRANCH   1   7
BRANCH   4  20
HETATM   20  C   UNK N   1      31.358  17.027   6.157  0.00  0.00     0.075 C 
BRANCH  20  21
HETATM   21  C   UNK N   1      30.139  16.596   6.943  0.00  0.00     0.186 C 
BRANCH  21  22
HETATM   22  O   UNK N   1      29.228  17.652   6.958  0.00  0.00    -0.290 OA
BRANCH  22  23
HETATM   23  P   UNK N   1      28.956  18.034   8.632  0.00  0.00     0.406 P 
HETATM   24  O   UNK N   1      28.245  19.475   8.007  0.00  0.00    -0.624 OA
HETATM   25  O   UNK N   1      29.996  18.942   9.340  0.00  0.00    -0.624 OA
BRANCH  23  26
HETATM   26  O   UNK N   1      27.440  17.807   9.446  0.00  0.00    -0.300 OA
HETATM   27  H   UNK N   1      26.669  17.219   9.476  0.00  0.00     0.223 HD
ENDBRANCH  23  26
ENDBRANCH  22  23
ENDBRANCH  21  22
ENDBRANCH  20  21
ENDBRANCH   4  20
TORSDOF 8
ENDMDL
MODEL 8
REMARK VINA RESULT:      -5.8      7.736      9.834
REMARK  8 active torsions:
REMARK  status: ('A' for Active; 'I' for Inactive)
REMARK    1  A    between atoms: C_6  and  C_7 
REMARK    2  A    between atoms: C_7  and  N_8 
REMARK    3  A    between atoms: C_11  and  C_12 
REMARK    4  A    between atoms: C_12  and  C_13 
REMARK    5  A    between atoms: C_13  and  O_14 
REMARK    6  A    between atoms: O_14  and  P_15 
REMARK    7  A    between atoms: P_15  and  O_16 
REMARK    8  A    between atoms: C_21  and  N_22 
ROOT
HETATM    1  N   UNK N   1      31.218  17.001   7.892  0.00  0.00    -0.349 N 
HETATM    2  C   UNK N   1      31.784  18.151   8.356  0.00  0.00     0.141 A 
HETATM    3  S   UNK N   1      33.422  18.032   8.150  0.00  0.00    -0.087 SA
HETATM    4  C   UNK N   1      33.466  16.524   7.471  0.00  0.00     0.008 A 
HETATM    5  C   UNK N   1      32.138  16.093   7.400  0.00  0.00     0.021 A 
HETATM    6  C   UNK N   1      31.742  14.784   6.799  0.00  0.00     0.069 C 
ENDROOT
BRANCH   1   7
HETATM    7  C   UNK N   1      29.770  16.811   7.823  0.00  0.00     0.172 C 
BRANCH   7   8
HETATM    8  C   UNK N   1      29.072  17.781   6.915  0.00  0.00     0.019 A 
HETATM    9  C   UNK N   1      29.316  17.782   5.538  0.00  0.00     0.102 A 
HETATM   10  N   UNK N   1      28.639  18.632   4.727  0.00  0.00    -0.355 N 
HETATM   11  C   UNK N   1      27.706  19.483   5.228  0.00  0.00     0.078 A 
ATOM     12  HN  UNK N   1      28.834  18.631   3.726  1.00  0.00     0.166 HD
HETATM   13  C   UNK N   1      26.963  20.389   4.319  0.00  0.00     0.089 C 
HETATM   14  N   UNK N   1      27.444  19.493   6.565  0.00  0.00    -0.332 N 
HETATM   15  C   UNK N   1      28.105  18.667   7.411  0.00  0.00     0.109 A 
ATOM     16  HN  UNK N   1      26.741  20.133   6.934  1.00  0.00     0.168 HD
BRANCH  15  17
HETATM   17  N   UNK N   1      27.789  18.683   8.790  0.00  0.00    -0.385 N 
HETATM   18  H   UNK N   1      28.456  18.390   9.453  0.00  0.00     0.157 HD
HETATM   19  H   UNK N   1      26.902  18.987   9.087  0.00  0.00     0.157 HD
ENDBRANCH  15  17
ENDBRANCH   7   8
ENDBRANCH   1   7
BRANCH   4  20
HETATM   20  C   UNK N   1      34.665  15.809   6.941  0.00  0.00     0.075 C 
BRANCH  20  21
HETATM   21  C   UNK N   1      35.348  14.993   8.017  0.00  0.00     0.186 C 
BRANCH  21  22
HETATM   22  O   UNK N   1      34.571  15.050   9.173  0.00  0.00    -0.290 OA
BRANCH  22  23
HETATM   23  P   UNK N   1      35.679  14.957  10.509  0.00  0.00     0.406 P 
HETATM   24  O   UNK N   1      36.786  14.369   9.325  0.00  0.00    -0.624 OA
HETATM   25  O   UNK N   1      35.830  13.588  11.224  0.00  0.00    -0.624 OA
BRANCH  23  26
HETATM   26  O   UNK N   1      36.894  16.149  10.848  0.00  0.00    -0.300 OA
HETATM   27  H   UNK N   1      37.856  16.271  10.883  0.00  0.00     0.223 HD
ENDBRANCH  23  26
ENDBRANCH  22  23
ENDBRANCH  21  22
ENDBRANCH  20  21
ENDBRANCH   4  20
TORSDOF 8
ENDMDL
MODEL 9
REMARK VINA RESULT:      -5.7      6.564      9.144
REMARK  8 active torsions:
REMARK  status: ('A' for Active; 'I' for Inactive)
REMARK    1  A    between atoms: C_6  and  C_7 
REMARK    2  A    between atoms: C_7  and  N_8 
REMARK    3  A    between atoms: C_11  and  C_12 
REMARK    4  A    between atoms: C_12  and  C_13 
REMARK    5  A    between atoms: C_13  and  O_14 
REMARK    6  A    between atoms: O_14  and  P_15 
REMARK    7  A    between atoms: P_15  and  O_16 
REMARK    8  A    between atoms: C_21  and  N_22 
ROOT
HETATM    1  N   UNK N   1      34.722  14.994   9.308  0.00  0.00    -0.349 N 
HETATM    2  C   UNK N   1      33.889  13.929   9.135  0.00  0.00     0.141 A 
HETATM    3  S   UNK N   1      32.417  14.507   8.646  0.00  0.00    -0.087 SA
HETATM    4  C   UNK N   1      32.787  16.120   8.638  0.00  0.00     0.008 A 
HETATM    5  C   UNK N   1      34.124  16.211   9.036  0.00  0.00     0.021 A 
HETATM    6  C   UNK N   1      34.859  17.509   9.113  0.00  0.00     0.069 C 
ENDROOT
BRANCH   1   7
HETATM    7  C   UNK N   1      36.138  14.838   9.636  0.00  0.00     0.172 C 
BRANCH   7   8
HETATM    8  C   UNK N   1      36.393  14.456  11.066  0.00  0.00     0.019 A 
HETATM    9  C   UNK N   1      36.028  15.306  12.114  0.00  0.00     0.102 A 
HETATM   10  N   UNK N   1      36.219  14.924  13.400  0.00  0.00    -0.355 N 
HETATM   11  C   UNK N   1      36.752  13.709  13.697  0.00  0.00     0.078 A 
ATOM     12  HN  UNK N   1      35.959  15.557  14.156  1.00  0.00     0.166 HD
HETATM   13  C   UNK N   1      36.933  13.303  15.111  0.00  0.00     0.089 C 
HETATM   14  N   UNK N   1      37.106  12.859  12.692  0.00  0.00    -0.332 N 
HETATM   15  C   UNK N   1      36.940  13.207  11.393  0.00  0.00     0.109 A 
ATOM     16  HN  UNK N   1      37.503  11.949  12.921  1.00  0.00     0.168 HD
BRANCH  15  17
HETATM   17  N   UNK N   1      37.292  12.291  10.375  0.00  0.00    -0.385 N 
HETATM   18  H   UNK N   1      36.592  11.790   9.897  0.00  0.00     0.157 HD
HETATM   19  H   UNK N   1      38.239  12.154  10.143  0.00  0.00     0.157 HD
ENDBRANCH  15  17
ENDBRANCH   7   8
ENDBRANCH   1   7
BRANCH   4  20
HETATM   20  C   UNK N   1      31.910  17.244   8.194  0.00  0.00     0.075 C 
BRANCH  20  21
HETATM   21  C   UNK N   1      30.649  16.737   7.529  0.00  0.00     0.186 C 
BRANCH  21  22
HETATM   22  O   UNK N   1      29.696  17.755   7.555  0.00  0.00    -0.290 OA
BRANCH  22  23
HETATM   23  P   UNK N   1      29.046  17.771   9.167  0.00  0.00     0.406 P 
HETATM   24  O   UNK N   1      28.008  19.001   8.550  0.00  0.00    -0.624 OA
HETATM   25  O   UNK N   1      29.598  18.834  10.154  0.00  0.00    -0.624 OA
BRANCH  23  26
HETATM   26  O   UNK N   1      27.581  16.965   9.633  0.00  0.00    -0.300 OA
HETATM   27  H   UNK N   1      27.211  16.392  10.322  0.00  0.00     0.223 HD
ENDBRANCH  23  26
ENDBRANCH  22  23
ENDBRANCH  21  22
ENDBRANCH  20  21
ENDBRANCH   4  20
TORSDOF 8
ENDMDL
