MODEL 1
REMARK VINA RESULT:      -3.7      0.000      0.000
REMARK  4 active torsions:
REMARK  status: ('A' for Active; 'I' for Inactive)
REMARK    1  A    between atoms: C_2  and  O_3 
REMARK    2  A    between atoms: C_2  and  C_4 
REMARK    3  A    between atoms: C_4  and  C_5 
REMARK    4  A    between atoms: C_5  and  O_8 
ROOT
HETATM    1  C   UNK N   1      30.421  21.790  -3.327  0.00  0.00     0.068 C 
ENDROOT
BRANCH   1   2
HETATM    2  C   UNK N   1      30.151  23.133  -2.649  0.00  0.00     0.117 C 
HETATM    3  C   UNK N   1      28.698  23.500  -2.863  0.00  0.00     0.039 C 
BRANCH   2   4
HETATM    4  O   UNK N   1      30.397  23.053  -1.278  0.00  0.00    -0.396 OA
HETATM    5  H   UNK N   1      30.775  22.278  -0.834  0.00  0.00     0.210 HD
ENDBRANCH   2   4
ENDBRANCH   1   2
BRANCH   1   6
HETATM    6  C   UNK N   1      31.900  21.437  -3.496  0.00  0.00     0.053 C 
HETATM    7  C   UNK N   1      32.649  22.530  -4.236  0.00  0.00     0.045 C 
HETATM    8  C   UNK N   1      31.994  20.157  -4.297  0.00  0.00     0.045 C 
BRANCH   6   9
HETATM    9  O   UNK N   1      32.494  21.226  -2.249  0.00  0.00    -0.391 OA
HETATM   10  H   UNK N   1      33.348  21.574  -1.951  0.00  0.00     0.210 HD
ENDBRANCH   6   9
ENDBRANCH   1   6
TORSDOF 4
ENDMDL
MODEL 2
REMARK VINA RESULT:      -3.7      1.156      3.549
REMARK  4 active torsions:
REMARK  status: ('A' for Active; 'I' for Inactive)
REMARK    1  A    between atoms: C_2  and  O_3 
REMARK    2  A    between atoms: C_2  and  C_4 
REMARK    3  A    between atoms: C_4  and  C_5 
REMARK    4  A    between atoms: C_5  and  O_8 
ROOT
HETATM    1  C   UNK N   1      32.262  22.644  -3.641  0.00  0.00     0.068 C 
ENDROOT
BRANCH   1   2
HETATM    2  C   UNK N   1      32.714  21.231  -3.274  0.00  0.00     0.117 C 
HETATM    3  C   UNK N   1      34.053  20.965  -3.929  0.00  0.00     0.039 C 
BRANCH   2   4
HETATM    4  O   UNK N   1      32.857  21.101  -1.891  0.00  0.00    -0.396 OA
HETATM    5  H   UNK N   1      33.205  20.311  -1.450  0.00  0.00     0.210 HD
ENDBRANCH   2   4
ENDBRANCH   1   2
BRANCH   1   6
HETATM    6  C   UNK N   1      30.885  23.041  -3.105  0.00  0.00     0.053 C 
HETATM    7  C   UNK N   1      29.785  22.198  -3.724  0.00  0.00     0.045 C 
HETATM    8  C   UNK N   1      30.639  24.492  -3.456  0.00  0.00     0.045 C 
BRANCH   6   9
HETATM    9  O   UNK N   1      30.849  22.908  -1.715  0.00  0.00    -0.391 OA
HETATM   10  H   UNK N   1      31.428  23.354  -1.077  0.00  0.00     0.210 HD
ENDBRANCH   6   9
ENDBRANCH   1   6
TORSDOF 4
ENDMDL
MODEL 3
REMARK VINA RESULT:      -3.7      9.464     10.920
REMARK  4 active torsions:
REMARK  status: ('A' for Active; 'I' for Inactive)
REMARK    1  A    between atoms: C_2  and  O_3 
REMARK    2  A    between atoms: C_2  and  C_4 
REMARK    3  A    between atoms: C_4  and  C_5 
REMARK    4  A    between atoms: C_5  and  O_8 
ROOT
HETATM    1  C   UNK N   1      22.740  19.691   2.993  0.00  0.00     0.068 C 
ENDROOT
BRANCH   1   2
HETATM    2  C   UNK N   1      24.057  20.432   3.216  0.00  0.00     0.117 C 
HETATM    3  C   UNK N   1      25.032  19.494   3.895  0.00  0.00     0.039 C 
BRANCH   2   4
HETATM    4  O   UNK N   1      24.604  20.846   2.001  0.00  0.00    -0.396 OA
HETATM    5  H   UNK N   1      25.554  20.964   1.841  0.00  0.00     0.210 HD
ENDBRANCH   2   4
ENDBRANCH   1   2
BRANCH   1   6
HETATM    6  C   UNK N   1      21.548  20.583   2.639  0.00  0.00     0.053 C 
HETATM    7  C   UNK N   1      20.356  20.294   3.533  0.00  0.00     0.045 C 
HETATM    8  C   UNK N   1      21.157  20.307   1.204  0.00  0.00     0.045 C 
BRANCH   6   9
HETATM    9  O   UNK N   1      21.900  21.930   2.752  0.00  0.00    -0.391 OA
HETATM   10  H   UNK N   1      21.506  22.672   2.267  0.00  0.00     0.210 HD
ENDBRANCH   6   9
ENDBRANCH   1   6
TORSDOF 4
ENDMDL
MODEL 4
REMARK VINA RESULT:      -3.6     12.871     13.391
REMARK  4 active torsions:
REMARK  status: ('A' for Active; 'I' for Inactive)
REMARK    1  A    between atoms: C_2  and  O_3 
REMARK    2  A    between atoms: C_2  and  C_4 
REMARK    3  A    between atoms: C_4  and  C_5 
REMARK    4  A    between atoms: C_5  and  O_8 
ROOT
HETATM    1  C   UNK N   1      34.632  16.495   8.343  0.00  0.00     0.068 C 
ENDROOT
BRANCH   1   2
HETATM    2  C   UNK N   1      34.763  16.557   9.864  0.00  0.00     0.117 C 
HETATM    3  C   UNK N   1      35.336  15.244  10.354  0.00  0.00     0.039 C 
BRANCH   2   4
HETATM    4  O   UNK N   1      35.621  17.590  10.244  0.00  0.00    -0.396 OA
HETATM    5  H   UNK N   1      36.202  17.561  11.020  0.00  0.00     0.210 HD
ENDBRANCH   2   4
ENDBRANCH   1   2
BRANCH   1   6
HETATM    6  C   UNK N   1      34.037  17.747   7.694  0.00  0.00     0.053 C 
HETATM    7  C   UNK N   1      32.706  18.118   8.322  0.00  0.00     0.045 C 
HETATM    8  C   UNK N   1      33.817  17.462   6.225  0.00  0.00     0.045 C 
BRANCH   6   9
HETATM    9  O   UNK N   1      34.923  18.821   7.811  0.00  0.00    -0.391 OA
HETATM   10  H   UNK N   1      35.058  19.530   7.163  0.00  0.00     0.210 HD
ENDBRANCH   6   9
ENDBRANCH   1   6
TORSDOF 4
ENDMDL
MODEL 5
REMARK VINA RESULT:      -3.6     18.184     18.723
REMARK  4 active torsions:
REMARK  status: ('A' for Active; 'I' for Inactive)
REMARK    1  A    between atoms: C_2  and  O_3 
REMARK    2  A    between atoms: C_2  and  C_4 
REMARK    3  A    between atoms: C_4  and  C_5 
REMARK    4  A    between atoms: C_5  and  O_8 
ROOT
HETATM    1  C   UNK N   1      22.513  13.272  10.213  0.00  0.00     0.068 C 
ENDROOT
BRANCH   1   2
HETATM    2  C   UNK N   1      21.097  12.986   9.715  0.00  0.00     0.117 C 
HETATM    3  C   UNK N   1      20.329  14.289   9.662  0.00  0.00     0.039 C 
BRANCH   2   4
HETATM    4  O   UNK N   1      21.126  12.429   8.436  0.00  0.00    -0.396 OA
HETATM    5  H   UNK N   1      21.898  12.447   7.849  0.00  0.00     0.210 HD
ENDBRANCH   2   4
ENDBRANCH   1   2
BRANCH   1   6
HETATM    6  C   UNK N   1      23.228  12.079  10.851  0.00  0.00     0.053 C 
HETATM    7  C   UNK N   1      22.945  11.995  12.339  0.00  0.00     0.045 C 
HETATM    8  C   UNK N   1      24.717  12.254  10.649  0.00  0.00     0.045 C 
BRANCH   6   9
HETATM    9  O   UNK N   1      22.832  10.890  10.233  0.00  0.00    -0.391 OA
HETATM   10  H   UNK N   1      23.347  10.373   9.594  0.00  0.00     0.210 HD
ENDBRANCH   6   9
ENDBRANCH   1   6
TORSDOF 4
ENDMDL
MODEL 6
REMARK VINA RESULT:      -3.5     12.287     13.238
REMARK  4 active torsions:
REMARK  status: ('A' for Active; 'I' for Inactive)
REMARK    1  A    between atoms: C_2  and  O_3 
REMARK    2  A    between atoms: C_2  and  C_4 
REMARK    3  A    between atoms: C_4  and  C_5 
REMARK    4  A    between atoms: C_5  and  O_8 
ROOT
HETATM    1  C   UNK N   1      42.492  22.149   2.835  0.00  0.00     0.068 C 
ENDROOT
BRANCH   1   2
HETATM    2  C   UNK N   1      41.757  22.842   1.689  0.00  0.00     0.117 C 
HETATM    3  C   UNK N   1      40.625  21.948   1.228  0.00  0.00     0.039 C 
BRANCH   2   4
HETATM    4  O   UNK N   1      41.224  24.062   2.109  0.00  0.00    -0.396 OA
HETATM    5  H   UNK N   1      41.739  24.769   2.526  0.00  0.00     0.210 HD
ENDBRANCH   2   4
ENDBRANCH   1   2
BRANCH   1   6
HETATM    6  C   UNK N   1      43.781  22.839   3.287  0.00  0.00     0.053 C 
HETATM    7  C   UNK N   1      44.622  23.273   2.101  0.00  0.00     0.045 C 
HETATM    8  C   UNK N   1      44.580  21.857   4.116  0.00  0.00     0.045 C 
BRANCH   6   9
HETATM    9  O   UNK N   1      43.483  23.951   4.080  0.00  0.00    -0.391 OA
HETATM   10  H   UNK N   1      44.113  24.472   4.602  0.00  0.00     0.210 HD
ENDBRANCH   6   9
ENDBRANCH   1   6
TORSDOF 4
ENDMDL
MODEL 7
REMARK VINA RESULT:      -3.5     11.127     11.748
REMARK  4 active torsions:
REMARK  status: ('A' for Active; 'I' for Inactive)
REMARK    1  A    between atoms: C_2  and  O_3 
REMARK    2  A    between atoms: C_2  and  C_4 
REMARK    3  A    between atoms: C_4  and  C_5 
REMARK    4  A    between atoms: C_5  and  O_8 
ROOT
HETATM    1  C   UNK N   1      28.409  19.164   7.646  0.00  0.00     0.068 C 
ENDROOT
BRANCH   1   2
HETATM    2  C   UNK N   1      28.579  18.124   8.753  0.00  0.00     0.117 C 
HETATM    3  C   UNK N   1      29.625  18.621   9.728  0.00  0.00     0.039 C 
BRANCH   2   4
HETATM    4  O   UNK N   1      27.380  17.933   9.441  0.00  0.00    -0.396 OA
HETATM    5  H   UNK N   1      26.574  18.451   9.288  0.00  0.00     0.210 HD
ENDBRANCH   2   4
ENDBRANCH   1   2
BRANCH   1   6
HETATM    6  C   UNK N   1      28.016  18.595   6.281  0.00  0.00     0.053 C 
HETATM    7  C   UNK N   1      29.123  17.735   5.699  0.00  0.00     0.045 C 
HETATM    8  C   UNK N   1      27.756  19.752   5.342  0.00  0.00     0.045 C 
BRANCH   6   9
HETATM    9  O   UNK N   1      26.846  17.839   6.389  0.00  0.00    -0.391 OA
HETATM   10  H   UNK N   1      26.633  17.033   5.894  0.00  0.00     0.210 HD
ENDBRANCH   6   9
ENDBRANCH   1   6
TORSDOF 4
ENDMDL
MODEL 8
REMARK VINA RESULT:      -3.5     11.139     11.382
REMARK  4 active torsions:
REMARK  status: ('A' for Active; 'I' for Inactive)
REMARK    1  A    between atoms: C_2  and  O_3 
REMARK    2  A    between atoms: C_2  and  C_4 
REMARK    3  A    between atoms: C_4  and  C_5 
REMARK    4  A    between atoms: C_5  and  O_8 
ROOT
HETATM    1  C   UNK N   1      32.278  17.021   6.953  0.00  0.00     0.068 C 
ENDROOT
BRANCH   1   2
HETATM    2  C   UNK N   1      32.347  17.863   8.226  0.00  0.00     0.117 C 
HETATM    3  C   UNK N   1      30.941  18.066   8.750  0.00  0.00     0.039 C 
BRANCH   2   4
HETATM    4  O   UNK N   1      33.102  17.218   9.206  0.00  0.00    -0.396 OA
HETATM    5  H   UNK N   1      33.552  16.368   9.079  0.00  0.00     0.210 HD
ENDBRANCH   2   4
ENDBRANCH   1   2
BRANCH   1   6
HETATM    6  C   UNK N   1      33.482  17.162   6.020  0.00  0.00     0.053 C 
HETATM    7  C   UNK N   1      33.059  17.610   4.633  0.00  0.00     0.045 C 
HETATM    8  C   UNK N   1      34.157  15.812   5.908  0.00  0.00     0.045 C 
BRANCH   6   9
HETATM    9  O   UNK N   1      34.400  18.075   6.546  0.00  0.00    -0.391 OA
HETATM   10  H   UNK N   1      34.426  19.029   6.375  0.00  0.00     0.210 HD
ENDBRANCH   6   9
ENDBRANCH   1   6
TORSDOF 4
ENDMDL
MODEL 9
REMARK VINA RESULT:      -3.4      5.345      7.352
REMARK  4 active torsions:
REMARK  status: ('A' for Active; 'I' for Inactive)
REMARK    1  A    between atoms: C_2  and  O_3 
REMARK    2  A    between atoms: C_2  and  C_4 
REMARK    3  A    between atoms: C_4  and  C_5 
REMARK    4  A    between atoms: C_5  and  O_8 
ROOT
HETATM    1  C   UNK N   1      26.941  26.314  -4.224  0.00  0.00     0.068 C 
ENDROOT
BRANCH   1   2
HETATM    2  C   UNK N   1      26.274  24.948  -4.064  0.00  0.00     0.117 C 
HETATM    3  C   UNK N   1      26.795  24.025  -5.145  0.00  0.00     0.039 C 
BRANCH   2   4
HETATM    4  O   UNK N   1      26.574  24.394  -2.819  0.00  0.00    -0.396 OA
HETATM    5  H   UNK N   1      25.918  24.220  -2.126  0.00  0.00     0.210 HD
ENDBRANCH   2   4
ENDBRANCH   1   2
BRANCH   1   6
HETATM    6  C   UNK N   1      25.975  27.490  -4.380  0.00  0.00     0.053 C 
HETATM    7  C   UNK N   1      24.881  27.178  -5.385  0.00  0.00     0.045 C 
HETATM    8  C   UNK N   1      26.759  28.687  -4.871  0.00  0.00     0.045 C 
BRANCH   6   9
HETATM    9  O   UNK N   1      25.398  27.811  -3.149  0.00  0.00    -0.391 OA
HETATM   10  H   UNK N   1      24.714  28.479  -2.989  0.00  0.00     0.210 HD
ENDBRANCH   6   9
ENDBRANCH   1   6
TORSDOF 4
ENDMDL
