MODEL 1
REMARK VINA RESULT:      -3.6      0.000      0.000
REMARK  9 active torsions:
REMARK  status: ('A' for Active; 'I' for Inactive)
REMARK    1  A    between atoms: N_1  and  C_2 
REMARK    2  A    between atoms: C_2  and  C_3 
REMARK    3  A    between atoms: C_3  and  C_4 
REMARK    4  A    between atoms: C_4  and  C_5 
REMARK    5  A    between atoms: C_5  and  N_6 
REMARK    6  A    between atoms: N_6  and  C_7 
REMARK    7  A    between atoms: C_7  and  C_8 
REMARK    8  A    between atoms: C_8  and  C_9 
REMARK    9  A    between atoms: C_9  and  N_10 
ROOT
HETATM    1  N   UNK N   1      31.347  17.292   6.904  0.00  0.00    -0.421 N 
HETATM    2  H   UNK N   1      31.543  17.207   5.907  0.00  0.00     0.153 HD
ENDROOT
BRANCH   1   3
HETATM    3  C   UNK N   1      32.309  17.529   7.958  0.00  0.00     0.113 C 
BRANCH   3   4
HETATM    4  C   UNK N   1      33.622  17.968   7.352  0.00  0.00     0.021 C 
BRANCH   4   5
HETATM    5  C   UNK N   1      34.650  18.057   8.455  0.00  0.00     0.021 C 
BRANCH   5   6
HETATM    6  C   UNK N   1      34.545  16.846   9.352  0.00  0.00     0.111 C 
BRANCH   6   7
HETATM    7  N   UNK N   1      35.087  17.175  10.657  0.00  0.00    -0.430 N 
HETATM    8  H   UNK N   1      34.470  17.510  11.396  0.00  0.00     0.149 HD
HETATM    9  H   UNK N   1      36.086  17.070  10.834  0.00  0.00     0.149 HD
ENDBRANCH   6   7
ENDBRANCH   5   6
ENDBRANCH   4   5
ENDBRANCH   3   4
ENDBRANCH   1   3
BRANCH   1  10
HETATM   10  C   UNK N   1      30.051  17.198   7.544  0.00  0.00     0.115 C 
BRANCH  10  11
HETATM   11  C   UNK N   1      30.022  18.132   8.731  0.00  0.00     0.038 C 
BRANCH  11  12
HETATM   12  C   UNK N   1      28.807  17.839   9.581  0.00  0.00     0.112 C 
BRANCH  12  13
HETATM   13  N   UNK N   1      27.661  18.531   9.023  0.00  0.00    -0.430 N 
HETATM   14  H   UNK N   1      26.721  18.164   9.174  0.00  0.00     0.149 HD
HETATM   15  H   UNK N   1      27.794  19.384   8.480  0.00  0.00     0.149 HD
ENDBRANCH  12  13
ENDBRANCH  11  12
ENDBRANCH  10  11
ENDBRANCH   1  10
TORSDOF 9
ENDMDL
MODEL 2
REMARK VINA RESULT:      -3.6      3.533      6.058
REMARK  9 active torsions:
REMARK  status: ('A' for Active; 'I' for Inactive)
REMARK    1  A    between atoms: N_1  and  C_2 
REMARK    2  A    between atoms: C_2  and  C_3 
REMARK    3  A    between atoms: C_3  and  C_4 
REMARK    4  A    between atoms: C_4  and  C_5 
REMARK    5  A    between atoms: C_5  and  N_6 
REMARK    6  A    between atoms: N_6  and  C_7 
REMARK    7  A    between atoms: C_7  and  C_8 
REMARK    8  A    between atoms: C_8  and  C_9 
REMARK    9  A    between atoms: C_9  and  N_10 
ROOT
HETATM    1  N   UNK N   1      27.468  18.138   7.046  0.00  0.00    -0.421 N 
HETATM    2  H   UNK N   1      26.475  18.244   7.253  0.00  0.00     0.153 HD
ENDROOT
BRANCH   1   3
HETATM    3  C   UNK N   1      28.173  18.657   5.895  0.00  0.00     0.113 C 
BRANCH   3   4
HETATM    4  C   UNK N   1      27.454  19.880   5.373  0.00  0.00     0.021 C 
BRANCH   4   5
HETATM    5  C   UNK N   1      27.640  21.002   6.366  0.00  0.00     0.021 C 
BRANCH   5   6
HETATM    6  C   UNK N   1      26.296  21.586   6.736  0.00  0.00     0.111 C 
BRANCH   6   7
HETATM    7  N   UNK N   1      25.938  21.140   8.069  0.00  0.00    -0.430 N 
HETATM    8  H   UNK N   1      26.618  21.198   8.826  0.00  0.00     0.149 HD
HETATM    9  H   UNK N   1      25.005  20.769   8.248  0.00  0.00     0.149 HD
ENDBRANCH   6   7
ENDBRANCH   5   6
ENDBRANCH   4   5
ENDBRANCH   3   4
ENDBRANCH   1   3
BRANCH   1  10
HETATM   10  C   UNK N   1      28.451  17.438   7.849  0.00  0.00     0.115 C 
BRANCH  10  11
HETATM   11  C   UNK N   1      28.343  17.912   9.279  0.00  0.00     0.038 C 
BRANCH  11  12
HETATM   12  C   UNK N   1      29.596  18.665   9.662  0.00  0.00     0.112 C 
BRANCH  12  13
HETATM   13  N   UNK N   1      30.756  17.880   9.283  0.00  0.00    -0.430 N 
HETATM   14  H   UNK N   1      31.437  18.263   8.627  0.00  0.00     0.149 HD
HETATM   15  H   UNK N   1      30.890  16.947   9.671  0.00  0.00     0.149 HD
ENDBRANCH  12  13
ENDBRANCH  11  12
ENDBRANCH  10  11
ENDBRANCH   1  10
TORSDOF 9
ENDMDL
MODEL 3
REMARK VINA RESULT:      -3.6     10.438     11.252
REMARK  9 active torsions:
REMARK  status: ('A' for Active; 'I' for Inactive)
REMARK    1  A    between atoms: N_1  and  C_2 
REMARK    2  A    between atoms: C_2  and  C_3 
REMARK    3  A    between atoms: C_3  and  C_4 
REMARK    4  A    between atoms: C_4  and  C_5 
REMARK    5  A    between atoms: C_5  and  N_6 
REMARK    6  A    between atoms: N_6  and  C_7 
REMARK    7  A    between atoms: C_7  and  C_8 
REMARK    8  A    between atoms: C_8  and  C_9 
REMARK    9  A    between atoms: C_9  and  N_10 
ROOT
HETATM    1  N   UNK N   1      21.239  14.937   9.416  0.00  0.00    -0.421 N 
HETATM    2  H   UNK N   1      22.067  15.532   9.451  0.00  0.00     0.153 HD
ENDROOT
BRANCH   1   3
HETATM    3  C   UNK N   1      21.158  13.542   9.789  0.00  0.00     0.113 C 
BRANCH   3   4
HETATM    4  C   UNK N   1      22.534  13.041  10.165  0.00  0.00     0.021 C 
BRANCH   4   5
HETATM    5  C   UNK N   1      22.389  12.060  11.304  0.00  0.00     0.021 C 
BRANCH   5   6
HETATM    6  C   UNK N   1      23.685  11.979  12.076  0.00  0.00     0.111 C 
BRANCH   6   7
HETATM    7  N   UNK N   1      24.782  12.350  11.201  0.00  0.00    -0.430 N 
HETATM    8  H   UNK N   1      25.689  12.595  11.597  0.00  0.00     0.149 HD
HETATM    9  H   UNK N   1      24.644  12.366  10.191  0.00  0.00     0.149 HD
ENDBRANCH   6   7
ENDBRANCH   5   6
ENDBRANCH   4   5
ENDBRANCH   3   4
ENDBRANCH   1   3
BRANCH   1  10
HETATM   10  C   UNK N   1      19.912  15.324   8.981  0.00  0.00     0.115 C 
BRANCH  10  11
HETATM   11  C   UNK N   1      19.960  16.741   8.462  0.00  0.00     0.038 C 
BRANCH  11  12
HETATM   12  C   UNK N   1      18.845  17.550   9.083  0.00  0.00     0.112 C 
BRANCH  12  13
HETATM   13  N   UNK N   1      19.387  18.798   9.585  0.00  0.00    -0.430 N 
HETATM   14  H   UNK N   1      20.340  18.830   9.947  0.00  0.00     0.149 HD
HETATM   15  H   UNK N   1      18.816  19.643   9.577  0.00  0.00     0.149 HD
ENDBRANCH  12  13
ENDBRANCH  11  12
ENDBRANCH  10  11
ENDBRANCH   1  10
TORSDOF 9
ENDMDL
MODEL 4
REMARK VINA RESULT:      -3.5      3.020      4.481
REMARK  9 active torsions:
REMARK  status: ('A' for Active; 'I' for Inactive)
REMARK    1  A    between atoms: N_1  and  C_2 
REMARK    2  A    between atoms: C_2  and  C_3 
REMARK    3  A    between atoms: C_3  and  C_4 
REMARK    4  A    between atoms: C_4  and  C_5 
REMARK    5  A    between atoms: C_5  and  N_6 
REMARK    6  A    between atoms: N_6  and  C_7 
REMARK    7  A    between atoms: C_7  and  C_8 
REMARK    8  A    between atoms: C_8  and  C_9 
REMARK    9  A    between atoms: C_9  and  N_10 
ROOT
HETATM    1  N   UNK N   1      27.354  18.300   6.726  0.00  0.00    -0.421 N 
HETATM    2  H   UNK N   1      26.502  17.816   6.443  0.00  0.00     0.153 HD
ENDROOT
BRANCH   1   3
HETATM    3  C   UNK N   1      28.392  17.789   7.594  0.00  0.00     0.113 C 
BRANCH   3   4
HETATM    4  C   UNK N   1      28.178  18.313   8.996  0.00  0.00     0.021 C 
BRANCH   4   5
HETATM    5  C   UNK N   1      29.515  18.353   9.698  0.00  0.00     0.021 C 
BRANCH   5   6
HETATM    6  C   UNK N   1      30.629  18.205   8.688  0.00  0.00     0.111 C 
BRANCH   6   7
HETATM    7  N   UNK N   1      31.571  17.210   9.165  0.00  0.00    -0.430 N 
HETATM    8  H   UNK N   1      31.650  17.021  10.164  0.00  0.00     0.149 HD
HETATM    9  H   UNK N   1      32.153  16.701   8.502  0.00  0.00     0.149 HD
ENDBRANCH   6   7
ENDBRANCH   5   6
ENDBRANCH   4   5
ENDBRANCH   3   4
ENDBRANCH   1   3
BRANCH   1  10
HETATM   10  C   UNK N   1      27.763  19.635   6.338  0.00  0.00     0.115 C 
BRANCH  10  11
HETATM   11  C   UNK N   1      26.534  20.442   5.991  0.00  0.00     0.038 C 
BRANCH  11  12
HETATM   12  C   UNK N   1      26.402  21.606   6.945  0.00  0.00     0.112 C 
BRANCH  12  13
HETATM   13  N   UNK N   1      25.794  21.142   8.177  0.00  0.00    -0.430 N 
HETATM   14  H   UNK N   1      25.020  20.479   8.145  0.00  0.00     0.149 HD
HETATM   15  H   UNK N   1      26.139  21.479   9.076  0.00  0.00     0.149 HD
ENDBRANCH  12  13
ENDBRANCH  11  12
ENDBRANCH  10  11
ENDBRANCH   1  10
TORSDOF 9
ENDMDL
MODEL 5
REMARK VINA RESULT:      -3.5      9.613     12.076
REMARK  9 active torsions:
REMARK  status: ('A' for Active; 'I' for Inactive)
REMARK    1  A    between atoms: N_1  and  C_2 
REMARK    2  A    between atoms: C_2  and  C_3 
REMARK    3  A    between atoms: C_3  and  C_4 
REMARK    4  A    between atoms: C_4  and  C_5 
REMARK    5  A    between atoms: C_5  and  N_6 
REMARK    6  A    between atoms: N_6  and  C_7 
REMARK    7  A    between atoms: C_7  and  C_8 
REMARK    8  A    between atoms: C_8  and  C_9 
REMARK    9  A    between atoms: C_9  and  N_10 
ROOT
HETATM    1  N   UNK N   1      21.749  13.456   9.709  0.00  0.00    -0.421 N 
HETATM    2  H   UNK N   1      22.562  13.615   9.115  0.00  0.00     0.153 HD
ENDROOT
BRANCH   1   3
HETATM    3  C   UNK N   1      20.497  14.181   9.676  0.00  0.00     0.113 C 
BRANCH   3   4
HETATM    4  C   UNK N   1      20.397  14.954   8.381  0.00  0.00     0.021 C 
BRANCH   4   5
HETATM    5  C   UNK N   1      20.397  16.429   8.705  0.00  0.00     0.021 C 
BRANCH   5   6
HETATM    6  C   UNK N   1      18.990  16.973   8.613  0.00  0.00     0.111 C 
BRANCH   6   7
HETATM    7  N   UNK N   1      18.918  18.223   9.347  0.00  0.00    -0.430 N 
HETATM    8  H   UNK N   1      19.139  19.101   8.880  0.00  0.00     0.149 HD
HETATM    9  H   UNK N   1      18.646  18.222  10.329  0.00  0.00     0.149 HD
ENDBRANCH   6   7
ENDBRANCH   5   6
ENDBRANCH   4   5
ENDBRANCH   3   4
ENDBRANCH   1   3
BRANCH   1  10
HETATM   10  C   UNK N   1      21.618  12.458  10.752  0.00  0.00     0.115 C 
BRANCH  10  11
HETATM   11  C   UNK N   1      22.979  11.867  11.036  0.00  0.00     0.038 C 
BRANCH  11  12
HETATM   12  C   UNK N   1      24.021  12.552  10.182  0.00  0.00     0.112 C 
BRANCH  12  13
HETATM   13  N   UNK N   1      25.220  12.760  10.973  0.00  0.00    -0.430 N 
HETATM   14  H   UNK N   1      26.041  12.176  10.815  0.00  0.00     0.149 HD
HETATM   15  H   UNK N   1      25.241  13.489  11.685  0.00  0.00     0.149 HD
ENDBRANCH  12  13
ENDBRANCH  11  12
ENDBRANCH  10  11
ENDBRANCH   1  10
TORSDOF 9
ENDMDL
MODEL 6
REMARK VINA RESULT:      -3.5     13.273     14.277
REMARK  9 active torsions:
REMARK  status: ('A' for Active; 'I' for Inactive)
REMARK    1  A    between atoms: N_1  and  C_2 
REMARK    2  A    between atoms: C_2  and  C_3 
REMARK    3  A    between atoms: C_3  and  C_4 
REMARK    4  A    between atoms: C_4  and  C_5 
REMARK    5  A    between atoms: C_5  and  N_6 
REMARK    6  A    between atoms: N_6  and  C_7 
REMARK    7  A    between atoms: C_7  and  C_8 
REMARK    8  A    between atoms: C_8  and  C_9 
REMARK    9  A    between atoms: C_9  and  N_10 
ROOT
HETATM    1  N   UNK N   1      19.701  16.415   3.004  0.00  0.00    -0.421 N 
HETATM    2  H   UNK N   1      18.952  15.758   3.223  0.00  0.00     0.153 HD
ENDROOT
BRANCH   1   3
HETATM    3  C   UNK N   1      19.921  17.710   3.610  0.00  0.00     0.113 C 
BRANCH   3   4
HETATM    4  C   UNK N   1      19.343  18.787   2.721  0.00  0.00     0.021 C 
BRANCH   4   5
HETATM    5  C   UNK N   1      20.298  19.956   2.705  0.00  0.00     0.021 C 
BRANCH   5   6
HETATM    6  C   UNK N   1      20.981  20.042   1.360  0.00  0.00     0.111 C 
BRANCH   6   7
HETATM    7  N   UNK N   1      20.323  21.058   0.560  0.00  0.00    -0.430 N 
HETATM    8  H   UNK N   1      20.276  22.020   0.896  0.00  0.00     0.149 HD
HETATM    9  H   UNK N   1      19.908  20.810  -0.338  0.00  0.00     0.149 HD
ENDBRANCH   6   7
ENDBRANCH   5   6
ENDBRANCH   4   5
ENDBRANCH   3   4
ENDBRANCH   1   3
BRANCH   1  10
HETATM   10  C   UNK N   1      20.755  16.235   2.026  0.00  0.00     0.115 C 
BRANCH  10  11
HETATM   11  C   UNK N   1      20.195  15.494   0.835  0.00  0.00     0.038 C 
BRANCH  11  12
HETATM   12  C   UNK N   1      19.371  16.437  -0.011  0.00  0.00     0.112 C 
BRANCH  12  13
HETATM   13  N   UNK N   1      18.087  15.823  -0.292  0.00  0.00    -0.430 N 
HETATM   14  H   UNK N   1      18.018  14.810  -0.388  0.00  0.00     0.149 HD
HETATM   15  H   UNK N   1      17.255  16.403  -0.393  0.00  0.00     0.149 HD
ENDBRANCH  12  13
ENDBRANCH  11  12
ENDBRANCH  10  11
ENDBRANCH   1  10
TORSDOF 9
ENDMDL
MODEL 7
REMARK VINA RESULT:      -3.5      6.105      8.633
REMARK  9 active torsions:
REMARK  status: ('A' for Active; 'I' for Inactive)
REMARK    1  A    between atoms: N_1  and  C_2 
REMARK    2  A    between atoms: C_2  and  C_3 
REMARK    3  A    between atoms: C_3  and  C_4 
REMARK    4  A    between atoms: C_4  and  C_5 
REMARK    5  A    between atoms: C_5  and  N_6 
REMARK    6  A    between atoms: N_6  and  C_7 
REMARK    7  A    between atoms: C_7  and  C_8 
REMARK    8  A    between atoms: C_8  and  C_9 
REMARK    9  A    between atoms: C_9  and  N_10 
ROOT
HETATM    1  N   UNK N   1      37.120  13.613  13.481  0.00  0.00    -0.421 N 
HETATM    2  H   UNK N   1      38.080  13.362  13.715  0.00  0.00     0.153 HD
ENDROOT
BRANCH   1   3
HETATM    3  C   UNK N   1      36.057  13.933  14.409  0.00  0.00     0.113 C 
BRANCH   3   4
HETATM    4  C   UNK N   1      36.085  12.956  15.562  0.00  0.00     0.021 C 
BRANCH   4   5
HETATM    5  C   UNK N   1      34.816  13.128  16.363  0.00  0.00     0.021 C 
BRANCH   5   6
HETATM    6  C   UNK N   1      35.135  13.098  17.840  0.00  0.00     0.111 C 
BRANCH   6   7
HETATM    7  N   UNK N   1      35.450  14.444  18.282  0.00  0.00    -0.430 N 
HETATM    8  H   UNK N   1      35.232  14.730  19.236  0.00  0.00     0.149 HD
HETATM    9  H   UNK N   1      35.888  15.102  17.639  0.00  0.00     0.149 HD
ENDBRANCH   6   7
ENDBRANCH   5   6
ENDBRANCH   4   5
ENDBRANCH   3   4
ENDBRANCH   1   3
BRANCH   1  10
HETATM   10  C   UNK N   1      36.550  13.720  12.152  0.00  0.00     0.115 C 
BRANCH  10  11
HETATM   11  C   UNK N   1      35.633  14.918  12.108  0.00  0.00     0.038 C 
BRANCH  11  12
HETATM   12  C   UNK N   1      36.073  15.857  11.007  0.00  0.00     0.112 C 
BRANCH  12  13
HETATM   13  N   UNK N   1      35.104  16.929  10.883  0.00  0.00    -0.430 N 
HETATM   14  H   UNK N   1      34.939  17.559  11.668  0.00  0.00     0.149 HD
HETATM   15  H   UNK N   1      34.587  17.052  10.013  0.00  0.00     0.149 HD
ENDBRANCH  12  13
ENDBRANCH  11  12
ENDBRANCH  10  11
ENDBRANCH   1  10
TORSDOF 9
ENDMDL
MODEL 8
REMARK VINA RESULT:      -3.4      6.647      9.229
REMARK  9 active torsions:
REMARK  status: ('A' for Active; 'I' for Inactive)
REMARK    1  A    between atoms: N_1  and  C_2 
REMARK    2  A    between atoms: C_2  and  C_3 
REMARK    3  A    between atoms: C_3  and  C_4 
REMARK    4  A    between atoms: C_4  and  C_5 
REMARK    5  A    between atoms: C_5  and  N_6 
REMARK    6  A    between atoms: N_6  and  C_7 
REMARK    7  A    between atoms: C_7  and  C_8 
REMARK    8  A    between atoms: C_8  and  C_9 
REMARK    9  A    between atoms: C_9  and  N_10 
ROOT
HETATM    1  N   UNK N   1      36.807  14.592  14.117  0.00  0.00    -0.421 N 
HETATM    2  H   UNK N   1      37.348  15.420  13.868  0.00  0.00     0.153 HD
ENDROOT
BRANCH   1   3
HETATM    3  C   UNK N   1      36.773  13.934  15.405  0.00  0.00     0.113 C 
BRANCH   3   4
HETATM    4  C   UNK N   1      35.449  13.226  15.574  0.00  0.00     0.021 C 
BRANCH   4   5
HETATM    5  C   UNK N   1      35.350  12.735  16.999  0.00  0.00     0.021 C 
BRANCH   5   6
HETATM    6  C   UNK N   1      35.224  13.912  17.938  0.00  0.00     0.111 C 
BRANCH   6   7
HETATM    7  N   UNK N   1      35.214  13.426  19.306  0.00  0.00    -0.430 N 
HETATM    8  H   UNK N   1      34.504  12.759  19.605  0.00  0.00     0.149 HD
HETATM    9  H   UNK N   1      35.918  13.754  19.967  0.00  0.00     0.149 HD
ENDBRANCH   6   7
ENDBRANCH   5   6
ENDBRANCH   4   5
ENDBRANCH   3   4
ENDBRANCH   1   3
BRANCH   1  10
HETATM   10  C   UNK N   1      35.919  13.844  13.250  0.00  0.00     0.115 C 
BRANCH  10  11
HETATM   11  C   UNK N   1      35.501  14.727  12.098  0.00  0.00     0.038 C 
BRANCH  11  12
HETATM   12  C   UNK N   1      36.144  14.237  10.820  0.00  0.00     0.112 C 
BRANCH  12  13
HETATM   13  N   UNK N   1      37.323  15.035  10.546  0.00  0.00    -0.430 N 
HETATM   14  H   UNK N   1      37.518  15.345   9.594  0.00  0.00     0.149 HD
HETATM   15  H   UNK N   1      37.958  15.286  11.304  0.00  0.00     0.149 HD
ENDBRANCH  12  13
ENDBRANCH  11  12
ENDBRANCH  10  11
ENDBRANCH   1  10
TORSDOF 9
ENDMDL
MODEL 9
REMARK VINA RESULT:      -3.4      1.423      5.481
REMARK  9 active torsions:
REMARK  status: ('A' for Active; 'I' for Inactive)
REMARK    1  A    between atoms: N_1  and  C_2 
REMARK    2  A    between atoms: C_2  and  C_3 
REMARK    3  A    between atoms: C_3  and  C_4 
REMARK    4  A    between atoms: C_4  and  C_5 
REMARK    5  A    between atoms: C_5  and  N_6 
REMARK    6  A    between atoms: N_6  and  C_7 
REMARK    7  A    between atoms: C_7  and  C_8 
REMARK    8  A    between atoms: C_8  and  C_9 
REMARK    9  A    between atoms: C_9  and  N_10 
ROOT
HETATM    1  N   UNK N   1      31.508  17.652   8.974  0.00  0.00    -0.421 N 
HETATM    2  H   UNK N   1      31.905  17.178   9.785  0.00  0.00     0.153 HD
ENDROOT
BRANCH   1   3
HETATM    3  C   UNK N   1      30.494  18.684   8.984  0.00  0.00     0.113 C 
BRANCH   3   4
HETATM    4  C   UNK N   1      29.351  18.258   9.875  0.00  0.00     0.021 C 
BRANCH   4   5
HETATM    5  C   UNK N   1      28.144  17.991   9.008  0.00  0.00     0.021 C 
BRANCH   5   6
HETATM    6  C   UNK N   1      28.284  18.726   7.695  0.00  0.00     0.111 C 
BRANCH   6   7
HETATM    7  N   UNK N   1      27.223  19.709   7.588  0.00  0.00    -0.430 N 
HETATM    8  H   UNK N   1      26.368  19.483   7.081  0.00  0.00     0.149 HD
HETATM    9  H   UNK N   1      27.333  20.626   8.020  0.00  0.00     0.149 HD
ENDBRANCH   6   7
ENDBRANCH   5   6
ENDBRANCH   4   5
ENDBRANCH   3   4
ENDBRANCH   1   3
BRANCH   1  10
HETATM   10  C   UNK N   1      31.849  17.424   7.584  0.00  0.00     0.115 C 
BRANCH  10  11
HETATM   11  C   UNK N   1      33.329  17.139   7.483  0.00  0.00     0.038 C 
BRANCH  11  12
HETATM   12  C   UNK N   1      34.110  18.268   8.118  0.00  0.00     0.112 C 
BRANCH  12  13
HETATM   13  N   UNK N   1      34.870  17.746   9.238  0.00  0.00    -0.430 N 
HETATM   14  H   UNK N   1      35.820  17.405   9.093  0.00  0.00     0.149 HD
HETATM   15  H   UNK N   1      34.455  17.721  10.169  0.00  0.00     0.149 HD
ENDBRANCH  12  13
ENDBRANCH  11  12
ENDBRANCH  10  11
ENDBRANCH   1  10
TORSDOF 9
ENDMDL
