REMARK  8 active torsions:
REMARK  status: ('A' for Active; 'I' for Inactive)
REMARK    1  A    between atoms: C_4  and  C_3 
REMARK    2  A    between atoms: C_5  and  C_3 
REMARK    3  A    between atoms: C_6  and  C_4 
REMARK    4  A    between atoms: C_7  and  C_5 
REMARK    5  A    between atoms: N_10  and  C_6 
REMARK    6  A    between atoms: C_8  and  C_7 
REMARK    7  A    between atoms: C_7  and  N_9 
REMARK    8  A    between atoms: O_12  and  C_8 
ROOT
HETATM    1  C   UNK N   1       4.260   0.791   0.329  0.00  0.00     0.173 C 
ENDROOT
BRANCH   1   2
HETATM    2  C   UNK N   1       3.108   1.197  -0.587  0.00  0.00     0.035 C 
BRANCH   2   3
HETATM    3  C   UNK N   1       1.842   0.387  -0.363  0.00  0.00     0.004 C 
BRANCH   3   4
HETATM    4  C   UNK N   1       0.751   1.342   0.093  0.00  0.00     0.030 C 
BRANCH   4   5
HETATM    5  C   UNK N   1      -0.599   0.959  -0.494  0.00  0.00     0.271 C 
BRANCH   5   6
HETATM    6  N   UNK N   1      -1.270  -0.023   0.343  0.00  0.00     0.080 N 
HETATM    7  C   UNK N   1      -2.693   0.108   0.087  0.00  0.00     0.309 C 
HETATM    8  C   UNK N   1      -0.883  -1.344  -0.121  0.00  0.00     0.309 C 
ENDBRANCH   5   6
ENDBRANCH   4   5
ENDBRANCH   3   4
ENDBRANCH   2   3
ENDBRANCH   1   2
BRANCH   1   9
HETATM    9  C   UNK N   1       4.989  -0.415  -0.209  0.00  0.00     0.163 C 
HETATM   10  O   UNK N   1       6.174  -0.343  -0.504  0.00  0.00    -0.648 OA
BRANCH   9  11
HETATM   11  O   UNK N   1       4.343  -1.587  -0.353  0.00  0.00    -0.775 OA
HETATM   12  H   UNK N   1       3.412  -1.605  -0.454  0.00  0.00     0.167 HD
ENDBRANCH   9  11
ENDBRANCH   1   9
BRANCH   1  13
HETATM   13  N   UNK N   1       5.167   1.922   0.431  0.00  0.00    -0.418 N 
HETATM   14  H   UNK N   1       6.173   1.768   0.503  0.00  0.00     0.150 HD
HETATM   15  H   UNK N   1       4.797   2.873   0.431  0.00  0.00     0.150 HD
ENDBRANCH   1  13
TORSDOF 8
