MODEL 1
REMARK VINA RESULT:      -6.0      0.000      0.000
REMARK  5 active torsions:
REMARK  status: ('A' for Active; 'I' for Inactive)
REMARK    1  A    between atoms: C_2  and  N_1 
REMARK    2  A    between atoms: C_2  and  C_3 
REMARK    3  A    between atoms: C_2  and  C_14 
REMARK    4  A    between atoms: C_3  and  C_4 
REMARK    5  A    between atoms: C_14  and  O_15 
ROOT
HETATM    1  C   UNK N   1      22.491  18.715   3.815  0.00  0.00    -0.025 A 
HETATM    2  C   UNK N   1      22.456  17.395   4.262  0.00  0.00     0.096 A 
HETATM    3  N   UNK N   1      23.723  16.949   4.466  0.00  0.00    -0.365 N 
HETATM    4  C   UNK N   1      24.534  17.973   4.148  0.00  0.00     0.045 A 
HETATM    5  C   UNK N   1      23.818  19.065   3.747  0.00  0.00     0.037 A 
HETATM    6  C   UNK N   1      24.445  20.249   3.359  0.00  0.00     0.129 A 
HETATM    7  F   UNK N   1      23.729  21.329   2.957  0.00  0.00    -0.205 F 
HETATM    8  C   UNK N   1      25.850  20.295   3.389  0.00  0.00     0.043 A 
HETATM    9  C   UNK N   1      26.589  19.164   3.806  0.00  0.00     0.005 A 
HETATM   10  C   UNK N   1      25.927  17.983   4.192  0.00  0.00     0.030 A 
HETATM   11  H   UNK N   1      23.993  16.057   4.784  0.00  0.00     0.165 HD
ENDROOT
BRANCH   1  12
HETATM   12  C   UNK N   1      21.337  19.613   3.474  0.00  0.00     0.076 C 
BRANCH  12  13
HETATM   13  C   UNK N   1      20.640  19.339   2.136  0.00  0.00     0.177 C 
BRANCH  13  14
HETATM   14  N   UNK N   1      19.229  19.050   2.336  0.00  0.00    -0.417 N 
HETATM   15  H   UNK N   1      18.365  19.506   2.046  0.00  0.00     0.150 HD
HETATM   16  H   UNK N   1      19.070  18.206   2.888  0.00  0.00     0.150 HD
ENDBRANCH  13  14
BRANCH  13  17
HETATM   17  C   UNK N   1      20.772  20.515   1.204  0.00  0.00     0.163 C 
HETATM   18  O   UNK N   1      21.024  21.632   1.632  0.00  0.00    -0.648 OA
BRANCH  17  19
HETATM   19  O   UNK N   1      20.600  20.338  -0.120  0.00  0.00    -0.775 OA
HETATM   20  H   UNK N   1      19.899  20.760  -0.576  0.00  0.00     0.167 HD
ENDBRANCH  17  19
ENDBRANCH  13  17
ENDBRANCH  12  13
ENDBRANCH   1  12
TORSDOF 5
ENDMDL
MODEL 2
REMARK VINA RESULT:      -5.8     18.077     20.127
REMARK  5 active torsions:
REMARK  status: ('A' for Active; 'I' for Inactive)
REMARK    1  A    between atoms: C_2  and  N_1 
REMARK    2  A    between atoms: C_2  and  C_3 
REMARK    3  A    between atoms: C_2  and  C_14 
REMARK    4  A    between atoms: C_3  and  C_4 
REMARK    5  A    between atoms: C_14  and  O_15 
ROOT
HETATM    1  C   UNK N   1      35.161  12.991  16.970  0.00  0.00    -0.025 A 
HETATM    2  C   UNK N   1      35.281  14.030  17.893  0.00  0.00     0.096 A 
HETATM    3  N   UNK N   1      35.361  13.516  19.148  0.00  0.00    -0.365 N 
HETATM    4  C   UNK N   1      35.287  12.182  19.011  0.00  0.00     0.045 A 
HETATM    5  C   UNK N   1      35.165  11.825  17.698  0.00  0.00     0.037 A 
HETATM    6  C   UNK N   1      35.064  10.490  17.308  0.00  0.00     0.129 A 
HETATM    7  F   UNK N   1      34.938  10.142  16.003  0.00  0.00    -0.205 F 
HETATM    8  C   UNK N   1      35.090   9.504  18.311  0.00  0.00     0.043 A 
HETATM    9  C   UNK N   1      35.218   9.875  19.668  0.00  0.00     0.005 A 
HETATM   10  C   UNK N   1      35.318  11.232  20.031  0.00  0.00     0.030 A 
HETATM   11  H   UNK N   1      35.454  14.021  19.989  0.00  0.00     0.165 HD
ENDROOT
BRANCH   1  12
HETATM   12  C   UNK N   1      35.055  13.082  15.475  0.00  0.00     0.076 C 
BRANCH  12  13
HETATM   13  C   UNK N   1      36.243  13.728  14.752  0.00  0.00     0.177 C 
BRANCH  13  14
HETATM   14  N   UNK N   1      37.449  12.934  14.927  0.00  0.00    -0.417 N 
HETATM   15  H   UNK N   1      37.691  12.132  15.508  0.00  0.00     0.150 HD
HETATM   16  H   UNK N   1      38.222  13.249  14.340  0.00  0.00     0.150 HD
ENDBRANCH  13  14
BRANCH  13  17
HETATM   17  C   UNK N   1      35.966  13.878  13.279  0.00  0.00     0.163 C 
HETATM   18  O   UNK N   1      34.823  13.846  12.847  0.00  0.00    -0.648 OA
BRANCH  17  19
HETATM   19  O   UNK N   1      36.992  14.042  12.422  0.00  0.00    -0.775 OA
HETATM   20  H   UNK N   1      36.918  14.617  11.686  0.00  0.00     0.167 HD
ENDBRANCH  17  19
ENDBRANCH  13  17
ENDBRANCH  12  13
ENDBRANCH   1  12
TORSDOF 5
ENDMDL
MODEL 3
REMARK VINA RESULT:      -5.7     15.169     16.988
REMARK  5 active torsions:
REMARK  status: ('A' for Active; 'I' for Inactive)
REMARK    1  A    between atoms: C_2  and  N_1 
REMARK    2  A    between atoms: C_2  and  C_3 
REMARK    3  A    between atoms: C_2  and  C_14 
REMARK    4  A    between atoms: C_3  and  C_4 
REMARK    5  A    between atoms: C_14  and  O_15 
ROOT
HETATM    1  C   UNK N   1      35.746  13.480  12.633  0.00  0.00    -0.025 A 
HETATM    2  C   UNK N   1      36.219  14.290  13.665  0.00  0.00     0.096 A 
HETATM    3  N   UNK N   1      35.864  13.756  14.863  0.00  0.00    -0.365 N 
HETATM    4  C   UNK N   1      35.178  12.635  14.583  0.00  0.00     0.045 A 
HETATM    5  C   UNK N   1      35.087  12.434  13.235  0.00  0.00     0.037 A 
HETATM    6  C   UNK N   1      34.413  11.335  12.702  0.00  0.00     0.129 A 
HETATM    7  F   UNK N   1      34.320  11.144  11.363  0.00  0.00    -0.205 F 
HETATM    8  C   UNK N   1      33.820  10.426  13.597  0.00  0.00     0.043 A 
HETATM    9  C   UNK N   1      33.917  10.635  14.991  0.00  0.00     0.005 A 
HETATM   10  C   UNK N   1      34.605  11.754  15.498  0.00  0.00     0.030 A 
HETATM   11  H   UNK N   1      36.069  14.118  15.756  0.00  0.00     0.165 HD
ENDROOT
BRANCH   1  12
HETATM   12  C   UNK N   1      35.909  13.667  11.152  0.00  0.00     0.076 C 
BRANCH  12  13
HETATM   13  C   UNK N   1      35.099  14.807  10.524  0.00  0.00     0.177 C 
BRANCH  13  14
HETATM   14  N   UNK N   1      33.774  14.890  11.118  0.00  0.00    -0.417 N 
HETATM   15  H   UNK N   1      33.086  14.198  11.412  0.00  0.00     0.150 HD
HETATM   16  H   UNK N   1      33.467  15.850  11.275  0.00  0.00     0.150 HD
ENDBRANCH  13  14
BRANCH  13  17
HETATM   17  C   UNK N   1      35.797  16.131  10.698  0.00  0.00     0.163 C 
HETATM   18  O   UNK N   1      35.165  17.177  10.728  0.00  0.00    -0.648 OA
BRANCH  17  19
HETATM   19  O   UNK N   1      37.138  16.165  10.814  0.00  0.00    -0.775 OA
HETATM   20  H   UNK N   1      37.636  15.375  10.891  0.00  0.00     0.167 HD
ENDBRANCH  17  19
ENDBRANCH  13  17
ENDBRANCH  12  13
ENDBRANCH   1  12
TORSDOF 5
ENDMDL
MODEL 4
REMARK VINA RESULT:      -5.6      8.332     10.705
REMARK  5 active torsions:
REMARK  status: ('A' for Active; 'I' for Inactive)
REMARK    1  A    between atoms: C_2  and  N_1 
REMARK    2  A    between atoms: C_2  and  C_3 
REMARK    3  A    between atoms: C_2  and  C_14 
REMARK    4  A    between atoms: C_3  and  C_4 
REMARK    5  A    between atoms: C_14  and  O_15 
ROOT
HETATM    1  C   UNK N   1      30.891  17.442   8.060  0.00  0.00    -0.025 A 
HETATM    2  C   UNK N   1      30.171  18.020   9.105  0.00  0.00     0.096 A 
HETATM    3  N   UNK N   1      28.984  18.486   8.637  0.00  0.00    -0.365 N 
HETATM    4  C   UNK N   1      28.966  18.208   7.323  0.00  0.00     0.045 A 
HETATM    5  C   UNK N   1      30.111  17.572   6.935  0.00  0.00     0.037 A 
HETATM    6  C   UNK N   1      30.324  17.188   5.611  0.00  0.00     0.129 A 
HETATM    7  F   UNK N   1      31.466  16.562   5.232  0.00  0.00    -0.205 F 
HETATM    8  C   UNK N   1      29.320  17.476   4.670  0.00  0.00     0.043 A 
HETATM    9  C   UNK N   1      28.135  18.132   5.073  0.00  0.00     0.005 A 
HETATM   10  C   UNK N   1      27.949  18.506   6.417  0.00  0.00     0.030 A 
HETATM   11  H   UNK N   1      28.278  18.936   9.156  0.00  0.00     0.165 HD
ENDROOT
BRANCH   1  12
HETATM   12  C   UNK N   1      32.243  16.791   8.109  0.00  0.00     0.076 C 
BRANCH  12  13
HETATM   13  C   UNK N   1      33.334  17.558   8.867  0.00  0.00     0.177 C 
BRANCH  13  14
HETATM   14  N   UNK N   1      34.090  16.663   9.729  0.00  0.00    -0.417 N 
HETATM   15  H   UNK N   1      34.607  16.788  10.599  0.00  0.00     0.150 HD
HETATM   16  H   UNK N   1      34.106  15.701   9.389  0.00  0.00     0.150 HD
ENDBRANCH  13  14
BRANCH  13  17
HETATM   17  C   UNK N   1      34.282  18.237   7.914  0.00  0.00     0.163 C 
HETATM   18  O   UNK N   1      35.089  19.065   8.313  0.00  0.00    -0.648 OA
BRANCH  17  19
HETATM   19  O   UNK N   1      34.236  17.938   6.602  0.00  0.00    -0.775 OA
HETATM   20  H   UNK N   1      35.014  17.710   6.132  0.00  0.00     0.167 HD
ENDBRANCH  17  19
ENDBRANCH  13  17
ENDBRANCH  12  13
ENDBRANCH   1  12
TORSDOF 5
ENDMDL
MODEL 5
REMARK VINA RESULT:      -5.6      7.992      9.300
REMARK  5 active torsions:
REMARK  status: ('A' for Active; 'I' for Inactive)
REMARK    1  A    between atoms: C_2  and  N_1 
REMARK    2  A    between atoms: C_2  and  C_3 
REMARK    3  A    between atoms: C_2  and  C_14 
REMARK    4  A    between atoms: C_3  and  C_4 
REMARK    5  A    between atoms: C_14  and  O_15 
ROOT
HETATM    1  C   UNK N   1      29.703  17.358   5.964  0.00  0.00    -0.025 A 
HETATM    2  C   UNK N   1      29.359  17.599   4.635  0.00  0.00     0.096 A 
HETATM    3  N   UNK N   1      30.482  17.628   3.871  0.00  0.00    -0.365 N 
HETATM    4  C   UNK N   1      31.509  17.413   4.710  0.00  0.00     0.045 A 
HETATM    5  C   UNK N   1      31.073  17.243   5.994  0.00  0.00     0.037 A 
HETATM    6  C   UNK N   1      31.960  17.011   7.045  0.00  0.00     0.129 A 
HETATM    7  F   UNK N   1      31.521  16.849   8.318  0.00  0.00    -0.205 F 
HETATM    8  C   UNK N   1      33.334  16.957   6.750  0.00  0.00     0.043 A 
HETATM    9  C   UNK N   1      33.784  17.131   5.421  0.00  0.00     0.005 A 
HETATM   10  C   UNK N   1      32.863  17.363   4.382  0.00  0.00     0.030 A 
HETATM   11  H   UNK N   1      30.533  17.777   2.899  0.00  0.00     0.165 HD
ENDROOT
BRANCH   1  12
HETATM   12  C   UNK N   1      28.795  17.231   7.153  0.00  0.00     0.076 C 
BRANCH  12  13
HETATM   13  C   UNK N   1      28.716  18.453   8.076  0.00  0.00     0.177 C 
BRANCH  13  14
HETATM   14  N   UNK N   1      27.501  19.212   7.826  0.00  0.00    -0.417 N 
HETATM   15  H   UNK N   1      27.304  20.105   7.375  0.00  0.00     0.150 HD
HETATM   16  H   UNK N   1      26.662  18.750   8.177  0.00  0.00     0.150 HD
ENDBRANCH  13  14
BRANCH  13  17
HETATM   17  C   UNK N   1      28.748  18.043   9.525  0.00  0.00     0.163 C 
HETATM   18  O   UNK N   1      27.978  17.197   9.956  0.00  0.00    -0.648 OA
BRANCH  17  19
HETATM   19  O   UNK N   1      29.630  18.622  10.361  0.00  0.00    -0.775 OA
HETATM   20  H   UNK N   1      29.784  18.273  11.217  0.00  0.00     0.167 HD
ENDBRANCH  17  19
ENDBRANCH  13  17
ENDBRANCH  12  13
ENDBRANCH   1  12
TORSDOF 5
ENDMDL
MODEL 6
REMARK VINA RESULT:      -5.6      7.113      8.472
REMARK  5 active torsions:
REMARK  status: ('A' for Active; 'I' for Inactive)
REMARK    1  A    between atoms: C_2  and  N_1 
REMARK    2  A    between atoms: C_2  and  C_3 
REMARK    3  A    between atoms: C_2  and  C_14 
REMARK    4  A    between atoms: C_3  and  C_4 
REMARK    5  A    between atoms: C_14  and  O_15 
ROOT
HETATM    1  C   UNK N   1      21.583  14.478   8.121  0.00  0.00    -0.025 A 
HETATM    2  C   UNK N   1      22.772  14.471   7.392  0.00  0.00     0.096 A 
HETATM    3  N   UNK N   1      23.656  13.619   7.972  0.00  0.00    -0.365 N 
HETATM    4  C   UNK N   1      23.032  13.107   9.046  0.00  0.00     0.045 A 
HETATM    5  C   UNK N   1      21.766  13.607   9.168  0.00  0.00     0.037 A 
HETATM    6  C   UNK N   1      20.925  13.225  10.213  0.00  0.00     0.129 A 
HETATM    7  F   UNK N   1      19.672  13.729  10.332  0.00  0.00    -0.205 F 
HETATM    8  C   UNK N   1      21.417  12.302  11.154  0.00  0.00     0.043 A 
HETATM    9  C   UNK N   1      22.725  11.785  11.025  0.00  0.00     0.005 A 
HETATM   10  C   UNK N   1      23.550  12.189   9.958  0.00  0.00     0.030 A 
HETATM   11  H   UNK N   1      24.571  13.418   7.668  0.00  0.00     0.165 HD
ENDROOT
BRANCH   1  12
HETATM   12  C   UNK N   1      20.327  15.256   7.848  0.00  0.00     0.076 C 
BRANCH  12  13
HETATM   13  C   UNK N   1      20.300  16.697   8.371  0.00  0.00     0.177 C 
BRANCH  13  14
HETATM   14  N   UNK N   1      20.598  17.640   7.304  0.00  0.00    -0.417 N 
HETATM   15  H   UNK N   1      20.213  18.543   7.030  0.00  0.00     0.150 HD
HETATM   16  H   UNK N   1      21.358  17.330   6.699  0.00  0.00     0.150 HD
ENDBRANCH  13  14
BRANCH  13  17
HETATM   17  C   UNK N   1      18.956  17.035   8.962  0.00  0.00     0.163 C 
HETATM   18  O   UNK N   1      18.079  16.188   9.054  0.00  0.00    -0.648 OA
BRANCH  17  19
HETATM   19  O   UNK N   1      18.711  18.289   9.386  0.00  0.00    -0.775 OA
HETATM   20  H   UNK N   1      18.605  18.992   8.775  0.00  0.00     0.167 HD
ENDBRANCH  17  19
ENDBRANCH  13  17
ENDBRANCH  12  13
ENDBRANCH   1  12
TORSDOF 5
ENDMDL
MODEL 7
REMARK VINA RESULT:      -5.4     18.398     19.600
REMARK  5 active torsions:
REMARK  status: ('A' for Active; 'I' for Inactive)
REMARK    1  A    between atoms: C_2  and  N_1 
REMARK    2  A    between atoms: C_2  and  C_3 
REMARK    3  A    between atoms: C_2  and  C_14 
REMARK    4  A    between atoms: C_3  and  C_4 
REMARK    5  A    between atoms: C_14  and  O_15 
ROOT
HETATM    1  C   UNK N   1      35.591  13.293  15.730  0.00  0.00    -0.025 A 
HETATM    2  C   UNK N   1      36.671  14.136  15.468  0.00  0.00     0.096 A 
HETATM    3  N   UNK N   1      37.061  13.987  14.176  0.00  0.00    -0.365 N 
HETATM    4  C   UNK N   1      36.242  13.066  13.642  0.00  0.00     0.045 A 
HETATM    5  C   UNK N   1      35.333  12.620  14.560  0.00  0.00     0.037 A 
HETATM    6  C   UNK N   1      34.381  11.654  14.238  0.00  0.00     0.129 A 
HETATM    7  F   UNK N   1      33.484  11.212  15.155  0.00  0.00    -0.205 F 
HETATM    8  C   UNK N   1      34.377  11.139  12.929  0.00  0.00     0.043 A 
HETATM    9  C   UNK N   1      35.317  11.602  11.981  0.00  0.00     0.005 A 
HETATM   10  C   UNK N   1      36.266  12.579  12.336  0.00  0.00     0.030 A 
HETATM   11  H   UNK N   1      37.796  14.460  13.721  0.00  0.00     0.165 HD
ENDROOT
BRANCH   1  12
HETATM   12  C   UNK N   1      34.828  13.129  17.013  0.00  0.00     0.076 C 
BRANCH  12  13
HETATM   13  C   UNK N   1      35.530  13.622  18.284  0.00  0.00     0.177 C 
BRANCH  13  14
HETATM   14  N   UNK N   1      35.182  15.006  18.564  0.00  0.00    -0.417 N 
HETATM   15  H   UNK N   1      35.635  15.900  18.381  0.00  0.00     0.150 HD
HETATM   16  H   UNK N   1      34.289  15.102  19.048  0.00  0.00     0.150 HD
ENDBRANCH  13  14
BRANCH  13  17
HETATM   17  C   UNK N   1      35.160  12.774  19.473  0.00  0.00     0.163 C 
HETATM   18  O   UNK N   1      35.320  11.562  19.455  0.00  0.00    -0.648 OA
BRANCH  17  19
HETATM   19  O   UNK N   1      34.636  13.355  20.568  0.00  0.00    -0.775 OA
HETATM   20  H   UNK N   1      34.356  14.249  20.552  0.00  0.00     0.167 HD
ENDBRANCH  17  19
ENDBRANCH  13  17
ENDBRANCH  12  13
ENDBRANCH   1  12
TORSDOF 5
ENDMDL
MODEL 8
REMARK VINA RESULT:      -5.4      7.110      8.865
REMARK  5 active torsions:
REMARK  status: ('A' for Active; 'I' for Inactive)
REMARK    1  A    between atoms: C_2  and  N_1 
REMARK    2  A    between atoms: C_2  and  C_3 
REMARK    3  A    between atoms: C_2  and  C_14 
REMARK    4  A    between atoms: C_3  and  C_4 
REMARK    5  A    between atoms: C_14  and  O_15 
ROOT
HETATM    1  C   UNK N   1      29.057  17.727   6.357  0.00  0.00    -0.025 A 
HETATM    2  C   UNK N   1      29.491  17.199   5.142  0.00  0.00     0.096 A 
HETATM    3  N   UNK N   1      28.967  17.921   4.118  0.00  0.00    -0.365 N 
HETATM    4  C   UNK N   1      28.215  18.880   4.684  0.00  0.00     0.045 A 
HETATM    5  C   UNK N   1      28.246  18.793   6.047  0.00  0.00     0.037 A 
HETATM    6  C   UNK N   1      27.534  19.680   6.854  0.00  0.00     0.129 A 
HETATM    7  F   UNK N   1      27.565  19.585   8.207  0.00  0.00    -0.205 F 
HETATM    8  C   UNK N   1      26.771  20.680   6.225  0.00  0.00     0.043 A 
HETATM    9  C   UNK N   1      26.742  20.770   4.815  0.00  0.00     0.005 A 
HETATM   10  C   UNK N   1      27.472  19.860   4.027  0.00  0.00     0.030 A 
HETATM   11  H   UNK N   1      29.109  17.773   3.155  0.00  0.00     0.165 HD
ENDROOT
BRANCH   1  12
HETATM   12  C   UNK N   1      29.389  17.263   7.746  0.00  0.00     0.076 C 
BRANCH  12  13
HETATM   13  C   UNK N   1      30.465  18.066   8.487  0.00  0.00     0.177 C 
BRANCH  13  14
HETATM   14  N   UNK N   1      30.098  18.258   9.881  0.00  0.00    -0.417 N 
HETATM   15  H   UNK N   1      30.428  18.877  10.621  0.00  0.00     0.150 HD
HETATM   16  H   UNK N   1      29.347  17.638  10.185  0.00  0.00     0.150 HD
ENDBRANCH  13  14
BRANCH  13  17
HETATM   17  C   UNK N   1      31.801  17.374   8.422  0.00  0.00     0.163 C 
HETATM   18  O   UNK N   1      32.841  18.016   8.388  0.00  0.00    -0.648 OA
BRANCH  17  19
HETATM   19  O   UNK N   1      31.853  16.029   8.391  0.00  0.00    -0.775 OA
HETATM   20  H   UNK N   1      31.088  15.513   8.555  0.00  0.00     0.167 HD
ENDBRANCH  17  19
ENDBRANCH  13  17
ENDBRANCH  12  13
ENDBRANCH   1  12
TORSDOF 5
ENDMDL
MODEL 9
REMARK VINA RESULT:      -5.4      6.727      8.625
REMARK  5 active torsions:
REMARK  status: ('A' for Active; 'I' for Inactive)
REMARK    1  A    between atoms: C_2  and  N_1 
REMARK    2  A    between atoms: C_2  and  C_3 
REMARK    3  A    between atoms: C_2  and  C_14 
REMARK    4  A    between atoms: C_3  and  C_4 
REMARK    5  A    between atoms: C_14  and  O_15 
ROOT
HETATM    1  C   UNK N   1      30.090  17.334   7.116  0.00  0.00    -0.025 A 
HETATM    2  C   UNK N   1      29.830  17.479   8.478  0.00  0.00     0.096 A 
HETATM    3  N   UNK N   1      31.000  17.630   9.151  0.00  0.00    -0.365 N 
HETATM    4  C   UNK N   1      31.973  17.576   8.226  0.00  0.00     0.045 A 
HETATM    5  C   UNK N   1      31.456  17.397   6.974  0.00  0.00     0.037 A 
HETATM    6  C   UNK N   1      32.275  17.303   5.849  0.00  0.00     0.129 A 
HETATM    7  F   UNK N   1      31.756  17.120   4.610  0.00  0.00    -0.205 F 
HETATM    8  C   UNK N   1      33.666  17.396   6.035  0.00  0.00     0.043 A 
HETATM    9  C   UNK N   1      34.199  17.583   7.330  0.00  0.00     0.005 A 
HETATM   10  C   UNK N   1      33.346  17.675   8.446  0.00  0.00     0.030 A 
HETATM   11  H   UNK N   1      31.114  17.754  10.122  0.00  0.00     0.165 HD
ENDROOT
BRANCH   1  12
HETATM   12  C   UNK N   1      29.107  17.154   5.995  0.00  0.00     0.076 C 
BRANCH  12  13
HETATM   13  C   UNK N   1      28.647  18.434   5.288  0.00  0.00     0.177 C 
BRANCH  13  14
HETATM   14  N   UNK N   1      28.278  18.159   3.909  0.00  0.00    -0.417 N 
HETATM   15  H   UNK N   1      27.690  18.635   3.225  0.00  0.00     0.150 HD
HETATM   16  H   UNK N   1      28.700  17.305   3.546  0.00  0.00     0.150 HD
ENDBRANCH  13  14
BRANCH  13  17
HETATM   17  C   UNK N   1      27.470  19.053   5.996  0.00  0.00     0.163 C 
HETATM   18  O   UNK N   1      27.629  19.923   6.839  0.00  0.00    -0.648 OA
BRANCH  17  19
HETATM   19  O   UNK N   1      26.223  18.635   5.705  0.00  0.00    -0.775 OA
HETATM   20  H   UNK N   1      25.510  18.804   6.288  0.00  0.00     0.167 HD
ENDBRANCH  17  19
ENDBRANCH  13  17
ENDBRANCH  12  13
ENDBRANCH   1  12
TORSDOF 5
ENDMDL
