MODEL 1
REMARK VINA RESULT:      -7.1      0.000      0.000
REMARK  14 active torsions:
REMARK  status: ('A' for Active; 'I' for Inactive)
REMARK    1  A    between atoms: C_12  and  C_7 
REMARK    2  A    between atoms: C_18  and  C_8 
REMARK    3  A    between atoms: C_10  and  O_23 
REMARK    4  A    between atoms: C_11  and  N_21 
REMARK    5  A    between atoms: C_13  and  C_12 
REMARK    6  A    between atoms: C_12  and  O_24 
REMARK    7  A    between atoms: C_14  and  C_13 
REMARK    8  A    between atoms: C_13  and  O_25 
REMARK    9  A    between atoms: C_15  and  C_14 
REMARK   10  A    between atoms: C_14  and  O_26 
REMARK   11  A    between atoms: C_17  and  C_15 
REMARK   12  A    between atoms: C_15  and  O_29 
REMARK   13  A    between atoms: O_27  and  C_16 
REMARK   14  A    between atoms: C_17  and  O_28 
ROOT
HETATM    1  C   UNK N   1      33.695  17.066   9.028  0.00  0.00     0.226 C 
ENDROOT
BRANCH   1   2
HETATM    2  C   UNK N   1      34.907  16.351   9.726  0.00  0.00     0.186 C 
BRANCH   2   3
HETATM    3  C   UNK N   1      34.566  15.134  10.624  0.00  0.00     0.182 C 
BRANCH   3   4
HETATM    4  C   UNK N   1      35.552  14.939  11.832  0.00  0.00     0.172 C 
BRANCH   4   5
HETATM    5  C   UNK N   1      35.297  13.779  12.789  0.00  0.00     0.004 C 
HETATM    6  C   UNK N   1      35.766  13.664  14.052  0.00  0.00    -0.020 C 
BRANCH   6   7
HETATM    7  C   UNK N   1      35.330  12.529  14.953  0.00  0.00    -0.034 C 
HETATM    8  C   UNK N   1      34.671  13.057  16.213  0.00  0.00     0.018 C 
HETATM    9  C   UNK N   1      36.527  11.672  15.334  0.00  0.00     0.018 C 
HETATM   10  C   UNK N   1      34.337  11.639  14.226  0.00  0.00     0.018 C 
ENDBRANCH   6   7
ENDBRANCH   4   5
BRANCH   4  11
HETATM   11  O   UNK N   1      36.861  14.759  11.375  0.00  0.00    -0.389 OA
HETATM   12  H   UNK N   1      37.223  14.632  10.484  0.00  0.00     0.210 HD
ENDBRANCH   4  11
ENDBRANCH   3   4
BRANCH   3  13
HETATM   13  O   UNK N   1      33.247  15.194  11.086  0.00  0.00    -0.390 OA
HETATM   14  H   UNK N   1      32.535  15.653  11.557  0.00  0.00     0.210 HD
ENDBRANCH   3  13
ENDBRANCH   2   3
BRANCH   2  15
HETATM   15  O   UNK N   1      35.686  17.285  10.412  0.00  0.00    -0.390 OA
HETATM   16  H   UNK N   1      35.716  18.248  10.299  0.00  0.00     0.210 HD
ENDBRANCH   2  15
ENDBRANCH   1   2
BRANCH   1  17
HETATM   17  C   UNK N   1      34.241  18.048   7.973  0.00  0.00     0.144 C 
HETATM   18  N   UNK N   1      34.114  17.930   6.691  0.00  0.00    -0.360 N 
ATOM     19  HN  UNK N   1      34.532  18.699   6.169  1.00  0.00     0.162 HD
BRANCH  18  20
HETATM   20  C   UNK N   1      33.502  16.927   5.846  0.00  0.00     0.158 C 
HETATM   21  C   UNK N   1      33.012  17.482   4.505  0.00  0.00     0.036 C 
HETATM   22  C   UNK N   1      32.370  16.416   3.598  0.00  0.00     0.036 C 
HETATM   23  C   UNK N   1      31.490  15.412   4.352  0.00  0.00     0.136 C 
HETATM   24  C   UNK N   1      32.267  14.385   5.204  0.00  0.00     0.153 C 
HETATM   25  N   UNK N   1      33.712  14.560   5.311  0.00  0.00    -0.370 N 
HETATM   26  C   UNK N   1      34.299  15.660   5.655  0.00  0.00     0.134 C 
ATOM     27  HN  UNK N   1      34.303  13.757   5.099  1.00  0.00     0.161 HD
BRANCH  23  28
HETATM   28  O   UNK N   1      30.708  14.711   3.436  0.00  0.00    -0.394 OA
HETATM   29  H   UNK N   1      30.875  13.869   2.985  0.00  0.00     0.210 HD
ENDBRANCH  23  28
BRANCH  26  30
HETATM   30  O   UNK N   1      35.632  15.662   5.832  0.00  0.00    -0.348 OA
HETATM   31  H   UNK N   1      36.236  15.463   5.144  0.00  0.00     0.219 HD
ENDBRANCH  26  30
ENDBRANCH  18  20
BRANCH  17  32
HETATM   32  O   UNK N   1      34.935  19.116   8.417  0.00  0.00    -0.348 OA
HETATM   33  H   UNK N   1      35.186  20.007   8.271  0.00  0.00     0.219 HD
ENDBRANCH  17  32
ENDBRANCH   1  17
BRANCH   1  34
HETATM   34  O   UNK N   1      32.753  16.133   8.498  0.00  0.00    -0.380 OA
HETATM   35  C   UNK N   1      31.419  16.549   8.639  0.00  0.00     0.202 C 
ENDBRANCH   1  34
TORSDOF 14
ENDMDL
MODEL 2
REMARK VINA RESULT:      -7.1      3.485      8.887
REMARK  14 active torsions:
REMARK  status: ('A' for Active; 'I' for Inactive)
REMARK    1  A    between atoms: C_12  and  C_7 
REMARK    2  A    between atoms: C_18  and  C_8 
REMARK    3  A    between atoms: C_10  and  O_23 
REMARK    4  A    between atoms: C_11  and  N_21 
REMARK    5  A    between atoms: C_13  and  C_12 
REMARK    6  A    between atoms: C_12  and  O_24 
REMARK    7  A    between atoms: C_14  and  C_13 
REMARK    8  A    between atoms: C_13  and  O_25 
REMARK    9  A    between atoms: C_15  and  C_14 
REMARK   10  A    between atoms: C_14  and  O_26 
REMARK   11  A    between atoms: C_17  and  C_15 
REMARK   12  A    between atoms: C_15  and  O_29 
REMARK   13  A    between atoms: O_27  and  C_16 
REMARK   14  A    between atoms: C_17  and  O_28 
ROOT
HETATM    1  C   UNK N   1      35.941  13.308  11.415  0.00  0.00     0.226 C 
ENDROOT
BRANCH   1   2
HETATM    2  C   UNK N   1      35.477  14.633  12.118  0.00  0.00     0.186 C 
BRANCH   2   3
HETATM    3  C   UNK N   1      34.465  15.510  11.338  0.00  0.00     0.182 C 
BRANCH   3   4
HETATM    4  C   UNK N   1      35.071  16.198  10.061  0.00  0.00     0.172 C 
BRANCH   4   5
HETATM    5  C   UNK N   1      34.112  16.650   8.964  0.00  0.00     0.004 C 
HETATM    6  C   UNK N   1      33.970  16.088   7.743  0.00  0.00    -0.020 C 
BRANCH   6   7
HETATM    7  C   UNK N   1      32.885  16.540   6.789  0.00  0.00    -0.034 C 
HETATM    8  C   UNK N   1      31.802  17.310   7.520  0.00  0.00     0.018 C 
HETATM    9  C   UNK N   1      32.265  15.338   6.093  0.00  0.00     0.018 C 
HETATM   10  C   UNK N   1      33.477  17.440   5.718  0.00  0.00     0.018 C 
ENDBRANCH   6   7
ENDBRANCH   4   5
BRANCH   4  11
HETATM   11  O   UNK N   1      35.792  17.343  10.415  0.00  0.00    -0.389 OA
HETATM   12  H   UNK N   1      36.735  17.485  10.590  0.00  0.00     0.210 HD
ENDBRANCH   4  11
ENDBRANCH   3   4
BRANCH   3  13
HETATM   13  O   UNK N   1      33.319  14.785  10.994  0.00  0.00    -0.390 OA
HETATM   14  H   UNK N   1      32.418  14.746  10.640  0.00  0.00     0.210 HD
ENDBRANCH   3  13
ENDBRANCH   2   3
BRANCH   2  15
HETATM   15  O   UNK N   1      36.588  15.378  12.521  0.00  0.00    -0.390 OA
HETATM   16  H   UNK N   1      37.524  15.229  12.312  0.00  0.00     0.210 HD
ENDBRANCH   2  15
ENDBRANCH   1   2
BRANCH   1  17
HETATM   17  C   UNK N   1      37.381  12.988  11.861  0.00  0.00     0.144 C 
HETATM   18  N   UNK N   1      37.725  12.475  12.998  0.00  0.00    -0.360 N 
ATOM     19  HN  UNK N   1      38.729  12.325  13.088  1.00  0.00     0.162 HD
BRANCH  18  20
HETATM   20  C   UNK N   1      36.975  12.074  14.170  0.00  0.00     0.158 C 
HETATM   21  C   UNK N   1      37.496  10.783  14.808  0.00  0.00     0.036 C 
HETATM   22  C   UNK N   1      36.708  10.358  16.061  0.00  0.00     0.036 C 
HETATM   23  C   UNK N   1      35.193  10.570  15.940  0.00  0.00     0.136 C 
HETATM   24  C   UNK N   1      34.739  12.043  16.014  0.00  0.00     0.153 C 
HETATM   25  N   UNK N   1      35.782  13.064  16.048  0.00  0.00    -0.370 N 
HETATM   26  C   UNK N   1      36.761  13.148  15.206  0.00  0.00     0.134 C 
ATOM     27  HN  UNK N   1      35.737  13.762  16.790  1.00  0.00     0.161 HD
BRANCH  23  28
HETATM   28  O   UNK N   1      34.551   9.868  16.959  0.00  0.00    -0.394 OA
HETATM   29  H   UNK N   1      34.791   9.759  17.892  0.00  0.00     0.210 HD
ENDBRANCH  23  28
BRANCH  26  30
HETATM   30  O   UNK N   1      37.591  14.205  15.273  0.00  0.00    -0.348 OA
HETATM   31  H   UNK N   1      38.207  14.323  15.968  0.00  0.00     0.219 HD
ENDBRANCH  26  30
ENDBRANCH  18  20
BRANCH  17  32
HETATM   32  O   UNK N   1      38.379  13.289  11.005  0.00  0.00    -0.348 OA
HETATM   33  H   UNK N   1      38.958  12.985  10.334  0.00  0.00     0.219 HD
ENDBRANCH  17  32
ENDBRANCH   1  17
BRANCH   1  34
HETATM   34  O   UNK N   1      35.028  12.233  11.636  0.00  0.00    -0.380 OA
HETATM   35  C   UNK N   1      34.940  11.344  10.552  0.00  0.00     0.202 C 
ENDBRANCH   1  34
TORSDOF 14
ENDMDL
MODEL 3
REMARK VINA RESULT:      -6.9      2.344      4.285
REMARK  14 active torsions:
REMARK  status: ('A' for Active; 'I' for Inactive)
REMARK    1  A    between atoms: C_12  and  C_7 
REMARK    2  A    between atoms: C_18  and  C_8 
REMARK    3  A    between atoms: C_10  and  O_23 
REMARK    4  A    between atoms: C_11  and  N_21 
REMARK    5  A    between atoms: C_13  and  C_12 
REMARK    6  A    between atoms: C_12  and  O_24 
REMARK    7  A    between atoms: C_14  and  C_13 
REMARK    8  A    between atoms: C_13  and  O_25 
REMARK    9  A    between atoms: C_15  and  C_14 
REMARK   10  A    between atoms: C_14  and  O_26 
REMARK   11  A    between atoms: C_17  and  C_15 
REMARK   12  A    between atoms: C_15  and  O_29 
REMARK   13  A    between atoms: O_27  and  C_16 
REMARK   14  A    between atoms: C_17  and  O_28 
ROOT
HETATM    1  C   UNK N   1      35.489  12.882  10.279  0.00  0.00     0.226 C 
ENDROOT
BRANCH   1   2
HETATM    2  C   UNK N   1      35.356  14.022  11.352  0.00  0.00     0.186 C 
BRANCH   2   3
HETATM    3  C   UNK N   1      36.559  14.209  12.312  0.00  0.00     0.182 C 
BRANCH   3   4
HETATM    4  C   UNK N   1      36.171  14.159  13.834  0.00  0.00     0.172 C 
BRANCH   4   5
HETATM    5  C   UNK N   1      36.145  12.799  14.525  0.00  0.00     0.004 C 
HETATM    6  C   UNK N   1      35.769  12.556  15.801  0.00  0.00    -0.020 C 
BRANCH   6   7
HETATM    7  C   UNK N   1      35.653  11.144  16.332  0.00  0.00    -0.034 C 
HETATM    8  C   UNK N   1      35.433  11.142  17.833  0.00  0.00     0.018 C 
HETATM    9  C   UNK N   1      36.913  10.356  16.009  0.00  0.00     0.018 C 
HETATM   10  C   UNK N   1      34.483  10.435  15.673  0.00  0.00     0.018 C 
ENDBRANCH   6   7
ENDBRANCH   4   5
BRANCH   4  11
HETATM   11  O   UNK N   1      37.049  14.941  14.592  0.00  0.00    -0.389 OA
HETATM   12  H   UNK N   1      37.724  15.588  14.336  0.00  0.00     0.210 HD
ENDBRANCH   4  11
ENDBRANCH   3   4
BRANCH   3  13
HETATM   13  O   UNK N   1      37.575  13.286  12.045  0.00  0.00    -0.390 OA
HETATM   14  H   UNK N   1      38.080  12.492  12.279  0.00  0.00     0.210 HD
ENDBRANCH   3  13
ENDBRANCH   2   3
BRANCH   2  15
HETATM   15  O   UNK N   1      34.160  13.879  12.059  0.00  0.00    -0.390 OA
HETATM   16  H   UNK N   1      33.664  14.552  12.551  0.00  0.00     0.210 HD
ENDBRANCH   2  15
ENDBRANCH   1   2
BRANCH   1  17
HETATM   17  C   UNK N   1      34.077  12.435   9.853  0.00  0.00     0.144 C 
HETATM   18  N   UNK N   1      33.244  13.129   9.147  0.00  0.00    -0.360 N 
ATOM     19  HN  UNK N   1      32.368  12.643   8.959  1.00  0.00     0.162 HD
BRANCH  18  20
HETATM   20  C   UNK N   1      33.302  14.456   8.570  0.00  0.00     0.158 C 
HETATM   21  C   UNK N   1      32.728  14.524   7.152  0.00  0.00     0.036 C 
HETATM   22  C   UNK N   1      32.777  15.936   6.539  0.00  0.00     0.036 C 
HETATM   23  C   UNK N   1      34.066  16.704   6.857  0.00  0.00     0.136 C 
HETATM   24  C   UNK N   1      34.175  17.208   8.312  0.00  0.00     0.153 C 
HETATM   25  N   UNK N   1      33.132  16.790   9.245  0.00  0.00    -0.370 N 
HETATM   26  C   UNK N   1      32.758  15.566   9.434  0.00  0.00     0.134 C 
ATOM     27  HN  UNK N   1      32.664  17.516   9.788  1.00  0.00     0.161 HD
BRANCH  23  28
HETATM   28  O   UNK N   1      34.163  17.806   6.010  0.00  0.00    -0.394 OA
HETATM   29  H   UNK N   1      34.265  18.748   6.217  0.00  0.00     0.210 HD
ENDBRANCH  23  28
BRANCH  26  30
HETATM   30  O   UNK N   1      31.869  15.298  10.408  0.00  0.00    -0.348 OA
HETATM   31  H   UNK N   1      30.984  15.049  10.232  0.00  0.00     0.219 HD
ENDBRANCH  26  30
ENDBRANCH  18  20
BRANCH  17  32
HETATM   32  O   UNK N   1      33.655  11.224  10.272  0.00  0.00    -0.348 OA
HETATM   33  H   UNK N   1      33.884  10.339  10.477  0.00  0.00     0.219 HD
ENDBRANCH  17  32
ENDBRANCH   1  17
BRANCH   1  34
HETATM   34  O   UNK N   1      36.315  13.270   9.181  0.00  0.00    -0.380 OA
HETATM   35  C   UNK N   1      36.773  12.184   8.418  0.00  0.00     0.202 C 
ENDBRANCH   1  34
TORSDOF 14
ENDMDL
MODEL 4
REMARK VINA RESULT:      -6.9      2.781      7.865
REMARK  14 active torsions:
REMARK  status: ('A' for Active; 'I' for Inactive)
REMARK    1  A    between atoms: C_12  and  C_7 
REMARK    2  A    between atoms: C_18  and  C_8 
REMARK    3  A    between atoms: C_10  and  O_23 
REMARK    4  A    between atoms: C_11  and  N_21 
REMARK    5  A    between atoms: C_13  and  C_12 
REMARK    6  A    between atoms: C_12  and  O_24 
REMARK    7  A    between atoms: C_14  and  C_13 
REMARK    8  A    between atoms: C_13  and  O_25 
REMARK    9  A    between atoms: C_15  and  C_14 
REMARK   10  A    between atoms: C_14  and  O_26 
REMARK   11  A    between atoms: C_17  and  C_15 
REMARK   12  A    between atoms: C_15  and  O_29 
REMARK   13  A    between atoms: O_27  and  C_16 
REMARK   14  A    between atoms: C_17  and  O_28 
ROOT
HETATM    1  C   UNK N   1      34.708  15.450   9.341  0.00  0.00     0.226 C 
ENDROOT
BRANCH   1   2
HETATM    2  C   UNK N   1      34.638  17.002   9.567  0.00  0.00     0.186 C 
BRANCH   2   3
HETATM    3  C   UNK N   1      34.397  17.873   8.308  0.00  0.00     0.182 C 
BRANCH   3   4
HETATM    4  C   UNK N   1      32.879  18.127   7.992  0.00  0.00     0.172 C 
BRANCH   4   5
HETATM    5  C   UNK N   1      32.285  17.479   6.745  0.00  0.00     0.004 C 
HETATM    6  C   UNK N   1      32.927  17.255   5.576  0.00  0.00    -0.020 C 
BRANCH   6   7
HETATM    7  C   UNK N   1      32.273  16.477   4.455  0.00  0.00    -0.034 C 
HETATM    8  C   UNK N   1      32.350  14.984   4.710  0.00  0.00     0.018 C 
HETATM    9  C   UNK N   1      32.949  16.796   3.131  0.00  0.00     0.018 C 
HETATM   10  C   UNK N   1      30.810  16.870   4.334  0.00  0.00     0.018 C 
ENDBRANCH   6   7
ENDBRANCH   4   5
BRANCH   4  11
HETATM   11  O   UNK N   1      32.076  17.692   9.051  0.00  0.00    -0.389 OA
HETATM   12  H   UNK N   1      31.119  17.739   9.199  0.00  0.00     0.210 HD
ENDBRANCH   4  11
ENDBRANCH   3   4
BRANCH   3  13
HETATM   13  O   UNK N   1      35.081  19.091   8.390  0.00  0.00    -0.390 OA
HETATM   14  H   UNK N   1      35.826  19.661   8.145  0.00  0.00     0.210 HD
ENDBRANCH   3  13
ENDBRANCH   2   3
BRANCH   2  15
HETATM   15  O   UNK N   1      35.760  17.435  10.277  0.00  0.00    -0.390 OA
HETATM   16  H   UNK N   1      35.858  18.225  10.831  0.00  0.00     0.210 HD
ENDBRANCH   2  15
ENDBRANCH   1   2
BRANCH   1  17
HETATM   17  C   UNK N   1      33.825  14.755  10.396  0.00  0.00     0.144 C 
HETATM   18  N   UNK N   1      34.188  13.777  11.162  0.00  0.00    -0.360 N 
ATOM     19  HN  UNK N   1      33.457  13.473  11.805  1.00  0.00     0.162 HD
BRANCH  18  20
HETATM   20  C   UNK N   1      35.418  13.026  11.291  0.00  0.00     0.158 C 
HETATM   21  C   UNK N   1      35.892  12.409   9.972  0.00  0.00     0.036 C 
HETATM   22  C   UNK N   1      37.206  11.617  10.103  0.00  0.00     0.036 C 
HETATM   23  C   UNK N   1      37.302  10.787  11.389  0.00  0.00     0.136 C 
HETATM   24  C   UNK N   1      37.536  11.610  12.673  0.00  0.00     0.153 C 
HETATM   25  N   UNK N   1      37.502  13.065  12.552  0.00  0.00    -0.370 N 
HETATM   26  C   UNK N   1      36.545  13.737  11.998  0.00  0.00     0.134 C 
ATOM     27  HN  UNK N   1      38.289  13.590  12.931  1.00  0.00     0.161 HD
BRANCH  23  28
HETATM   28  O   UNK N   1      38.347   9.872  11.265  0.00  0.00    -0.394 OA
HETATM   29  H   UNK N   1      38.830   9.379  11.945  0.00  0.00     0.210 HD
ENDBRANCH  23  28
BRANCH  26  30
HETATM   30  O   UNK N   1      36.573  15.080  12.054  0.00  0.00    -0.348 OA
HETATM   31  H   UNK N   1      36.750  15.551  12.844  0.00  0.00     0.219 HD
ENDBRANCH  26  30
ENDBRANCH  18  20
BRANCH  17  32
HETATM   32  O   UNK N   1      32.551  15.182  10.520  0.00  0.00    -0.348 OA
HETATM   33  H   UNK N   1      31.659  15.082  10.252  0.00  0.00     0.219 HD
ENDBRANCH  17  32
ENDBRANCH   1  17
BRANCH   1  34
HETATM   34  O   UNK N   1      34.379  15.086   8.000  0.00  0.00    -0.380 OA
HETATM   35  C   UNK N   1      35.500  14.751   7.223  0.00  0.00     0.202 C 
ENDBRANCH   1  34
TORSDOF 14
ENDMDL
MODEL 5
REMARK VINA RESULT:      -6.8      1.787      2.747
REMARK  14 active torsions:
REMARK  status: ('A' for Active; 'I' for Inactive)
REMARK    1  A    between atoms: C_12  and  C_7 
REMARK    2  A    between atoms: C_18  and  C_8 
REMARK    3  A    between atoms: C_10  and  O_23 
REMARK    4  A    between atoms: C_11  and  N_21 
REMARK    5  A    between atoms: C_13  and  C_12 
REMARK    6  A    between atoms: C_12  and  O_24 
REMARK    7  A    between atoms: C_14  and  C_13 
REMARK    8  A    between atoms: C_13  and  O_25 
REMARK    9  A    between atoms: C_15  and  C_14 
REMARK   10  A    between atoms: C_14  and  O_26 
REMARK   11  A    between atoms: C_17  and  C_15 
REMARK   12  A    between atoms: C_15  and  O_29 
REMARK   13  A    between atoms: O_27  and  C_16 
REMARK   14  A    between atoms: C_17  and  O_28 
ROOT
HETATM    1  C   UNK N   1      34.818  15.376   9.610  0.00  0.00     0.226 C 
ENDROOT
BRANCH   1   2
HETATM    2  C   UNK N   1      34.514  14.921  11.082  0.00  0.00     0.186 C 
BRANCH   2   3
HETATM    3  C   UNK N   1      35.201  13.615  11.557  0.00  0.00     0.182 C 
BRANCH   3   4
HETATM    4  C   UNK N   1      35.863  13.724  12.978  0.00  0.00     0.172 C 
BRANCH   4   5
HETATM    5  C   UNK N   1      35.405  12.753  14.062  0.00  0.00     0.004 C 
HETATM    6  C   UNK N   1      36.188  12.172  14.999  0.00  0.00    -0.020 C 
BRANCH   6   7
HETATM    7  C   UNK N   1      35.594  11.333  16.109  0.00  0.00    -0.034 C 
HETATM    8  C   UNK N   1      34.382  10.562  15.623  0.00  0.00     0.018 C 
HETATM    9  C   UNK N   1      35.191  12.218  17.278  0.00  0.00     0.018 C 
HETATM   10  C   UNK N   1      36.625  10.339  16.618  0.00  0.00     0.018 C 
ENDBRANCH   6   7
ENDBRANCH   4   5
BRANCH   4  11
HETATM   11  O   UNK N   1      37.248  13.552  12.890  0.00  0.00    -0.389 OA
HETATM   12  H   UNK N   1      37.989  14.120  13.152  0.00  0.00     0.210 HD
ENDBRANCH   4  11
ENDBRANCH   3   4
BRANCH   3  13
HETATM   13  O   UNK N   1      34.318  12.530  11.521  0.00  0.00    -0.390 OA
HETATM   14  H   UNK N   1      34.096  11.629  11.242  0.00  0.00     0.210 HD
ENDBRANCH   3  13
ENDBRANCH   2   3
BRANCH   2  15
HETATM   15  O   UNK N   1      33.135  14.875  11.296  0.00  0.00    -0.390 OA
HETATM   16  H   UNK N   1      32.601  15.397  11.916  0.00  0.00     0.210 HD
ENDBRANCH   2  15
ENDBRANCH   1   2
BRANCH   1  17
HETATM   17  C   UNK N   1      34.717  16.911   9.535  0.00  0.00     0.144 C 
HETATM   18  N   UNK N   1      33.875  17.580   8.815  0.00  0.00    -0.360 N 
ATOM     19  HN  UNK N   1      33.961  18.590   8.923  1.00  0.00     0.162 HD
BRANCH  18  20
HETATM   20  C   UNK N   1      32.836  17.187   7.887  0.00  0.00     0.158 C 
HETATM   21  C   UNK N   1      31.508  17.912   8.123  0.00  0.00     0.036 C 
HETATM   22  C   UNK N   1      30.403  17.505   7.130  0.00  0.00     0.036 C 
HETATM   23  C   UNK N   1      30.385  16.006   6.806  0.00  0.00     0.136 C 
HETATM   24  C   UNK N   1      31.537  15.528   5.897  0.00  0.00     0.153 C 
HETATM   25  N   UNK N   1      32.575  16.500   5.564  0.00  0.00    -0.370 N 
HETATM   26  C   UNK N   1      33.221  17.214   6.429  0.00  0.00     0.134 C 
ATOM     27  HN  UNK N   1      32.808  16.625   4.580  1.00  0.00     0.161 HD
BRANCH  23  28
HETATM   28  O   UNK N   1      29.181  15.688   6.181  0.00  0.00    -0.394 OA
HETATM   29  H   UNK N   1      28.802  14.825   5.952  0.00  0.00     0.210 HD
ENDBRANCH  23  28
BRANCH  26  30
HETATM   30  O   UNK N   1      34.238  17.987   6.007  0.00  0.00    -0.348 OA
HETATM   31  H   UNK N   1      34.573  17.952   5.133  0.00  0.00     0.219 HD
ENDBRANCH  26  30
ENDBRANCH  18  20
BRANCH  17  32
HETATM   32  O   UNK N   1      35.597  17.630  10.262  0.00  0.00    -0.348 OA
HETATM   33  H   UNK N   1      36.424  17.647  10.702  0.00  0.00     0.219 HD
ENDBRANCH  17  32
ENDBRANCH   1  17
BRANCH   1  34
HETATM   34  O   UNK N   1      36.066  14.867   9.137  0.00  0.00    -0.380 OA
HETATM   35  C   UNK N   1      35.983  14.288   7.860  0.00  0.00     0.202 C 
ENDBRANCH   1  34
TORSDOF 14
ENDMDL
MODEL 6
REMARK VINA RESULT:      -6.6      2.438      4.590
REMARK  14 active torsions:
REMARK  status: ('A' for Active; 'I' for Inactive)
REMARK    1  A    between atoms: C_12  and  C_7 
REMARK    2  A    between atoms: C_18  and  C_8 
REMARK    3  A    between atoms: C_10  and  O_23 
REMARK    4  A    between atoms: C_11  and  N_21 
REMARK    5  A    between atoms: C_13  and  C_12 
REMARK    6  A    between atoms: C_12  and  O_24 
REMARK    7  A    between atoms: C_14  and  C_13 
REMARK    8  A    between atoms: C_13  and  O_25 
REMARK    9  A    between atoms: C_15  and  C_14 
REMARK   10  A    between atoms: C_14  and  O_26 
REMARK   11  A    between atoms: C_17  and  C_15 
REMARK   12  A    between atoms: C_15  and  O_29 
REMARK   13  A    between atoms: O_27  and  C_16 
REMARK   14  A    between atoms: C_17  and  O_28 
ROOT
HETATM    1  C   UNK N   1      35.695  13.980  11.129  0.00  0.00     0.226 C 
ENDROOT
BRANCH   1   2
HETATM    2  C   UNK N   1      36.595  13.101  12.071  0.00  0.00     0.186 C 
BRANCH   2   3
HETATM    3  C   UNK N   1      36.406  13.308  13.595  0.00  0.00     0.182 C 
BRANCH   3   4
HETATM    4  C   UNK N   1      37.020  12.158  14.474  0.00  0.00     0.172 C 
BRANCH   4   5
HETATM    5  C   UNK N   1      36.377  11.865  15.826  0.00  0.00     0.004 C 
HETATM    6  C   UNK N   1      36.211  10.646  16.386  0.00  0.00    -0.020 C 
BRANCH   6   7
HETATM    7  C   UNK N   1      35.684  10.493  17.796  0.00  0.00    -0.034 C 
HETATM    8  C   UNK N   1      36.743   9.913  18.714  0.00  0.00     0.018 C 
HETATM    9  C   UNK N   1      34.462   9.587  17.805  0.00  0.00     0.018 C 
HETATM   10  C   UNK N   1      35.260  11.845  18.343  0.00  0.00     0.018 C 
ENDBRANCH   6   7
ENDBRANCH   4   5
BRANCH   4  11
HETATM   11  O   UNK N   1      36.993  10.943  13.782  0.00  0.00    -0.389 OA
HETATM   12  H   UNK N   1      37.183  10.035  14.062  0.00  0.00     0.210 HD
ENDBRANCH   4  11
ENDBRANCH   3   4
BRANCH   3  13
HETATM   13  O   UNK N   1      36.908  14.547  14.009  0.00  0.00    -0.390 OA
HETATM   14  H   UNK N   1      37.380  15.096  14.653  0.00  0.00     0.210 HD
ENDBRANCH   3  13
ENDBRANCH   2   3
BRANCH   2  15
HETATM   15  O   UNK N   1      37.937  13.223  11.704  0.00  0.00    -0.390 OA
HETATM   16  H   UNK N   1      38.695  13.468  12.257  0.00  0.00     0.210 HD
ENDBRANCH   2  15
ENDBRANCH   1   2
BRANCH   1  17
HETATM   17  C   UNK N   1      34.569  13.098  10.556  0.00  0.00     0.144 C 
HETATM   18  N   UNK N   1      33.756  13.431   9.607  0.00  0.00    -0.360 N 
ATOM     19  HN  UNK N   1      33.094  12.694   9.363  1.00  0.00     0.162 HD
BRANCH  18  20
HETATM   20  C   UNK N   1      33.592  14.635   8.821  0.00  0.00     0.158 C 
HETATM   21  C   UNK N   1      33.358  14.360   7.333  0.00  0.00     0.036 C 
HETATM   22  C   UNK N   1      33.172  15.638   6.495  0.00  0.00     0.036 C 
HETATM   23  C   UNK N   1      34.108  16.784   6.900  0.00  0.00     0.136 C 
HETATM   24  C   UNK N   1      33.748  17.470   8.236  0.00  0.00     0.153 C 
HETATM   25  N   UNK N   1      32.668  16.880   9.022  0.00  0.00    -0.370 N 
HETATM   26  C   UNK N   1      32.595  15.632   9.356  0.00  0.00     0.134 C 
ATOM     27  HN  UNK N   1      31.916  17.496   9.329  1.00  0.00     0.161 HD
BRANCH  23  28
HETATM   28  O   UNK N   1      34.101  17.755   5.901  0.00  0.00    -0.394 OA
HETATM   29  H   UNK N   1      34.813  18.332   5.584  0.00  0.00     0.210 HD
ENDBRANCH  23  28
BRANCH  26  30
HETATM   30  O   UNK N   1      31.611  15.234  10.183  0.00  0.00    -0.348 OA
HETATM   31  H   UNK N   1      31.149  15.826  10.742  0.00  0.00     0.219 HD
ENDBRANCH  26  30
ENDBRANCH  18  20
BRANCH  17  32
HETATM   32  O   UNK N   1      34.392  11.879  11.106  0.00  0.00    -0.348 OA
HETATM   33  H   UNK N   1      33.837  11.317  11.611  0.00  0.00     0.219 HD
ENDBRANCH  17  32
ENDBRANCH   1  17
BRANCH   1  34
HETATM   34  O   UNK N   1      35.217  15.154  11.785  0.00  0.00    -0.380 OA
HETATM   35  C   UNK N   1      35.691  16.345  11.211  0.00  0.00     0.202 C 
ENDBRANCH   1  34
TORSDOF 14
ENDMDL
MODEL 7
REMARK VINA RESULT:      -6.6      3.044      8.122
REMARK  14 active torsions:
REMARK  status: ('A' for Active; 'I' for Inactive)
REMARK    1  A    between atoms: C_12  and  C_7 
REMARK    2  A    between atoms: C_18  and  C_8 
REMARK    3  A    between atoms: C_10  and  O_23 
REMARK    4  A    between atoms: C_11  and  N_21 
REMARK    5  A    between atoms: C_13  and  C_12 
REMARK    6  A    between atoms: C_12  and  O_24 
REMARK    7  A    between atoms: C_14  and  C_13 
REMARK    8  A    between atoms: C_13  and  O_25 
REMARK    9  A    between atoms: C_15  and  C_14 
REMARK   10  A    between atoms: C_14  and  O_26 
REMARK   11  A    between atoms: C_17  and  C_15 
REMARK   12  A    between atoms: C_15  and  O_29 
REMARK   13  A    between atoms: O_27  and  C_16 
REMARK   14  A    between atoms: C_17  and  O_28 
ROOT
HETATM    1  C   UNK N   1      35.648  14.572   9.463  0.00  0.00     0.226 C 
ENDROOT
BRANCH   1   2
HETATM    2  C   UNK N   1      34.447  15.565   9.662  0.00  0.00     0.186 C 
BRANCH   2   3
HETATM    3  C   UNK N   1      34.548  16.926   8.927  0.00  0.00     0.182 C 
BRANCH   3   4
HETATM    4  C   UNK N   1      33.160  17.511   8.481  0.00  0.00     0.172 C 
BRANCH   4   5
HETATM    5  C   UNK N   1      32.794  17.446   7.001  0.00  0.00     0.004 C 
HETATM    6  C   UNK N   1      31.760  16.761   6.461  0.00  0.00    -0.020 C 
BRANCH   6   7
HETATM    7  C   UNK N   1      31.415  16.885   4.993  0.00  0.00    -0.034 C 
HETATM    8  C   UNK N   1      32.509  17.613   4.235  0.00  0.00     0.018 C 
HETATM    9  C   UNK N   1      30.103  17.635   4.824  0.00  0.00     0.018 C 
HETATM   10  C   UNK N   1      31.241  15.506   4.381  0.00  0.00     0.018 C 
ENDBRANCH   6   7
ENDBRANCH   4   5
BRANCH   4  11
HETATM   11  O   UNK N   1      32.115  16.863   9.147  0.00  0.00    -0.389 OA
HETATM   12  H   UNK N   1      32.110  16.144   9.798  0.00  0.00     0.210 HD
ENDBRANCH   4  11
ENDBRANCH   3   4
BRANCH   3  13
HETATM   13  O   UNK N   1      35.244  17.869   9.691  0.00  0.00    -0.390 OA
HETATM   14  H   UNK N   1      35.260  18.671  10.235  0.00  0.00     0.210 HD
ENDBRANCH   3  13
ENDBRANCH   2   3
BRANCH   2  15
HETATM   15  O   UNK N   1      34.190  15.741  11.024  0.00  0.00    -0.390 OA
HETATM   16  H   UNK N   1      33.339  15.887  11.465  0.00  0.00     0.210 HD
ENDBRANCH   2  15
ENDBRANCH   1   2
BRANCH   1  17
HETATM   17  C   UNK N   1      36.653  14.773  10.614  0.00  0.00     0.144 C 
HETATM   18  N   UNK N   1      36.915  13.918  11.549  0.00  0.00    -0.360 N 
ATOM     19  HN  UNK N   1      37.627  14.239  12.205  1.00  0.00     0.162 HD
BRANCH  18  20
HETATM   20  C   UNK N   1      36.403  12.600  11.855  0.00  0.00     0.158 C 
HETATM   21  C   UNK N   1      37.435  11.692  12.532  0.00  0.00     0.036 C 
HETATM   22  C   UNK N   1      36.891  10.291  12.869  0.00  0.00     0.036 C 
HETATM   23  C   UNK N   1      35.981   9.703  11.783  0.00  0.00     0.136 C 
HETATM   24  C   UNK N   1      34.583  10.350  11.691  0.00  0.00     0.153 C 
HETATM   25  N   UNK N   1      34.328  11.517  12.531  0.00  0.00    -0.370 N 
HETATM   26  C   UNK N   1      35.083  12.566  12.585  0.00  0.00     0.134 C 
ATOM     27  HN  UNK N   1      33.495  11.504  13.118  1.00  0.00     0.161 HD
BRANCH  23  28
HETATM   28  O   UNK N   1      35.813   8.340  12.018  0.00  0.00    -0.394 OA
HETATM   29  H   UNK N   1      35.642   7.614  11.398  0.00  0.00     0.210 HD
ENDBRANCH  23  28
BRANCH  26  30
HETATM   30  O   UNK N   1      34.678  13.625  13.308  0.00  0.00    -0.348 OA
HETATM   31  H   UNK N   1      34.912  13.745  14.208  0.00  0.00     0.219 HD
ENDBRANCH  26  30
ENDBRANCH  18  20
BRANCH  17  32
HETATM   32  O   UNK N   1      37.303  15.954  10.673  0.00  0.00    -0.348 OA
HETATM   33  H   UNK N   1      37.586  16.720  10.213  0.00  0.00     0.219 HD
ENDBRANCH  17  32
ENDBRANCH   1  17
BRANCH   1  34
HETATM   34  O   UNK N   1      35.211  13.220   9.324  0.00  0.00    -0.380 OA
HETATM   35  C   UNK N   1      33.889  13.107   8.863  0.00  0.00     0.202 C 
ENDBRANCH   1  34
TORSDOF 14
ENDMDL
MODEL 8
REMARK VINA RESULT:      -6.6      1.789      2.742
REMARK  14 active torsions:
REMARK  status: ('A' for Active; 'I' for Inactive)
REMARK    1  A    between atoms: C_12  and  C_7 
REMARK    2  A    between atoms: C_18  and  C_8 
REMARK    3  A    between atoms: C_10  and  O_23 
REMARK    4  A    between atoms: C_11  and  N_21 
REMARK    5  A    between atoms: C_13  and  C_12 
REMARK    6  A    between atoms: C_12  and  O_24 
REMARK    7  A    between atoms: C_14  and  C_13 
REMARK    8  A    between atoms: C_13  and  O_25 
REMARK    9  A    between atoms: C_15  and  C_14 
REMARK   10  A    between atoms: C_14  and  O_26 
REMARK   11  A    between atoms: C_17  and  C_15 
REMARK   12  A    between atoms: C_15  and  O_29 
REMARK   13  A    between atoms: O_27  and  C_16 
REMARK   14  A    between atoms: C_17  and  O_28 
ROOT
HETATM    1  C   UNK N   1      33.373  14.327   8.609  0.00  0.00     0.226 C 
ENDROOT
BRANCH   1   2
HETATM    2  C   UNK N   1      34.746  14.863   9.151  0.00  0.00     0.186 C 
BRANCH   2   3
HETATM    3  C   UNK N   1      35.231  14.277  10.502  0.00  0.00     0.182 C 
BRANCH   3   4
HETATM    4  C   UNK N   1      35.716  15.364  11.529  0.00  0.00     0.172 C 
BRANCH   4   5
HETATM    5  C   UNK N   1      36.135  14.902  12.921  0.00  0.00     0.004 C 
HETATM    6  C   UNK N   1      35.672  13.814  13.577  0.00  0.00    -0.020 C 
BRANCH   6   7
HETATM    7  C   UNK N   1      36.267  13.380  14.899  0.00  0.00    -0.034 C 
HETATM    8  C   UNK N   1      37.164  12.170  14.722  0.00  0.00     0.018 C 
HETATM    9  C   UNK N   1      35.160  13.044  15.887  0.00  0.00     0.018 C 
HETATM   10  C   UNK N   1      37.091  14.508  15.494  0.00  0.00     0.018 C 
ENDBRANCH   6   7
ENDBRANCH   4   5
BRANCH   4  11
HETATM   11  O   UNK N   1      36.819  16.060  11.024  0.00  0.00    -0.389 OA
HETATM   12  H   UNK N   1      36.925  16.627  10.245  0.00  0.00     0.210 HD
ENDBRANCH   4  11
ENDBRANCH   3   4
BRANCH   3  13
HETATM   13  O   UNK N   1      34.253  13.466  11.088  0.00  0.00    -0.390 OA
HETATM   14  H   UNK N   1      33.630  13.278  11.806  0.00  0.00     0.210 HD
ENDBRANCH   3  13
ENDBRANCH   2   3
BRANCH   2  15
HETATM   15  O   UNK N   1      34.740  16.259   9.177  0.00  0.00    -0.390 OA
HETATM   16  H   UNK N   1      33.980  16.862   9.163  0.00  0.00     0.210 HD
ENDBRANCH   2  15
ENDBRANCH   1   2
BRANCH   1  17
HETATM   17  C   UNK N   1      32.251  15.272   9.080  0.00  0.00     0.144 C 
HETATM   18  N   UNK N   1      31.654  16.159   8.352  0.00  0.00    -0.360 N 
ATOM     19  HN  UNK N   1      30.925  16.669   8.851  1.00  0.00     0.162 HD
BRANCH  18  20
HETATM   20  C   UNK N   1      31.809  16.578   6.976  0.00  0.00     0.158 C 
HETATM   21  C   UNK N   1      30.506  17.077   6.344  0.00  0.00     0.036 C 
HETATM   22  C   UNK N   1      30.670  17.533   4.882  0.00  0.00     0.036 C 
HETATM   23  C   UNK N   1      31.602  16.638   4.056  0.00  0.00     0.136 C 
HETATM   24  C   UNK N   1      33.102  16.785   4.389  0.00  0.00     0.153 C 
HETATM   25  N   UNK N   1      33.455  17.634   5.524  0.00  0.00    -0.370 N 
HETATM   26  C   UNK N   1      32.947  17.532   6.709  0.00  0.00     0.134 C 
ATOM     27  HN  UNK N   1      34.154  18.361   5.371  1.00  0.00     0.161 HD
BRANCH  23  28
HETATM   28  O   UNK N   1      31.430  16.926   2.703  0.00  0.00    -0.394 OA
HETATM   29  H   UNK N   1      31.080  16.376   1.985  0.00  0.00     0.210 HD
ENDBRANCH  23  28
BRANCH  26  30
HETATM   30  O   UNK N   1      33.441  18.295   7.700  0.00  0.00    -0.348 OA
HETATM   31  H   UNK N   1      34.360  18.381   7.863  0.00  0.00     0.219 HD
ENDBRANCH  26  30
ENDBRANCH  18  20
BRANCH  17  32
HETATM   32  O   UNK N   1      31.870  15.190  10.371  0.00  0.00    -0.348 OA
HETATM   33  H   UNK N   1      32.064  15.403  11.263  0.00  0.00     0.219 HD
ENDBRANCH  17  32
ENDBRANCH   1  17
BRANCH   1  34
HETATM   34  O   UNK N   1      33.393  14.132   7.194  0.00  0.00    -0.380 OA
HETATM   35  C   UNK N   1      33.513  12.784   6.819  0.00  0.00     0.202 C 
ENDBRANCH   1  34
TORSDOF 14
ENDMDL
MODEL 9
REMARK VINA RESULT:      -6.5      1.721      2.788
REMARK  14 active torsions:
REMARK  status: ('A' for Active; 'I' for Inactive)
REMARK    1  A    between atoms: C_12  and  C_7 
REMARK    2  A    between atoms: C_18  and  C_8 
REMARK    3  A    between atoms: C_10  and  O_23 
REMARK    4  A    between atoms: C_11  and  N_21 
REMARK    5  A    between atoms: C_13  and  C_12 
REMARK    6  A    between atoms: C_12  and  O_24 
REMARK    7  A    between atoms: C_14  and  C_13 
REMARK    8  A    between atoms: C_13  and  O_25 
REMARK    9  A    between atoms: C_15  and  C_14 
REMARK   10  A    between atoms: C_14  and  O_26 
REMARK   11  A    between atoms: C_17  and  C_15 
REMARK   12  A    between atoms: C_15  and  O_29 
REMARK   13  A    between atoms: O_27  and  C_16 
REMARK   14  A    between atoms: C_17  and  O_28 
ROOT
HETATM    1  C   UNK N   1      34.910  15.389   9.640  0.00  0.00     0.226 C 
ENDROOT
BRANCH   1   2
HETATM    2  C   UNK N   1      34.484  14.984  11.097  0.00  0.00     0.186 C 
BRANCH   2   3
HETATM    3  C   UNK N   1      35.168  13.727  11.692  0.00  0.00     0.182 C 
BRANCH   3   4
HETATM    4  C   UNK N   1      35.565  13.876  13.205  0.00  0.00     0.172 C 
BRANCH   4   5
HETATM    5  C   UNK N   1      35.358  12.677  14.124  0.00  0.00     0.004 C 
HETATM    6  C   UNK N   1      36.020  12.426  15.276  0.00  0.00    -0.020 C 
BRANCH   6   7
HETATM    7  C   UNK N   1      35.630  11.273  16.175  0.00  0.00    -0.034 C 
HETATM    8  C   UNK N   1      35.272  11.763  17.565  0.00  0.00     0.018 C 
HETATM    9  C   UNK N   1      36.772  10.274  16.273  0.00  0.00     0.018 C 
HETATM   10  C   UNK N   1      34.428  10.547  15.596  0.00  0.00     0.018 C 
ENDBRANCH   6   7
ENDBRANCH   4   5
BRANCH   4  11
HETATM   11  O   UNK N   1      36.919  14.205  13.329  0.00  0.00    -0.389 OA
HETATM   12  H   UNK N   1      37.683  13.696  13.639  0.00  0.00     0.210 HD
ENDBRANCH   4  11
ENDBRANCH   3   4
BRANCH   3  13
HETATM   13  O   UNK N   1      34.382  12.584  11.512  0.00  0.00    -0.390 OA
HETATM   14  H   UNK N   1      33.625  12.132  11.109  0.00  0.00     0.210 HD
ENDBRANCH   3  13
ENDBRANCH   2   3
BRANCH   2  15
HETATM   15  O   UNK N   1      33.093  14.893  11.182  0.00  0.00    -0.390 OA
HETATM   16  H   UNK N   1      32.495  14.296  10.704  0.00  0.00     0.210 HD
ENDBRANCH   2  15
ENDBRANCH   1   2
BRANCH   1  17
HETATM   17  C   UNK N   1      34.794  16.919   9.497  0.00  0.00     0.144 C 
HETATM   18  N   UNK N   1      34.026  17.546   8.665  0.00  0.00    -0.360 N 
ATOM     19  HN  UNK N   1      34.085  18.561   8.744  1.00  0.00     0.162 HD
BRANCH  18  20
HETATM   20  C   UNK N   1      33.102  17.101   7.644  0.00  0.00     0.158 C 
HETATM   21  C   UNK N   1      33.699  16.050   6.704  0.00  0.00     0.036 C 
HETATM   22  C   UNK N   1      32.715  15.566   5.622  0.00  0.00     0.036 C 
HETATM   23  C   UNK N   1      31.846  16.683   5.033  0.00  0.00     0.136 C 
HETATM   24  C   UNK N   1      30.737  17.203   5.972  0.00  0.00     0.153 C 
HETATM   25  N   UNK N   1      30.721  16.688   7.338  0.00  0.00    -0.370 N 
HETATM   26  C   UNK N   1      31.739  16.682   8.136  0.00  0.00     0.134 C 
ATOM     27  HN  UNK N   1      29.844  16.305   7.689  1.00  0.00     0.161 HD
BRANCH  23  28
HETATM   28  O   UNK N   1      31.242  16.224   3.864  0.00  0.00    -0.394 OA
HETATM   29  H   UNK N   1      31.630  15.792   3.087  0.00  0.00     0.210 HD
ENDBRANCH  23  28
BRANCH  26  30
HETATM   30  O   UNK N   1      31.567  16.290   9.412  0.00  0.00    -0.348 OA
HETATM   31  H   UNK N   1      31.705  15.407   9.694  0.00  0.00     0.219 HD
ENDBRANCH  26  30
ENDBRANCH  18  20
BRANCH  17  32
HETATM   32  O   UNK N   1      35.579  17.679  10.289  0.00  0.00    -0.348 OA
HETATM   33  H   UNK N   1      36.394  17.760  10.742  0.00  0.00     0.219 HD
ENDBRANCH  17  32
ENDBRANCH   1  17
BRANCH   1  34
HETATM   34  O   UNK N   1      36.202  14.885   9.298  0.00  0.00    -0.380 OA
HETATM   35  C   UNK N   1      36.171  13.923   8.275  0.00  0.00     0.202 C 
ENDBRANCH   1  34
TORSDOF 14
ENDMDL
