REMARK  10 active torsions:
REMARK  status: ('A' for Active; 'I' for Inactive)
REMARK    1  A    between atoms: C_4  and  S_33 
REMARK    2  A    between atoms: C_7  and  N_8 
REMARK    3  A    between atoms: C_13  and  N_14 
REMARK    4  A    between atoms: N_16  and  C_18 
REMARK    5  A    between atoms: C_20  and  S_27 
REMARK    6  A    between atoms: C_23  and  C_24 
REMARK    7  A    between atoms: C_24  and  O_25 
REMARK    8  A    between atoms: S_27  and  O_28 
REMARK    9  A    between atoms: C_31  and  O_32 
REMARK   10  A    between atoms: S_33  and  O_34 
ROOT
HETATM    1  N   UNK N   1       2.280  -2.174  -0.552  0.00  0.00    -0.232 N 
HETATM    2  N   UNK N   1       3.402  -2.739  -0.986  0.00  0.00    -0.294 N 
ATOM      3  HN  UNK N   1       4.218  -2.251  -1.355  1.00  0.00     0.187 HD
HETATM    4  C   UNK N   1       3.268  -4.079  -0.850  0.00  0.00     0.055 A 
HETATM    5  C   UNK N   1       4.297  -5.078  -1.247  0.00  0.00     0.072 C 
HETATM    6  C   UNK N   1       2.044  -4.343  -0.284  0.00  0.00     0.124 A 
HETATM    7  C   UNK N   1       1.454  -3.134  -0.098  0.00  0.00     0.193 A 
ENDROOT
BRANCH   6   8
HETATM    8  N   UNK N   1       1.485  -5.593   0.023  0.00  0.00    -0.294 N 
HETATM    9  N   UNK N   1       0.303  -5.664   0.415  0.00  0.00    -0.299 N 
ATOM     10  HN  UNK N   1      -0.194  -4.816   0.685  1.00  0.00     0.187 HD
ATOM     11  HN  UNK N   1       2.043  -6.441  -0.074  1.00  0.00     0.187 HD
BRANCH   9  12
HETATM   12  C   UNK N   1      -0.347  -6.908   0.485  0.00  0.00     0.066 A 
HETATM   13  C   UNK N   1       0.403  -8.057   0.257  0.00  0.00     0.057 A 
HETATM   14  C   UNK N   1      -0.193  -9.295   0.169  0.00  0.00     0.074 A 
HETATM   15  C   UNK N   1      -1.578  -9.414   0.309  0.00  0.00     0.026 A 
HETATM   16  C   UNK N   1      -2.353  -8.269   0.547  0.00  0.00     0.022 A 
HETATM   17  C   UNK N   1      -1.752  -6.998   0.623  0.00  0.00     0.065 A 
BRANCH  14  18
HETATM   18  S   UNK N   1       0.838 -10.659  -0.324  0.00  0.00     0.129 S 
HETATM   19  O   UNK N   1       2.290 -10.439   0.128  0.00  0.00    -0.598 OA
HETATM   20  O   UNK N   1       1.011 -10.655  -1.850  0.00  0.00    -0.598 OA
BRANCH  18  21
HETATM   21  O   UNK N   1       0.464 -12.278   0.096  0.00  0.00    -0.292 OA
HETATM   22  H   UNK N   1      -0.436 -12.552   0.334  0.00  0.00     0.232 HD
ENDBRANCH  18  21
ENDBRANCH  14  18
BRANCH  17  23
HETATM   23  C   UNK N   1      -2.617  -5.792   0.773  0.00  0.00     0.178 C 
HETATM   24  O   UNK N   1      -3.832  -5.909   0.778  0.00  0.00    -0.646 OA
BRANCH  23  25
HETATM   25  O   UNK N   1      -2.081  -4.560   0.876  0.00  0.00    -0.773 OA
HETATM   26  H   UNK N   1      -1.153  -4.454   0.947  0.00  0.00     0.167 HD
ENDBRANCH  23  25
ENDBRANCH  17  23
ENDBRANCH   9  12
ENDBRANCH   6   8
BRANCH   7  27
HETATM   27  O   UNK N   1       0.280  -2.931   0.521  0.00  0.00    -0.343 OA
HETATM   28  H   UNK N   1      -0.008  -2.151   0.953  0.00  0.00     0.219 HD
ENDBRANCH   7  27
BRANCH   1  29
HETATM   29  C   UNK N   1       2.072  -0.759  -0.427  0.00  0.00     0.065 A 
HETATM   30  C   UNK N   1       3.177   0.037  -0.108  0.00  0.00     0.034 A 
HETATM   31  C   UNK N   1       3.003   1.371   0.246  0.00  0.00     0.027 A 
HETATM   32  C   UNK N   1       1.724   1.928   0.262  0.00  0.00     0.073 A 
HETATM   33  C   UNK N   1       0.625   1.173  -0.141  0.00  0.00     0.034 A 
HETATM   34  C   UNK N   1       0.783  -0.162  -0.499  0.00  0.00    -0.032 A 
HETATM   35  C   UNK N   1      -0.434  -0.891  -0.961  0.00  0.00     0.050 C 
BRANCH  32  36
HETATM   36  S   UNK N   1       1.469   3.551   0.948  0.00  0.00     0.129 S 
HETATM   37  O   UNK N   1       2.626   4.506   1.270  0.00  0.00    -0.598 OA
HETATM   38  O   UNK N   1       0.192   4.375   0.732  0.00  0.00    -0.598 OA
BRANCH  36  39
HETATM   39  O   UNK N   1       1.802   3.955  -0.686  0.00  0.00    -0.292 OA
HETATM   40  H   UNK N   1       2.094   3.906  -1.610  0.00  0.00     0.232 HD
ENDBRANCH  36  39
ENDBRANCH  32  36
ENDBRANCH   1  29
TORSDOF 10
