MODEL 1
REMARK VINA RESULT:      -5.0      0.000      0.000
REMARK  6 active torsions:
REMARK  status: ('A' for Active; 'I' for Inactive)
REMARK    1  A    between atoms: S_2  and  C_3 
REMARK    2  A    between atoms: C_3  and  C_4 
REMARK    3  A    between atoms: C_4  and  C_5 
REMARK    4  A    between atoms: C_5  and  N_6 
REMARK    5  A    between atoms: C_5  and  C_10 
REMARK       I    between atoms: N_6  and  C_7 
REMARK       I    between atoms: C_7  and  N_8 
REMARK    6  A    between atoms: C_10  and  O_11 
ROOT
HETATM    1  C   UNK N   1      33.402  17.224   8.664  0.00  0.00     0.184 C 
ENDROOT
BRANCH   1   2
HETATM    2  C   UNK N   1      31.878  17.097   8.473  0.00  0.00     0.046 C 
BRANCH   2   3
HETATM    3  C   UNK N   1      31.094  18.374   8.714  0.00  0.00     0.076 C 
BRANCH   3   4
HETATM    4  S   UNK N   1      29.529  18.043   9.558  0.00  0.00    -0.173 SA
HETATM    5  C   UNK N   1      28.600  18.713   8.150  0.00  0.00     0.089 C 
ENDBRANCH   3   4
ENDBRANCH   2   3
ENDBRANCH   1   2
BRANCH   1   6
HETATM    6  N   UNK N   1      33.892  16.353   9.732  0.00  0.00    -0.329 N 
HETATM    7  C   UNK N   1      34.977  16.443  10.548  0.00  0.00     0.314 C 
HETATM    8  N   UNK N   1      35.190  15.478  11.462  0.00  0.00    -0.352 N 
HETATM    9  O   UNK N   1      35.760  17.370  10.478  0.00  0.00    -0.248 OA
HETATM   10  H   UNK N   1      35.971  15.529  12.059  0.00  0.00     0.160 HD
HETATM   11  H   UNK N   1      34.565  14.720  11.532  0.00  0.00     0.160 HD
HETATM   12  H   UNK N   1      33.336  15.556   9.887  0.00  0.00     0.165 HD
ENDBRANCH   1   6
BRANCH   1  13
HETATM   13  C   UNK N   1      34.275  18.164   7.818  0.00  0.00     0.163 C 
HETATM   14  O   UNK N   1      34.348  18.005   6.612  0.00  0.00    -0.648 OA
BRANCH  13  15
HETATM   15  O   UNK N   1      34.975  19.171   8.359  0.00  0.00    -0.775 OA
HETATM   16  H   UNK N   1      35.220  19.907   7.833  0.00  0.00     0.167 HD
ENDBRANCH  13  15
ENDBRANCH   1  13
TORSDOF 6
ENDMDL
MODEL 2
REMARK VINA RESULT:      -5.0      1.425      1.641
REMARK  6 active torsions:
REMARK  status: ('A' for Active; 'I' for Inactive)
REMARK    1  A    between atoms: S_2  and  C_3 
REMARK    2  A    between atoms: C_3  and  C_4 
REMARK    3  A    between atoms: C_4  and  C_5 
REMARK    4  A    between atoms: C_5  and  N_6 
REMARK    5  A    between atoms: C_5  and  C_10 
REMARK       I    between atoms: N_6  and  C_7 
REMARK       I    between atoms: C_7  and  N_8 
REMARK    6  A    between atoms: C_10  and  O_11 
ROOT
HETATM    1  C   UNK N   1      33.437  17.420   8.693  0.00  0.00     0.184 C 
ENDROOT
BRANCH   1   2
HETATM    2  C   UNK N   1      31.909  17.549   8.536  0.00  0.00     0.046 C 
BRANCH   2   3
HETATM    3  C   UNK N   1      31.225  16.343   7.918  0.00  0.00     0.076 C 
BRANCH   3   4
HETATM    4  S   UNK N   1      30.000  16.835   6.682  0.00  0.00    -0.173 SA
HETATM    5  C   UNK N   1      31.315  17.150   5.471  0.00  0.00     0.089 C 
ENDBRANCH   3   4
ENDBRANCH   2   3
ENDBRANCH   1   2
BRANCH   1   6
HETATM    6  N   UNK N   1      33.799  16.428   9.704  0.00  0.00    -0.329 N 
HETATM    7  C   UNK N   1      34.860  16.345  10.552  0.00  0.00     0.314 C 
HETATM    8  N   UNK N   1      34.943  15.300  11.397  0.00  0.00    -0.352 N 
HETATM    9  O   UNK N   1      35.737  17.187  10.570  0.00  0.00    -0.248 OA
HETATM   10  H   UNK N   1      35.705  15.226  12.016  0.00  0.00     0.160 HD
HETATM   11  H   UNK N   1      34.241  14.609  11.396  0.00  0.00     0.160 HD
HETATM   12  H   UNK N   1      33.159  15.686   9.787  0.00  0.00     0.165 HD
ENDBRANCH   1   6
BRANCH   1  13
HETATM   13  C   UNK N   1      34.435  18.249   7.870  0.00  0.00     0.163 C 
HETATM   14  O   UNK N   1      34.520  18.079   6.665  0.00  0.00    -0.648 OA
BRANCH  13  15
HETATM   15  O   UNK N   1      35.232  19.171   8.429  0.00  0.00    -0.775 OA
HETATM   16  H   UNK N   1      35.794  19.692   7.890  0.00  0.00     0.167 HD
ENDBRANCH  13  15
ENDBRANCH   1  13
TORSDOF 6
ENDMDL
MODEL 3
REMARK VINA RESULT:      -4.8     13.847     14.932
REMARK  6 active torsions:
REMARK  status: ('A' for Active; 'I' for Inactive)
REMARK    1  A    between atoms: S_2  and  C_3 
REMARK    2  A    between atoms: C_3  and  C_4 
REMARK    3  A    between atoms: C_4  and  C_5 
REMARK    4  A    between atoms: C_5  and  N_6 
REMARK    5  A    between atoms: C_5  and  C_10 
REMARK       I    between atoms: N_6  and  C_7 
REMARK       I    between atoms: C_7  and  N_8 
REMARK    6  A    between atoms: C_10  and  O_11 
ROOT
HETATM    1  C   UNK N   1      20.603  19.184   2.044  0.00  0.00     0.184 C 
ENDROOT
BRANCH   1   2
HETATM    2  C   UNK N   1      21.307  19.048   3.408  0.00  0.00     0.046 C 
BRANCH   2   3
HETATM    3  C   UNK N   1      21.095  17.717   4.108  0.00  0.00     0.076 C 
BRANCH   3   4
HETATM    4  S   UNK N   1      21.434  17.838   5.880  0.00  0.00    -0.173 SA
HETATM    5  C   UNK N   1      21.172  16.052   6.076  0.00  0.00     0.089 C 
ENDBRANCH   3   4
ENDBRANCH   2   3
ENDBRANCH   1   2
BRANCH   1   6
HETATM    6  N   UNK N   1      19.793  18.009   1.729  0.00  0.00    -0.329 N 
HETATM    7  C   UNK N   1      19.769  17.190   0.642  0.00  0.00     0.314 C 
HETATM    8  N   UNK N   1      18.903  16.160   0.618  0.00  0.00    -0.352 N 
HETATM    9  O   UNK N   1      20.508  17.360  -0.308  0.00  0.00    -0.248 OA
HETATM   10  H   UNK N   1      18.875  15.559  -0.162  0.00  0.00     0.160 HD
HETATM   11  H   UNK N   1      18.298  16.007   1.379  0.00  0.00     0.160 HD
HETATM   12  H   UNK N   1      19.147  17.766   2.430  0.00  0.00     0.165 HD
ENDBRANCH   1   6
BRANCH   1  13
HETATM   13  C   UNK N   1      20.755  20.422   1.145  0.00  0.00     0.163 C 
HETATM   14  O   UNK N   1      21.028  21.502   1.639  0.00  0.00    -0.648 OA
BRANCH  13  15
HETATM   15  O   UNK N   1      20.597  20.364  -0.185  0.00  0.00    -0.775 OA
HETATM   16  H   UNK N   1      21.086  19.743  -0.688  0.00  0.00     0.167 HD
ENDBRANCH  13  15
ENDBRANCH   1  13
TORSDOF 6
ENDMDL
MODEL 4
REMARK VINA RESULT:      -4.6      2.840      4.445
REMARK  6 active torsions:
REMARK  status: ('A' for Active; 'I' for Inactive)
REMARK    1  A    between atoms: S_2  and  C_3 
REMARK    2  A    between atoms: C_3  and  C_4 
REMARK    3  A    between atoms: C_4  and  C_5 
REMARK    4  A    between atoms: C_5  and  N_6 
REMARK    5  A    between atoms: C_5  and  C_10 
REMARK       I    between atoms: N_6  and  C_7 
REMARK       I    between atoms: C_7  and  N_8 
REMARK    6  A    between atoms: C_10  and  O_11 
ROOT
HETATM    1  C   UNK N   1      33.162  17.292   8.408  0.00  0.00     0.184 C 
ENDROOT
BRANCH   1   2
HETATM    2  C   UNK N   1      33.175  15.750   8.404  0.00  0.00     0.046 C 
BRANCH   2   3
HETATM    3  C   UNK N   1      33.739  15.111   9.660  0.00  0.00     0.076 C 
BRANCH   3   4
HETATM    4  S   UNK N   1      35.548  15.106   9.647  0.00  0.00    -0.173 SA
HETATM    5  C   UNK N   1      35.585  16.336  10.981  0.00  0.00     0.089 C 
ENDBRANCH   3   4
ENDBRANCH   2   3
ENDBRANCH   1   2
BRANCH   1   6
HETATM    6  N   UNK N   1      32.029  17.825   9.163  0.00  0.00    -0.329 N 
HETATM    7  C   UNK N   1      30.725  18.014   8.826  0.00  0.00     0.314 C 
HETATM    8  N   UNK N   1      29.882  18.534   9.737  0.00  0.00    -0.352 N 
HETATM    9  O   UNK N   1      30.297  17.728   7.724  0.00  0.00    -0.248 OA
HETATM   10  H   UNK N   1      28.935  18.677   9.507  0.00  0.00     0.160 HD
HETATM   11  H   UNK N   1      30.212  18.772  10.634  0.00  0.00     0.160 HD
HETATM   12  H   UNK N   1      32.251  18.097  10.083  0.00  0.00     0.165 HD
ENDBRANCH   1   6
BRANCH   1  13
HETATM   13  C   UNK N   1      34.228  18.138   7.695  0.00  0.00     0.163 C 
HETATM   14  O   UNK N   1      34.416  17.996   6.498  0.00  0.00    -0.648 OA
BRANCH  13  15
HETATM   15  O   UNK N   1      34.974  19.044   8.343  0.00  0.00    -0.775 OA
HETATM   16  H   UNK N   1      34.595  19.561   9.025  0.00  0.00     0.167 HD
ENDBRANCH  13  15
ENDBRANCH   1  13
TORSDOF 6
ENDMDL
MODEL 5
REMARK VINA RESULT:      -4.4     12.920     14.112
REMARK  6 active torsions:
REMARK  status: ('A' for Active; 'I' for Inactive)
REMARK    1  A    between atoms: S_2  and  C_3 
REMARK    2  A    between atoms: C_3  and  C_4 
REMARK    3  A    between atoms: C_4  and  C_5 
REMARK    4  A    between atoms: C_5  and  N_6 
REMARK    5  A    between atoms: C_5  and  C_10 
REMARK       I    between atoms: N_6  and  C_7 
REMARK       I    between atoms: C_7  and  N_8 
REMARK    6  A    between atoms: C_10  and  O_11 
ROOT
HETATM    1  C   UNK N   1      44.068  23.087   2.343  0.00  0.00     0.184 C 
ENDROOT
BRANCH   1   2
HETATM    2  C   UNK N   1      43.195  22.638   1.154  0.00  0.00     0.046 C 
BRANCH   2   3
HETATM    3  C   UNK N   1      41.764  23.146   1.182  0.00  0.00     0.076 C 
BRANCH   3   4
HETATM    4  S   UNK N   1      40.599  21.878   0.629  0.00  0.00    -0.173 SA
HETATM    5  C   UNK N   1      40.363  21.316   2.339  0.00  0.00     0.089 C 
ENDBRANCH   3   4
ENDBRANCH   2   3
ENDBRANCH   1   2
BRANCH   1   6
HETATM    6  N   UNK N   1      45.339  23.657   1.900  0.00  0.00    -0.329 N 
HETATM    7  C   UNK N   1      45.908  24.875   2.110  0.00  0.00     0.314 C 
HETATM    8  N   UNK N   1      47.114  25.136   1.572  0.00  0.00    -0.352 N 
HETATM    9  O   UNK N   1      45.360  25.736   2.771  0.00  0.00    -0.248 OA
HETATM   10  H   UNK N   1      47.538  26.013   1.716  0.00  0.00     0.160 HD
HETATM   11  H   UNK N   1      47.572  24.450   1.034  0.00  0.00     0.160 HD
HETATM   12  H   UNK N   1      45.882  23.049   1.349  0.00  0.00     0.165 HD
ENDBRANCH   1   6
BRANCH   1  13
HETATM   13  C   UNK N   1      43.626  22.940   3.807  0.00  0.00     0.163 C 
HETATM   14  O   UNK N   1      43.390  21.834   4.263  0.00  0.00    -0.648 OA
BRANCH  13  15
HETATM   15  O   UNK N   1      43.485  23.996   4.621  0.00  0.00    -0.775 OA
HETATM   16  H   UNK N   1      44.058  24.101   5.355  0.00  0.00     0.167 HD
ENDBRANCH  13  15
ENDBRANCH   1  13
TORSDOF 6
ENDMDL
MODEL 6
REMARK VINA RESULT:      -4.3      2.598      3.751
REMARK  6 active torsions:
REMARK  status: ('A' for Active; 'I' for Inactive)
REMARK    1  A    between atoms: S_2  and  C_3 
REMARK    2  A    between atoms: C_3  and  C_4 
REMARK    3  A    between atoms: C_4  and  C_5 
REMARK    4  A    between atoms: C_5  and  N_6 
REMARK    5  A    between atoms: C_5  and  C_10 
REMARK       I    between atoms: N_6  and  C_7 
REMARK       I    between atoms: C_7  and  N_8 
REMARK    6  A    between atoms: C_10  and  O_11 
ROOT
HETATM    1  C   UNK N   1      34.572  15.409  10.405  0.00  0.00     0.184 C 
ENDROOT
BRANCH   1   2
HETATM    2  C   UNK N   1      33.575  15.442   9.230  0.00  0.00     0.046 C 
BRANCH   2   3
HETATM    3  C   UNK N   1      34.197  15.694   7.869  0.00  0.00     0.076 C 
BRANCH   3   4
HETATM    4  S   UNK N   1      33.111  16.682   6.814  0.00  0.00    -0.173 SA
HETATM    5  C   UNK N   1      32.746  17.799   8.198  0.00  0.00     0.089 C 
ENDBRANCH   3   4
ENDBRANCH   2   3
ENDBRANCH   1   2
BRANCH   1   6
HETATM    6  N   UNK N   1      34.295  14.305  11.323  0.00  0.00    -0.329 N 
HETATM    7  C   UNK N   1      35.068  13.273  11.758  0.00  0.00     0.314 C 
HETATM    8  N   UNK N   1      34.546  12.383  12.621  0.00  0.00    -0.352 N 
HETATM    9  O   UNK N   1      36.218  13.131  11.389  0.00  0.00    -0.248 OA
HETATM   10  H   UNK N   1      35.094  11.631  12.945  0.00  0.00     0.160 HD
HETATM   11  H   UNK N   1      33.617  12.483  12.930  0.00  0.00     0.160 HD
HETATM   12  H   UNK N   1      33.384  14.310  11.695  0.00  0.00     0.165 HD
ENDBRANCH   1   6
BRANCH   1  13
HETATM   13  C   UNK N   1      35.711  16.428  10.564  0.00  0.00     0.163 C 
HETATM   14  O   UNK N   1      35.488  17.617  10.410  0.00  0.00    -0.648 OA
BRANCH  13  15
HETATM   15  O   UNK N   1      36.963  16.061  10.871  0.00  0.00    -0.775 OA
HETATM   16  H   UNK N   1      37.686  16.426  10.402  0.00  0.00     0.167 HD
ENDBRANCH  13  15
ENDBRANCH   1  13
TORSDOF 6
ENDMDL
MODEL 7
REMARK VINA RESULT:      -4.2      3.544      4.695
REMARK  6 active torsions:
REMARK  status: ('A' for Active; 'I' for Inactive)
REMARK    1  A    between atoms: S_2  and  C_3 
REMARK    2  A    between atoms: C_3  and  C_4 
REMARK    3  A    between atoms: C_4  and  C_5 
REMARK    4  A    between atoms: C_5  and  N_6 
REMARK    5  A    between atoms: C_5  and  C_10 
REMARK       I    between atoms: N_6  and  C_7 
REMARK       I    between atoms: C_7  and  N_8 
REMARK    6  A    between atoms: C_10  and  O_11 
ROOT
HETATM    1  C   UNK N   1      34.523  15.430  10.456  0.00  0.00     0.184 C 
ENDROOT
BRANCH   1   2
HETATM    2  C   UNK N   1      33.456  15.491   9.346  0.00  0.00     0.046 C 
BRANCH   2   3
HETATM    3  C   UNK N   1      33.394  14.267   8.449  0.00  0.00     0.076 C 
BRANCH   3   4
HETATM    4  S   UNK N   1      35.003  13.910   7.703  0.00  0.00    -0.173 SA
HETATM    5  C   UNK N   1      34.857  12.162   8.171  0.00  0.00     0.089 C 
ENDBRANCH   3   4
ENDBRANCH   2   3
ENDBRANCH   1   2
BRANCH   1   6
HETATM    6  N   UNK N   1      34.286  14.321  11.380  0.00  0.00    -0.329 N 
HETATM    7  C   UNK N   1      35.071  13.277  11.761  0.00  0.00     0.314 C 
HETATM    8  N   UNK N   1      34.588  12.385  12.646  0.00  0.00    -0.352 N 
HETATM    9  O   UNK N   1      36.196  13.125  11.327  0.00  0.00    -0.248 OA
HETATM   10  H   UNK N   1      35.144  11.624  12.931  0.00  0.00     0.160 HD
HETATM   11  H   UNK N   1      33.678  12.493  13.008  0.00  0.00     0.160 HD
HETATM   12  H   UNK N   1      33.398  14.333  11.802  0.00  0.00     0.165 HD
ENDBRANCH   1   6
BRANCH   1  13
HETATM   13  C   UNK N   1      35.686  16.430  10.553  0.00  0.00     0.163 C 
HETATM   14  O   UNK N   1      35.506  17.601  10.265  0.00  0.00    -0.648 OA
BRANCH  13  15
HETATM   15  O   UNK N   1      36.913  16.064  10.950  0.00  0.00    -0.775 OA
HETATM   16  H   UNK N   1      37.633  16.118  10.353  0.00  0.00     0.167 HD
ENDBRANCH  13  15
ENDBRANCH   1  13
TORSDOF 6
ENDMDL
MODEL 8
REMARK VINA RESULT:      -4.2      4.883      6.346
REMARK  6 active torsions:
REMARK  status: ('A' for Active; 'I' for Inactive)
REMARK    1  A    between atoms: S_2  and  C_3 
REMARK    2  A    between atoms: C_3  and  C_4 
REMARK    3  A    between atoms: C_4  and  C_5 
REMARK    4  A    between atoms: C_5  and  N_6 
REMARK    5  A    between atoms: C_5  and  C_10 
REMARK       I    between atoms: N_6  and  C_7 
REMARK       I    between atoms: C_7  and  N_8 
REMARK    6  A    between atoms: C_10  and  O_11 
ROOT
HETATM    1  C   UNK N   1      29.491  17.898   8.071  0.00  0.00     0.184 C 
ENDROOT
BRANCH   1   2
HETATM    2  C   UNK N   1      30.868  18.029   8.751  0.00  0.00     0.046 C 
BRANCH   2   3
HETATM    3  C   UNK N   1      31.950  17.126   8.187  0.00  0.00     0.076 C 
BRANCH   3   4
HETATM    4  S   UNK N   1      33.479  18.040   7.870  0.00  0.00    -0.173 SA
HETATM    5  C   UNK N   1      33.474  17.492   6.139  0.00  0.00     0.089 C 
ENDBRANCH   3   4
ENDBRANCH   2   3
ENDBRANCH   1   2
BRANCH   1   6
HETATM    6  N   UNK N   1      29.615  17.603   6.644  0.00  0.00    -0.329 N 
HETATM    7  C   UNK N   1      29.016  18.149   5.551  0.00  0.00     0.314 C 
HETATM    8  N   UNK N   1      29.323  17.673   4.330  0.00  0.00    -0.352 N 
HETATM    9  O   UNK N   1      28.211  19.055   5.644  0.00  0.00    -0.248 OA
HETATM   10  H   UNK N   1      28.898  18.058   3.530  0.00  0.00     0.160 HD
HETATM   11  H   UNK N   1      29.973  16.939   4.237  0.00  0.00     0.160 HD
HETATM   12  H   UNK N   1      30.247  16.877   6.436  0.00  0.00     0.165 HD
ENDBRANCH   1   6
BRANCH   1  13
HETATM   13  C   UNK N   1      28.165  18.062   8.829  0.00  0.00     0.163 C 
HETATM   14  O   UNK N   1      27.812  17.212   9.629  0.00  0.00    -0.648 OA
BRANCH  13  15
HETATM   15  O   UNK N   1      27.363  19.120   8.645  0.00  0.00    -0.775 OA
HETATM   16  H   UNK N   1      27.620  19.808   8.063  0.00  0.00     0.167 HD
ENDBRANCH  13  15
ENDBRANCH   1  13
TORSDOF 6
ENDMDL
MODEL 9
REMARK VINA RESULT:      -4.1      4.931      7.203
REMARK  6 active torsions:
REMARK  status: ('A' for Active; 'I' for Inactive)
REMARK    1  A    between atoms: S_2  and  C_3 
REMARK    2  A    between atoms: C_3  and  C_4 
REMARK    3  A    between atoms: C_4  and  C_5 
REMARK    4  A    between atoms: C_5  and  N_6 
REMARK    5  A    between atoms: C_5  and  C_10 
REMARK       I    between atoms: N_6  and  C_7 
REMARK       I    between atoms: C_7  and  N_8 
REMARK    6  A    between atoms: C_10  and  O_11 
ROOT
HETATM    1  C   UNK N   1      36.533  13.966  12.631  0.00  0.00     0.184 C 
ENDROOT
BRANCH   1   2
HETATM    2  C   UNK N   1      37.192  12.939  11.689  0.00  0.00     0.046 C 
BRANCH   2   3
HETATM    3  C   UNK N   1      36.603  11.541  11.752  0.00  0.00     0.076 C 
BRANCH   3   4
HETATM    4  S   UNK N   1      34.911  11.503  11.113  0.00  0.00    -0.173 SA
HETATM    5  C   UNK N   1      34.351  10.597  12.583  0.00  0.00     0.089 C 
ENDBRANCH   3   4
ENDBRANCH   2   3
ENDBRANCH   1   2
BRANCH   1   6
HETATM    6  N   UNK N   1      36.221  15.216  11.940  0.00  0.00    -0.329 N 
HETATM    7  C   UNK N   1      35.074  15.672  11.366  0.00  0.00     0.314 C 
HETATM    8  N   UNK N   1      35.070  16.887  10.788  0.00  0.00    -0.352 N 
HETATM    9  O   UNK N   1      34.052  15.013  11.359  0.00  0.00    -0.248 OA
HETATM   10  H   UNK N   1      34.248  17.230  10.369  0.00  0.00     0.160 HD
HETATM   11  H   UNK N   1      35.889  17.434  10.785  0.00  0.00     0.160 HD
HETATM   12  H   UNK N   1      36.977  15.842  11.880  0.00  0.00     0.165 HD
ENDBRANCH   1   6
BRANCH   1  13
HETATM   13  C   UNK N   1      36.250  13.679  14.113  0.00  0.00     0.163 C 
HETATM   14  O   UNK N   1      35.104  13.505  14.492  0.00  0.00    -0.648 OA
BRANCH  13  15
HETATM   15  O   UNK N   1      37.228  13.610  15.028  0.00  0.00    -0.775 OA
HETATM   16  H   UNK N   1      37.280  14.252  15.708  0.00  0.00     0.167 HD
ENDBRANCH  13  15
ENDBRANCH   1  13
TORSDOF 6
ENDMDL
