REMARK  3 active torsions:
REMARK  status: ('A' for Active; 'I' for Inactive)
REMARK    1  A    between atoms: O_1  and  C_2 
REMARK    2  A    between atoms: C_2  and  C_3 
REMARK    3  A    between atoms: C_3  and  C_4 
ROOT
HETATM    1  C   UNK N   1       0.589  -0.631  -0.000  0.00  0.00    -0.056 A 
HETATM    2  C   UNK N   1      -0.643   0.032  -0.000  0.00  0.00     0.010 A 
HETATM    3  C   UNK N   1      -0.689   1.431   0.000  0.00  0.00     0.043 A 
HETATM    4  C   UNK N   1       0.497   2.170  -0.000  0.00  0.00     0.116 A 
HETATM    5  F   UNK N   1       0.455   3.524   0.000  0.00  0.00    -0.206 F 
HETATM    6  C   UNK N   1       1.730   1.515  -0.000  0.00  0.00     0.043 A 
HETATM    7  C   UNK N   1       1.776   0.120  -0.000  0.00  0.00     0.010 A 
ENDROOT
BRANCH   1   8
HETATM    8  C   UNK N   1       0.609  -2.132  -0.000  0.00  0.00     0.064 C 
BRANCH   8   9
HETATM    9  C   UNK N   1       2.018  -2.711   0.000  0.00  0.00     0.168 C 
BRANCH   9  10
HETATM   10  O   UNK N   1       1.956  -4.102  -0.000  0.00  0.00    -0.401 OA
HETATM   11  H   UNK N   1       1.095  -4.549  -0.000  0.00  0.00     0.209 HD
ENDBRANCH   9  10
ENDBRANCH   8   9
ENDBRANCH   1   8
TORSDOF 3
