REMARK  25 active torsions:
REMARK  status: ('A' for Active; 'I' for Inactive)
REMARK    1  A    between atoms: C_2  and  O_3 
REMARK    2  A    between atoms: O_3  and  C_4 
REMARK    3  A    between atoms: C_4  and  C_5 
REMARK    4  A    between atoms: C_5  and  O_6 
REMARK    5  A    between atoms: O_6  and  C_7 
REMARK    6  A    between atoms: C_7  and  C_8 
REMARK    7  A    between atoms: C_8  and  O_9 
REMARK    8  A    between atoms: O_9  and  C_10 
REMARK    9  A    between atoms: C_10  and  C_11 
REMARK   10  A    between atoms: C_11  and  O_12 
REMARK   11  A    between atoms: O_12  and  C_13 
REMARK   12  A    between atoms: C_13  and  C_14 
REMARK   13  A    between atoms: C_14  and  O_15 
REMARK   14  A    between atoms: O_15  and  C_16 
REMARK   15  A    between atoms: C_16  and  C_17 
REMARK   16  A    between atoms: C_17  and  O_18 
REMARK   17  A    between atoms: O_18  and  C_19 
REMARK   18  A    between atoms: C_19  and  C_20 
REMARK   19  A    between atoms: C_20  and  O_21 
REMARK   20  A    between atoms: O_21  and  C_22 
REMARK   21  A    between atoms: C_22  and  C_23 
REMARK   22  A    between atoms: C_23  and  O_24 
REMARK   23  A    between atoms: O_24  and  C_25 
REMARK   24  A    between atoms: C_25  and  C_26 
REMARK   25  A    between atoms: C_26  and  O_27 
ROOT
HETATM    1  C   UNK N   1      23.423   8.549   0.589  0.00  0.00     0.193 C 
ENDROOT
BRANCH   1   2
HETATM    2  C   UNK N   1      22.072   9.239   0.607  0.00  0.00     0.193 C 
BRANCH   2   3
HETATM    3  O   UNK N   1      21.285   8.781  -0.453  0.00  0.00    -0.387 OA
BRANCH   3   4
HETATM    4  C   UNK N   1      20.149   9.593  -0.442  0.00  0.00     0.193 C 
BRANCH   4   5
HETATM    5  C   UNK N   1      19.010   8.885   0.275  0.00  0.00     0.193 C 
BRANCH   5   6
HETATM    6  O   UNK N   1      17.837   9.631   0.150  0.00  0.00    -0.387 OA
BRANCH   6   7
HETATM    7  C   UNK N   1      16.917   8.758  -0.436  0.00  0.00     0.193 C 
BRANCH   7   8
HETATM    8  C   UNK N   1      15.760   8.519   0.521  0.00  0.00     0.193 C 
BRANCH   8   9
HETATM    9  O   UNK N   1      14.810   7.683  -0.074  0.00  0.00    -0.387 OA
BRANCH   9  10
HETATM   10  C   UNK N   1      13.776   8.532  -0.478  0.00  0.00     0.193 C 
BRANCH  10  11
HETATM   11  C   UNK N   1      12.558   8.339   0.410  0.00  0.00     0.193 C 
BRANCH  11  12
HETATM   12  O   UNK N   1      11.584   9.277   0.067  0.00  0.00    -0.389 OA
BRANCH  12  13
HETATM   13  C   UNK N   1      10.452   8.528  -0.255  0.00  0.00     0.163 C 
HETATM   14  C   UNK N   1       9.209   9.326   0.086  0.00  0.00     0.033 C 
ENDBRANCH  12  13
ENDBRANCH  11  12
ENDBRANCH  10  11
ENDBRANCH   9  10
ENDBRANCH   8   9
ENDBRANCH   7   8
ENDBRANCH   6   7
ENDBRANCH   5   6
ENDBRANCH   4   5
ENDBRANCH   3   4
ENDBRANCH   2   3
ENDBRANCH   1   2
BRANCH   1  15
HETATM   15  O   UNK N   1      24.236   9.106  -0.403  0.00  0.00    -0.387 OA
BRANCH  15  16
HETATM   16  C   UNK N   1      25.339   8.255  -0.486  0.00  0.00     0.193 C 
BRANCH  16  17
HETATM   17  C   UNK N   1      26.515   8.838   0.286  0.00  0.00     0.193 C 
BRANCH  17  18
HETATM   18  O   UNK N   1      27.594   7.952   0.241  0.00  0.00    -0.387 OA
BRANCH  18  19
HETATM   19  C   UNK N   1      28.630   8.668  -0.363  0.00  0.00     0.193 C 
BRANCH  19  20
HETATM   20  C   UNK N   1      29.932   8.428   0.385  0.00  0.00     0.193 C 
BRANCH  20  21
HETATM   21  O   UNK N   1      30.926   9.265  -0.129  0.00  0.00    -0.387 OA
BRANCH  21  22
HETATM   22  C   UNK N   1      32.037   8.447  -0.344  0.00  0.00     0.193 C 
BRANCH  22  23
HETATM   23  C   UNK N   1      33.251   9.039   0.357  0.00  0.00     0.193 C 
BRANCH  23  24
HETATM   24  O   UNK N   1      34.395   8.319   0.009  0.00  0.00    -0.387 OA
BRANCH  24  25
HETATM   25  C   UNK N   1      35.375   9.283  -0.234  0.00  0.00     0.193 C 
BRANCH  25  26
HETATM   26  C   UNK N   1      36.732   8.736   0.164  0.00  0.00     0.190 C 
BRANCH  26  27
HETATM   27  O   UNK N   1      37.712   9.704  -0.049  0.00  0.00    -0.399 OA
HETATM   28  H   UNK N   1      38.637   9.450  -0.198  0.00  0.00     0.209 HD
ENDBRANCH  26  27
ENDBRANCH  25  26
ENDBRANCH  24  25
ENDBRANCH  23  24
ENDBRANCH  22  23
ENDBRANCH  21  22
ENDBRANCH  20  21
ENDBRANCH  19  20
ENDBRANCH  18  19
ENDBRANCH  17  18
ENDBRANCH  16  17
ENDBRANCH  15  16
ENDBRANCH   1  15
TORSDOF 25
