MODEL 1
REMARK VINA RESULT:      -4.7      0.000      0.000
REMARK  22 active torsions:
REMARK  status: ('A' for Active; 'I' for Inactive)
REMARK    1  A    between atoms: C_2  and  C_3 
REMARK    2  A    between atoms: C_3  and  C_4 
REMARK    3  A    between atoms: C_4  and  C_5 
REMARK    4  A    between atoms: C_5  and  C_6 
REMARK    5  A    between atoms: C_6  and  C_7 
REMARK    6  A    between atoms: C_7  and  C_8 
REMARK    7  A    between atoms: C_8  and  C_9 
REMARK    8  A    between atoms: C_9  and  C_10 
REMARK    9  A    between atoms: C_10  and  C_11 
REMARK   10  A    between atoms: C_11  and  C_12 
REMARK   11  A    between atoms: C_12  and  C_13 
REMARK   12  A    between atoms: C_13  and  C_14 
REMARK   13  A    between atoms: C_14  and  C_15 
REMARK   14  A    between atoms: C_15  and  C_16 
REMARK   15  A    between atoms: C_16  and  C_17 
REMARK   16  A    between atoms: C_17  and  C_18 
REMARK   17  A    between atoms: C_18  and  C_19 
REMARK   18  A    between atoms: C_19  and  C_20 
REMARK   19  A    between atoms: C_20  and  C_21 
REMARK   20  A    between atoms: C_21  and  C_22 
REMARK   21  A    between atoms: C_22  and  C_23 
REMARK   22  A    between atoms: C_23  and  O_24 
ROOT
HETATM    1  C   UNK N   1      26.325  28.871  -4.853  0.00  0.00     0.000 C 
ENDROOT
BRANCH   1   2
HETATM    2  C   UNK N   1      26.201  28.411  -3.413  0.00  0.00     0.000 C 
BRANCH   2   3
HETATM    3  C   UNK N   1      26.000  26.911  -3.373  0.00  0.00     0.000 C 
BRANCH   3   4
HETATM    4  C   UNK N   1      27.227  26.201  -3.897  0.00  0.00     0.000 C 
BRANCH   4   5
HETATM    5  C   UNK N   1      26.991  24.721  -3.719  0.00  0.00     0.000 C 
BRANCH   5   6
HETATM    6  C   UNK N   1      28.294  23.976  -3.553  0.00  0.00     0.000 C 
BRANCH   6   7
HETATM    7  C   UNK N   1      29.409  24.951  -3.860  0.00  0.00     0.000 C 
BRANCH   7   8
HETATM    8  C   UNK N   1      30.742  24.368  -3.461  0.00  0.00     0.000 C 
BRANCH   8   9
HETATM    9  C   UNK N   1      30.495  23.164  -2.580  0.00  0.00     0.000 C 
BRANCH   9  10
HETATM   10  C   UNK N   1      31.397  22.033  -3.015  0.00  0.00     0.000 C 
BRANCH  10  11
HETATM   11  C   UNK N   1      30.562  20.917  -3.599  0.00  0.00    -0.000 C 
BRANCH  11  12
HETATM   12  C   UNK N   1      30.891  20.772  -5.069  0.00  0.00    -0.005 C 
HETATM   13  C   UNK N   1      29.878  21.539  -5.891  0.00  0.00     0.005 C 
ENDBRANCH  11  12
ENDBRANCH  10  11
ENDBRANCH   9  10
ENDBRANCH   8   9
ENDBRANCH   7   8
ENDBRANCH   6   7
ENDBRANCH   5   6
ENDBRANCH   4   5
ENDBRANCH   3   4
ENDBRANCH   2   3
ENDBRANCH   1   2
BRANCH   1  14
HETATM   14  C   UNK N   1      27.419  29.917  -5.003  0.00  0.00     0.000 C 
BRANCH  14  15
HETATM   15  C   UNK N   1      28.377  29.520  -6.116  0.00  0.00     0.000 C 
BRANCH  15  16
HETATM   16  C   UNK N   1      27.800  28.392  -6.961  0.00  0.00     0.000 C 
BRANCH  16  17
HETATM   17  C   UNK N   1      28.773  27.225  -7.034  0.00  0.00     0.000 C 
BRANCH  17  18
HETATM   18  C   UNK N   1      28.045  25.939  -7.389  0.00  0.00     0.000 C 
BRANCH  18  19
HETATM   19  C   UNK N   1      26.564  26.189  -7.619  0.00  0.00     0.000 C 
BRANCH  19  20
HETATM   20  C   UNK N   1      25.729  25.047  -7.066  0.00  0.00     0.001 C 
BRANCH  20  21
HETATM   21  C   UNK N   1      26.418  23.721  -7.318  0.00  0.00     0.010 C 
BRANCH  21  22
HETATM   22  C   UNK N   1      25.624  22.611  -6.646  0.00  0.00     0.110 C 
BRANCH  22  23
HETATM   23  C   UNK N   1      24.958  21.696  -7.632  0.00  0.00     0.139 C 
HETATM   24  O   UNK N   1      25.533  20.708  -8.064  0.00  0.00    -0.650 OA
BRANCH  23  25
HETATM   25  O   UNK N   1      23.713  21.977  -8.057  0.00  0.00    -0.776 OA
HETATM   26  H   UNK N   1      23.497  21.895  -8.965  0.00  0.00     0.167 HD
ENDBRANCH  23  25
ENDBRANCH  22  23
ENDBRANCH  21  22
ENDBRANCH  20  21
ENDBRANCH  19  20
ENDBRANCH  18  19
ENDBRANCH  17  18
ENDBRANCH  16  17
ENDBRANCH  15  16
ENDBRANCH  14  15
ENDBRANCH   1  14
TORSDOF 22
ENDMDL
MODEL 2
REMARK VINA RESULT:      -4.5      3.250      5.774
REMARK  22 active torsions:
REMARK  status: ('A' for Active; 'I' for Inactive)
REMARK    1  A    between atoms: C_2  and  C_3 
REMARK    2  A    between atoms: C_3  and  C_4 
REMARK    3  A    between atoms: C_4  and  C_5 
REMARK    4  A    between atoms: C_5  and  C_6 
REMARK    5  A    between atoms: C_6  and  C_7 
REMARK    6  A    between atoms: C_7  and  C_8 
REMARK    7  A    between atoms: C_8  and  C_9 
REMARK    8  A    between atoms: C_9  and  C_10 
REMARK    9  A    between atoms: C_10  and  C_11 
REMARK   10  A    between atoms: C_11  and  C_12 
REMARK   11  A    between atoms: C_12  and  C_13 
REMARK   12  A    between atoms: C_13  and  C_14 
REMARK   13  A    between atoms: C_14  and  C_15 
REMARK   14  A    between atoms: C_15  and  C_16 
REMARK   15  A    between atoms: C_16  and  C_17 
REMARK   16  A    between atoms: C_17  and  C_18 
REMARK   17  A    between atoms: C_18  and  C_19 
REMARK   18  A    between atoms: C_19  and  C_20 
REMARK   19  A    between atoms: C_20  and  C_21 
REMARK   20  A    between atoms: C_21  and  C_22 
REMARK   21  A    between atoms: C_22  and  C_23 
REMARK   22  A    between atoms: C_23  and  O_24 
ROOT
HETATM    1  C   UNK N   1      24.899  27.335  -5.495  0.00  0.00     0.000 C 
ENDROOT
BRANCH   1   2
HETATM    2  C   UNK N   1      25.558  27.767  -4.198  0.00  0.00     0.000 C 
BRANCH   2   3
HETATM    3  C   UNK N   1      26.408  28.995  -4.443  0.00  0.00     0.000 C 
BRANCH   3   4
HETATM    4  C   UNK N   1      27.621  28.640  -5.272  0.00  0.00     0.000 C 
BRANCH   4   5
HETATM    5  C   UNK N   1      28.364  27.558  -4.528  0.00  0.00     0.000 C 
BRANCH   5   6
HETATM    6  C   UNK N   1      29.354  26.858  -5.428  0.00  0.00     0.000 C 
BRANCH   6   7
HETATM    7  C   UNK N   1      30.694  26.888  -4.728  0.00  0.00     0.000 C 
BRANCH   7   8
HETATM    8  C   UNK N   1      30.522  27.250  -3.273  0.00  0.00     0.000 C 
BRANCH   8   9
HETATM    9  C   UNK N   1      31.512  28.340  -2.929  0.00  0.00     0.000 C 
BRANCH   9  10
HETATM   10  C   UNK N   1      30.964  29.173  -1.794  0.00  0.00     0.000 C 
BRANCH  10  11
HETATM   11  C   UNK N   1      29.875  30.084  -2.316  0.00  0.00    -0.000 C 
BRANCH  11  12
HETATM   12  C   UNK N   1      28.613  29.854  -1.513  0.00  0.00    -0.005 C 
HETATM   13  C   UNK N   1      28.906  30.060  -0.043  0.00  0.00     0.005 C 
ENDBRANCH  11  12
ENDBRANCH  10  11
ENDBRANCH   9  10
ENDBRANCH   8   9
ENDBRANCH   7   8
ENDBRANCH   6   7
ENDBRANCH   5   6
ENDBRANCH   4   5
ENDBRANCH   3   4
ENDBRANCH   2   3
ENDBRANCH   1   2
BRANCH   1  14
HETATM   14  C   UNK N   1      25.242  25.893  -5.830  0.00  0.00     0.000 C 
BRANCH  14  15
HETATM   15  C   UNK N   1      25.604  25.130  -4.565  0.00  0.00     0.000 C 
BRANCH  15  16
HETATM   16  C   UNK N   1      26.584  24.004  -4.862  0.00  0.00     0.000 C 
BRANCH  16  17
HETATM   17  C   UNK N   1      26.274  23.363  -6.206  0.00  0.00     0.000 C 
BRANCH  17  18
HETATM   18  C   UNK N   1      27.535  22.794  -6.835  0.00  0.00     0.000 C 
BRANCH  18  19
HETATM   19  C   UNK N   1      28.777  23.248  -6.087  0.00  0.00     0.000 C 
BRANCH  19  20
HETATM   20  C   UNK N   1      29.589  22.056  -5.611  0.00  0.00     0.001 C 
BRANCH  20  21
HETATM   21  C   UNK N   1      30.385  22.420  -4.374  0.00  0.00     0.010 C 
BRANCH  21  22
HETATM   22  C   UNK N   1      29.634  23.488  -3.593  0.00  0.00     0.110 C 
BRANCH  22  23
HETATM   23  C   UNK N   1      29.441  23.123  -2.150  0.00  0.00     0.139 C 
HETATM   24  O   UNK N   1      28.321  23.020  -1.671  0.00  0.00    -0.650 OA
BRANCH  23  25
HETATM   25  O   UNK N   1      30.517  22.920  -1.369  0.00  0.00    -0.776 OA
HETATM   26  H   UNK N   1      30.411  22.784  -0.449  0.00  0.00     0.167 HD
ENDBRANCH  23  25
ENDBRANCH  22  23
ENDBRANCH  21  22
ENDBRANCH  20  21
ENDBRANCH  19  20
ENDBRANCH  18  19
ENDBRANCH  17  18
ENDBRANCH  16  17
ENDBRANCH  15  16
ENDBRANCH  14  15
ENDBRANCH   1  14
TORSDOF 22
ENDMDL
MODEL 3
REMARK VINA RESULT:      -4.5      2.968      5.387
REMARK  22 active torsions:
REMARK  status: ('A' for Active; 'I' for Inactive)
REMARK    1  A    between atoms: C_2  and  C_3 
REMARK    2  A    between atoms: C_3  and  C_4 
REMARK    3  A    between atoms: C_4  and  C_5 
REMARK    4  A    between atoms: C_5  and  C_6 
REMARK    5  A    between atoms: C_6  and  C_7 
REMARK    6  A    between atoms: C_7  and  C_8 
REMARK    7  A    between atoms: C_8  and  C_9 
REMARK    8  A    between atoms: C_9  and  C_10 
REMARK    9  A    between atoms: C_10  and  C_11 
REMARK   10  A    between atoms: C_11  and  C_12 
REMARK   11  A    between atoms: C_12  and  C_13 
REMARK   12  A    between atoms: C_13  and  C_14 
REMARK   13  A    between atoms: C_14  and  C_15 
REMARK   14  A    between atoms: C_15  and  C_16 
REMARK   15  A    between atoms: C_16  and  C_17 
REMARK   16  A    between atoms: C_17  and  C_18 
REMARK   17  A    between atoms: C_18  and  C_19 
REMARK   18  A    between atoms: C_19  and  C_20 
REMARK   19  A    between atoms: C_20  and  C_21 
REMARK   20  A    between atoms: C_21  and  C_22 
REMARK   21  A    between atoms: C_22  and  C_23 
REMARK   22  A    between atoms: C_23  and  O_24 
ROOT
HETATM    1  C   UNK N   1      26.272  27.270  -3.663  0.00  0.00     0.000 C 
ENDROOT
BRANCH   1   2
HETATM    2  C   UNK N   1      27.165  28.260  -2.937  0.00  0.00     0.000 C 
BRANCH   2   3
HETATM    3  C   UNK N   1      26.744  29.672  -3.282  0.00  0.00     0.000 C 
BRANCH   3   4
HETATM    4  C   UNK N   1      27.943  30.494  -3.694  0.00  0.00     0.000 C 
BRANCH   4   5
HETATM    5  C   UNK N   1      27.766  30.837  -5.153  0.00  0.00     0.000 C 
BRANCH   5   6
HETATM    6  C   UNK N   1      28.768  30.105  -6.012  0.00  0.00     0.000 C 
BRANCH   6   7
HETATM    7  C   UNK N   1      28.023  29.000  -6.727  0.00  0.00     0.000 C 
BRANCH   7   8
HETATM    8  C   UNK N   1      28.734  27.682  -6.546  0.00  0.00     0.000 C 
BRANCH   8   9
HETATM    9  C   UNK N   1      29.845  27.871  -5.536  0.00  0.00     0.000 C 
BRANCH   9  10
HETATM   10  C   UNK N   1      29.881  26.682  -4.605  0.00  0.00     0.000 C 
BRANCH  10  11
HETATM   11  C   UNK N   1      30.855  26.951  -3.480  0.00  0.00    -0.000 C 
BRANCH  11  12
HETATM   12  C   UNK N   1      31.188  28.427  -3.459  0.00  0.00    -0.005 C 
HETATM   13  C   UNK N   1      30.802  29.013  -2.118  0.00  0.00     0.005 C 
ENDBRANCH  11  12
ENDBRANCH  10  11
ENDBRANCH   9  10
ENDBRANCH   8   9
ENDBRANCH   7   8
ENDBRANCH   6   7
ENDBRANCH   5   6
ENDBRANCH   4   5
ENDBRANCH   3   4
ENDBRANCH   2   3
ENDBRANCH   1   2
BRANCH   1  14
HETATM   14  C   UNK N   1      25.280  27.986  -4.566  0.00  0.00     0.000 C 
BRANCH  14  15
HETATM   15  C   UNK N   1      24.784  27.045  -5.653  0.00  0.00     0.000 C 
BRANCH  15  16
HETATM   16  C   UNK N   1      25.639  25.786  -5.722  0.00  0.00     0.000 C 
BRANCH  16  17
HETATM   17  C   UNK N   1      25.858  25.364  -7.167  0.00  0.00     0.000 C 
BRANCH  17  18
HETATM   18  C   UNK N   1      27.075  24.462  -7.286  0.00  0.00     0.000 C 
BRANCH  18  19
HETATM   19  C   UNK N   1      27.027  23.334  -6.269  0.00  0.00     0.000 C 
BRANCH  19  20
HETATM   20  C   UNK N   1      28.422  22.815  -5.969  0.00  0.00     0.001 C 
BRANCH  20  21
HETATM   21  C   UNK N   1      28.968  23.466  -4.715  0.00  0.00     0.010 C 
BRANCH  21  22
HETATM   22  C   UNK N   1      29.733  22.430  -3.906  0.00  0.00     0.110 C 
BRANCH  22  23
HETATM   23  C   UNK N   1      30.794  23.040  -3.036  0.00  0.00     0.139 C 
HETATM   24  O   UNK N   1      31.781  23.571  -3.525  0.00  0.00    -0.650 OA
BRANCH  23  25
HETATM   25  O   UNK N   1      30.663  22.988  -1.698  0.00  0.00    -0.776 OA
HETATM   26  H   UNK N   1      30.403  22.190  -1.282  0.00  0.00     0.167 HD
ENDBRANCH  23  25
ENDBRANCH  22  23
ENDBRANCH  21  22
ENDBRANCH  20  21
ENDBRANCH  19  20
ENDBRANCH  18  19
ENDBRANCH  17  18
ENDBRANCH  16  17
ENDBRANCH  15  16
ENDBRANCH  14  15
ENDBRANCH   1  14
TORSDOF 22
ENDMDL
MODEL 4
REMARK VINA RESULT:      -4.5      1.189      5.551
REMARK  22 active torsions:
REMARK  status: ('A' for Active; 'I' for Inactive)
REMARK    1  A    between atoms: C_2  and  C_3 
REMARK    2  A    between atoms: C_3  and  C_4 
REMARK    3  A    between atoms: C_4  and  C_5 
REMARK    4  A    between atoms: C_5  and  C_6 
REMARK    5  A    between atoms: C_6  and  C_7 
REMARK    6  A    between atoms: C_7  and  C_8 
REMARK    7  A    between atoms: C_8  and  C_9 
REMARK    8  A    between atoms: C_9  and  C_10 
REMARK    9  A    between atoms: C_10  and  C_11 
REMARK   10  A    between atoms: C_11  and  C_12 
REMARK   11  A    between atoms: C_12  and  C_13 
REMARK   12  A    between atoms: C_13  and  C_14 
REMARK   13  A    between atoms: C_14  and  C_15 
REMARK   14  A    between atoms: C_15  and  C_16 
REMARK   15  A    between atoms: C_16  and  C_17 
REMARK   16  A    between atoms: C_17  and  C_18 
REMARK   17  A    between atoms: C_18  and  C_19 
REMARK   18  A    between atoms: C_19  and  C_20 
REMARK   19  A    between atoms: C_20  and  C_21 
REMARK   20  A    between atoms: C_21  and  C_22 
REMARK   21  A    between atoms: C_22  and  C_23 
REMARK   22  A    between atoms: C_23  and  O_24 
ROOT
HETATM    1  C   UNK N   1      30.871  24.804  -3.732  0.00  0.00     0.000 C 
ENDROOT
BRANCH   1   2
HETATM    2  C   UNK N   1      29.516  24.292  -3.280  0.00  0.00     0.000 C 
BRANCH   2   3
HETATM    3  C   UNK N   1      28.451  24.740  -4.257  0.00  0.00     0.000 C 
BRANCH   3   4
HETATM    4  C   UNK N   1      27.077  24.368  -3.748  0.00  0.00     0.000 C 
BRANCH   4   5
HETATM    5  C   UNK N   1      26.152  25.508  -4.097  0.00  0.00     0.000 C 
BRANCH   5   6
HETATM    6  C   UNK N   1      26.313  26.657  -3.132  0.00  0.00     0.000 C 
BRANCH   6   7
HETATM    7  C   UNK N   1      25.907  27.917  -3.863  0.00  0.00     0.000 C 
BRANCH   7   8
HETATM    8  C   UNK N   1      25.862  27.672  -5.351  0.00  0.00     0.000 C 
BRANCH   8   9
HETATM    9  C   UNK N   1      27.020  28.403  -5.993  0.00  0.00     0.000 C 
BRANCH   9  10
HETATM   10  C   UNK N   1      27.551  27.583  -7.146  0.00  0.00     0.000 C 
BRANCH  10  11
HETATM   11  C   UNK N   1      26.502  26.582  -7.578  0.00  0.00    -0.000 C 
BRANCH  11  12
HETATM   12  C   UNK N   1      26.732  26.225  -9.031  0.00  0.00    -0.005 C 
HETATM   13  C   UNK N   1      25.485  25.579  -9.595  0.00  0.00     0.005 C 
ENDBRANCH  11  12
ENDBRANCH  10  11
ENDBRANCH   9  10
ENDBRANCH   8   9
ENDBRANCH   7   8
ENDBRANCH   6   7
ENDBRANCH   5   6
ENDBRANCH   4   5
ENDBRANCH   3   4
ENDBRANCH   2   3
ENDBRANCH   1   2
BRANCH   1  14
HETATM   14  C   UNK N   1      31.622  23.744  -4.523  0.00  0.00     0.000 C 
BRANCH  14  15
HETATM   15  C   UNK N   1      31.674  22.442  -3.738  0.00  0.00     0.000 C 
BRANCH  15  16
HETATM   16  C   UNK N   1      31.536  21.239  -4.661  0.00  0.00     0.000 C 
BRANCH  16  17
HETATM   17  C   UNK N   1      30.130  21.162  -5.237  0.00  0.00     0.000 C 
BRANCH  17  18
HETATM   18  C   UNK N   1      30.141  20.485  -6.597  0.00  0.00     0.000 C 
BRANCH  18  19
HETATM   19  C   UNK N   1      29.005  20.986  -7.473  0.00  0.00     0.000 C 
BRANCH  19  20
HETATM   20  C   UNK N   1      28.327  22.191  -6.844  0.00  0.00     0.001 C 
BRANCH  20  21
HETATM   21  C   UNK N   1      27.221  22.703  -7.744  0.00  0.00     0.010 C 
BRANCH  21  22
HETATM   22  C   UNK N   1      25.923  22.768  -6.954  0.00  0.00     0.110 C 
BRANCH  22  23
HETATM   23  C   UNK N   1      24.868  21.845  -7.492  0.00  0.00     0.139 C 
HETATM   24  O   UNK N   1      23.965  21.435  -6.777  0.00  0.00    -0.650 OA
BRANCH  23  25
HETATM   25  O   UNK N   1      24.928  21.452  -8.777  0.00  0.00    -0.776 OA
HETATM   26  H   UNK N   1      24.568  21.994  -9.451  0.00  0.00     0.167 HD
ENDBRANCH  23  25
ENDBRANCH  22  23
ENDBRANCH  21  22
ENDBRANCH  20  21
ENDBRANCH  19  20
ENDBRANCH  18  19
ENDBRANCH  17  18
ENDBRANCH  16  17
ENDBRANCH  15  16
ENDBRANCH  14  15
ENDBRANCH   1  14
TORSDOF 22
ENDMDL
MODEL 5
REMARK VINA RESULT:      -4.5      3.324      6.219
REMARK  22 active torsions:
REMARK  status: ('A' for Active; 'I' for Inactive)
REMARK    1  A    between atoms: C_2  and  C_3 
REMARK    2  A    between atoms: C_3  and  C_4 
REMARK    3  A    between atoms: C_4  and  C_5 
REMARK    4  A    between atoms: C_5  and  C_6 
REMARK    5  A    between atoms: C_6  and  C_7 
REMARK    6  A    between atoms: C_7  and  C_8 
REMARK    7  A    between atoms: C_8  and  C_9 
REMARK    8  A    between atoms: C_9  and  C_10 
REMARK    9  A    between atoms: C_10  and  C_11 
REMARK   10  A    between atoms: C_11  and  C_12 
REMARK   11  A    between atoms: C_12  and  C_13 
REMARK   12  A    between atoms: C_13  and  C_14 
REMARK   13  A    between atoms: C_14  and  C_15 
REMARK   14  A    between atoms: C_15  and  C_16 
REMARK   15  A    between atoms: C_16  and  C_17 
REMARK   16  A    between atoms: C_17  and  C_18 
REMARK   17  A    between atoms: C_18  and  C_19 
REMARK   18  A    between atoms: C_19  and  C_20 
REMARK   19  A    between atoms: C_20  and  C_21 
REMARK   20  A    between atoms: C_21  and  C_22 
REMARK   21  A    between atoms: C_22  and  C_23 
REMARK   22  A    between atoms: C_23  and  O_24 
ROOT
HETATM    1  C   UNK N   1      26.193  26.760  -6.966  0.00  0.00     0.000 C 
ENDROOT
BRANCH   1   2
HETATM    2  C   UNK N   1      27.387  27.691  -7.076  0.00  0.00     0.000 C 
BRANCH   2   3
HETATM    3  C   UNK N   1      27.533  28.483  -5.795  0.00  0.00     0.000 C 
BRANCH   3   4
HETATM    4  C   UNK N   1      26.272  28.388  -4.968  0.00  0.00     0.000 C 
BRANCH   4   5
HETATM    5  C   UNK N   1      26.609  28.893  -3.586  0.00  0.00     0.000 C 
BRANCH   5   6
HETATM    6  C   UNK N   1      26.698  30.400  -3.562  0.00  0.00     0.000 C 
BRANCH   6   7
HETATM    7  C   UNK N   1      27.826  30.767  -2.624  0.00  0.00     0.000 C 
BRANCH   7   8
HETATM    8  C   UNK N   1      27.981  29.718  -1.551  0.00  0.00     0.000 C 
BRANCH   8   9
HETATM    9  C   UNK N   1      29.250  30.007  -0.779  0.00  0.00     0.000 C 
BRANCH   9  10
HETATM   10  C   UNK N   1      30.365  30.317  -1.750  0.00  0.00     0.000 C 
BRANCH  10  11
HETATM   11  C   UNK N   1      31.458  29.280  -1.612  0.00  0.00    -0.000 C 
BRANCH  11  12
HETATM   12  C   UNK N   1      31.292  28.242  -2.700  0.00  0.00    -0.005 C 
HETATM   13  C   UNK N   1      30.798  28.910  -3.965  0.00  0.00     0.005 C 
ENDBRANCH  11  12
ENDBRANCH  10  11
ENDBRANCH   9  10
ENDBRANCH   8   9
ENDBRANCH   7   8
ENDBRANCH   6   7
ENDBRANCH   5   6
ENDBRANCH   4   5
ENDBRANCH   3   4
ENDBRANCH   2   3
ENDBRANCH   1   2
BRANCH   1  14
HETATM   14  C   UNK N   1      26.606  25.312  -7.180  0.00  0.00     0.000 C 
BRANCH  14  15
HETATM   15  C   UNK N   1      25.839  24.401  -6.234  0.00  0.00     0.000 C 
BRANCH  15  16
HETATM   16  C   UNK N   1      25.968  24.871  -4.792  0.00  0.00     0.000 C 
BRANCH  16  17
HETATM   17  C   UNK N   1      27.187  24.245  -4.131  0.00  0.00     0.000 C 
BRANCH  17  18
HETATM   18  C   UNK N   1      28.287  25.277  -3.945  0.00  0.00     0.000 C 
BRANCH  18  19
HETATM   19  C   UNK N   1      29.454  25.016  -4.883  0.00  0.00     0.000 C 
BRANCH  19  20
HETATM   20  C   UNK N   1      30.779  25.199  -4.164  0.00  0.00     0.001 C 
BRANCH  20  21
HETATM   21  C   UNK N   1      31.696  24.026  -4.442  0.00  0.00     0.010 C 
BRANCH  21  22
HETATM   22  C   UNK N   1      31.014  22.741  -3.998  0.00  0.00     0.110 C 
BRANCH  22  23
HETATM   23  C   UNK N   1      31.242  22.434  -2.546  0.00  0.00     0.139 C 
HETATM   24  O   UNK N   1      32.131  21.671  -2.196  0.00  0.00    -0.650 OA
BRANCH  23  25
HETATM   25  O   UNK N   1      30.447  22.997  -1.619  0.00  0.00    -0.776 OA
HETATM   26  H   UNK N   1      30.822  23.432  -0.879  0.00  0.00     0.167 HD
ENDBRANCH  23  25
ENDBRANCH  22  23
ENDBRANCH  21  22
ENDBRANCH  20  21
ENDBRANCH  19  20
ENDBRANCH  18  19
ENDBRANCH  17  18
ENDBRANCH  16  17
ENDBRANCH  15  16
ENDBRANCH  14  15
ENDBRANCH   1  14
TORSDOF 22
ENDMDL
MODEL 6
REMARK VINA RESULT:      -4.4     10.478     12.877
REMARK  22 active torsions:
REMARK  status: ('A' for Active; 'I' for Inactive)
REMARK    1  A    between atoms: C_2  and  C_3 
REMARK    2  A    between atoms: C_3  and  C_4 
REMARK    3  A    between atoms: C_4  and  C_5 
REMARK    4  A    between atoms: C_5  and  C_6 
REMARK    5  A    between atoms: C_6  and  C_7 
REMARK    6  A    between atoms: C_7  and  C_8 
REMARK    7  A    between atoms: C_8  and  C_9 
REMARK    8  A    between atoms: C_9  and  C_10 
REMARK    9  A    between atoms: C_10  and  C_11 
REMARK   10  A    between atoms: C_11  and  C_12 
REMARK   11  A    between atoms: C_12  and  C_13 
REMARK   12  A    between atoms: C_13  and  C_14 
REMARK   13  A    between atoms: C_14  and  C_15 
REMARK   14  A    between atoms: C_15  and  C_16 
REMARK   15  A    between atoms: C_16  and  C_17 
REMARK   16  A    between atoms: C_17  and  C_18 
REMARK   17  A    between atoms: C_18  and  C_19 
REMARK   18  A    between atoms: C_19  and  C_20 
REMARK   19  A    between atoms: C_20  and  C_21 
REMARK   20  A    between atoms: C_21  and  C_22 
REMARK   21  A    between atoms: C_22  and  C_23 
REMARK   22  A    between atoms: C_23  and  O_24 
ROOT
HETATM    1  C   UNK N   1      26.785  20.479   5.101  0.00  0.00     0.000 C 
ENDROOT
BRANCH   1   2
HETATM    2  C   UNK N   1      27.774  19.686   5.935  0.00  0.00     0.000 C 
BRANCH   2   3
HETATM    3  C   UNK N   1      28.375  18.580   5.095  0.00  0.00     0.000 C 
BRANCH   3   4
HETATM    4  C   UNK N   1      27.881  17.232   5.567  0.00  0.00     0.000 C 
BRANCH   4   5
HETATM    5  C   UNK N   1      29.083  16.322   5.646  0.00  0.00     0.000 C 
BRANCH   5   6
HETATM    6  C   UNK N   1      30.248  16.887   4.870  0.00  0.00     0.000 C 
BRANCH   6   7
HETATM    7  C   UNK N   1      31.462  16.053   5.212  0.00  0.00     0.000 C 
BRANCH   7   8
HETATM    8  C   UNK N   1      31.562  15.857   6.705  0.00  0.00     0.000 C 
BRANCH   8   9
HETATM    9  C   UNK N   1      31.951  17.176   7.336  0.00  0.00     0.000 C 
BRANCH   9  10
HETATM   10  C   UNK N   1      31.302  17.289   8.696  0.00  0.00     0.000 C 
BRANCH  10  11
HETATM   11  C   UNK N   1      30.580  18.614   8.802  0.00  0.00    -0.000 C 
BRANCH  11  12
HETATM   12  C   UNK N   1      29.475  18.491   9.828  0.00  0.00    -0.005 C 
HETATM   13  C   UNK N   1      28.235  17.926   9.170  0.00  0.00     0.005 C 
ENDBRANCH  11  12
ENDBRANCH  10  11
ENDBRANCH   9  10
ENDBRANCH   8   9
ENDBRANCH   7   8
ENDBRANCH   6   7
ENDBRANCH   5   6
ENDBRANCH   4   5
ENDBRANCH   3   4
ENDBRANCH   2   3
ENDBRANCH   1   2
BRANCH   1  14
HETATM   14  C   UNK N   1      26.802  20.025   3.650  0.00  0.00     0.000 C 
BRANCH  14  15
HETATM   15  C   UNK N   1      25.605  20.596   2.906  0.00  0.00     0.000 C 
BRANCH  15  16
HETATM   16  C   UNK N   1      24.303  19.986   3.408  0.00  0.00     0.000 C 
BRANCH  16  17
HETATM   17  C   UNK N   1      24.528  18.561   3.890  0.00  0.00     0.000 C 
BRANCH  17  18
HETATM   18  C   UNK N   1      23.290  18.028   4.590  0.00  0.00     0.000 C 
BRANCH  18  19
HETATM   19  C   UNK N   1      22.073  18.086   3.682  0.00  0.00     0.000 C 
BRANCH  19  20
HETATM   20  C   UNK N   1      21.023  19.030   4.242  0.00  0.00     0.001 C 
BRANCH  20  21
HETATM   21  C   UNK N   1      20.021  19.400   3.168  0.00  0.00     0.010 C 
BRANCH  21  22
HETATM   22  C   UNK N   1      20.681  19.277   1.804  0.00  0.00     0.110 C 
BRANCH  22  23
HETATM   23  C   UNK N   1      20.980  20.611   1.182  0.00  0.00     0.139 C 
HETATM   24  O   UNK N   1      21.079  20.733  -0.030  0.00  0.00    -0.650 OA
BRANCH  23  25
HETATM   25  O   UNK N   1      21.157  21.684   1.973  0.00  0.00    -0.776 OA
HETATM   26  H   UNK N   1      20.746  22.498   1.759  0.00  0.00     0.167 HD
ENDBRANCH  23  25
ENDBRANCH  22  23
ENDBRANCH  21  22
ENDBRANCH  20  21
ENDBRANCH  19  20
ENDBRANCH  18  19
ENDBRANCH  17  18
ENDBRANCH  16  17
ENDBRANCH  15  16
ENDBRANCH  14  15
ENDBRANCH   1  14
TORSDOF 22
ENDMDL
MODEL 7
REMARK VINA RESULT:      -4.4      2.844      4.966
REMARK  22 active torsions:
REMARK  status: ('A' for Active; 'I' for Inactive)
REMARK    1  A    between atoms: C_2  and  C_3 
REMARK    2  A    between atoms: C_3  and  C_4 
REMARK    3  A    between atoms: C_4  and  C_5 
REMARK    4  A    between atoms: C_5  and  C_6 
REMARK    5  A    between atoms: C_6  and  C_7 
REMARK    6  A    between atoms: C_7  and  C_8 
REMARK    7  A    between atoms: C_8  and  C_9 
REMARK    8  A    between atoms: C_9  and  C_10 
REMARK    9  A    between atoms: C_10  and  C_11 
REMARK   10  A    between atoms: C_11  and  C_12 
REMARK   11  A    between atoms: C_12  and  C_13 
REMARK   12  A    between atoms: C_13  and  C_14 
REMARK   13  A    between atoms: C_14  and  C_15 
REMARK   14  A    between atoms: C_15  and  C_16 
REMARK   15  A    between atoms: C_16  and  C_17 
REMARK   16  A    between atoms: C_17  and  C_18 
REMARK   17  A    between atoms: C_18  and  C_19 
REMARK   18  A    between atoms: C_19  and  C_20 
REMARK   19  A    between atoms: C_20  and  C_21 
REMARK   20  A    between atoms: C_21  and  C_22 
REMARK   21  A    between atoms: C_22  and  C_23 
REMARK   22  A    between atoms: C_23  and  O_24 
ROOT
HETATM    1  C   UNK N   1      27.828  24.363  -5.123  0.00  0.00     0.000 C 
ENDROOT
BRANCH   1   2
HETATM    2  C   UNK N   1      27.002  24.220  -3.857  0.00  0.00     0.000 C 
BRANCH   2   3
HETATM    3  C   UNK N   1      27.893  23.785  -2.714  0.00  0.00     0.000 C 
BRANCH   3   4
HETATM    4  C   UNK N   1      29.340  23.762  -3.152  0.00  0.00     0.000 C 
BRANCH   4   5
HETATM    5  C   UNK N   1      30.068  22.818  -2.226  0.00  0.00     0.000 C 
BRANCH   5   6
HETATM    6  C   UNK N   1      31.177  22.092  -2.947  0.00  0.00     0.000 C 
BRANCH   6   7
HETATM    7  C   UNK N   1      30.545  20.943  -3.700  0.00  0.00     0.000 C 
BRANCH   7   8
HETATM    8  C   UNK N   1      31.572  20.245  -4.556  0.00  0.00     0.000 C 
BRANCH   8   9
HETATM    9  C   UNK N   1      31.306  20.594  -6.004  0.00  0.00     0.000 C 
BRANCH   9  10
HETATM   10  C   UNK N   1      29.825  20.815  -6.200  0.00  0.00     0.000 C 
BRANCH  10  11
HETATM   11  C   UNK N   1      29.437  20.420  -7.607  0.00  0.00    -0.000 C 
BRANCH  11  12
HETATM   12  C   UNK N   1      29.363  18.911  -7.692  0.00  0.00    -0.005 C 
HETATM   13  C   UNK N   1      30.172  18.431  -8.877  0.00  0.00     0.005 C 
ENDBRANCH  11  12
ENDBRANCH  10  11
ENDBRANCH   9  10
ENDBRANCH   8   9
ENDBRANCH   7   8
ENDBRANCH   6   7
ENDBRANCH   5   6
ENDBRANCH   4   5
ENDBRANCH   3   4
ENDBRANCH   2   3
ENDBRANCH   1   2
BRANCH   1  14
HETATM   14  C   UNK N   1      27.351  23.401  -6.200  0.00  0.00     0.000 C 
BRANCH  14  15
HETATM   15  C   UNK N   1      25.883  23.647  -6.512  0.00  0.00     0.000 C 
BRANCH  15  16
HETATM   16  C   UNK N   1      25.723  24.515  -7.752  0.00  0.00     0.000 C 
BRANCH  16  17
HETATM   17  C   UNK N   1      27.011  24.539  -8.561  0.00  0.00     0.000 C 
BRANCH  17  18
HETATM   18  C   UNK N   1      27.445  25.969  -8.840  0.00  0.00     0.000 C 
BRANCH  18  19
HETATM   19  C   UNK N   1      26.811  26.939  -7.858  0.00  0.00     0.000 C 
BRANCH  19  20
HETATM   20  C   UNK N   1      27.851  27.505  -6.906  0.00  0.00     0.001 C 
BRANCH  20  21
HETATM   21  C   UNK N   1      27.211  28.495  -5.954  0.00  0.00     0.010 C 
BRANCH  21  22
HETATM   22  C   UNK N   1      26.091  27.804  -5.192  0.00  0.00     0.110 C 
BRANCH  22  23
HETATM   23  C   UNK N   1      25.887  28.371  -3.817  0.00  0.00     0.139 C 
HETATM   24  O   UNK N   1      25.703  27.641  -2.855  0.00  0.00    -0.650 OA
BRANCH  23  25
HETATM   25  O   UNK N   1      25.893  29.706  -3.646  0.00  0.00    -0.776 OA
HETATM   26  H   UNK N   1      26.083  30.070  -2.804  0.00  0.00     0.167 HD
ENDBRANCH  23  25
ENDBRANCH  22  23
ENDBRANCH  21  22
ENDBRANCH  20  21
ENDBRANCH  19  20
ENDBRANCH  18  19
ENDBRANCH  17  18
ENDBRANCH  16  17
ENDBRANCH  15  16
ENDBRANCH  14  15
ENDBRANCH   1  14
TORSDOF 22
ENDMDL
MODEL 8
REMARK VINA RESULT:      -4.4      2.883      5.437
REMARK  22 active torsions:
REMARK  status: ('A' for Active; 'I' for Inactive)
REMARK    1  A    between atoms: C_2  and  C_3 
REMARK    2  A    between atoms: C_3  and  C_4 
REMARK    3  A    between atoms: C_4  and  C_5 
REMARK    4  A    between atoms: C_5  and  C_6 
REMARK    5  A    between atoms: C_6  and  C_7 
REMARK    6  A    between atoms: C_7  and  C_8 
REMARK    7  A    between atoms: C_8  and  C_9 
REMARK    8  A    between atoms: C_9  and  C_10 
REMARK    9  A    between atoms: C_10  and  C_11 
REMARK   10  A    between atoms: C_11  and  C_12 
REMARK   11  A    between atoms: C_12  and  C_13 
REMARK   12  A    between atoms: C_13  and  C_14 
REMARK   13  A    between atoms: C_14  and  C_15 
REMARK   14  A    between atoms: C_15  and  C_16 
REMARK   15  A    between atoms: C_16  and  C_17 
REMARK   16  A    between atoms: C_17  and  C_18 
REMARK   17  A    between atoms: C_18  and  C_19 
REMARK   18  A    between atoms: C_19  and  C_20 
REMARK   19  A    between atoms: C_20  and  C_21 
REMARK   20  A    between atoms: C_21  and  C_22 
REMARK   21  A    between atoms: C_22  and  C_23 
REMARK   22  A    between atoms: C_23  and  O_24 
ROOT
HETATM    1  C   UNK N   1      26.970  25.187  -7.493  0.00  0.00     0.000 C 
ENDROOT
BRANCH   1   2
HETATM    2  C   UNK N   1      25.712  24.338  -7.458  0.00  0.00     0.000 C 
BRANCH   2   3
HETATM    3  C   UNK N   1      25.840  23.281  -6.383  0.00  0.00     0.000 C 
BRANCH   3   4
HETATM    4  C   UNK N   1      25.349  21.947  -6.894  0.00  0.00     0.000 C 
BRANCH   4   5
HETATM    5  C   UNK N   1      24.930  22.148  -8.330  0.00  0.00     0.000 C 
BRANCH   5   6
HETATM    6  C   UNK N   1      25.689  21.228  -9.255  0.00  0.00     0.000 C 
BRANCH   6   7
HETATM    7  C   UNK N   1      27.068  21.036  -8.663  0.00  0.00     0.000 C 
BRANCH   7   8
HETATM    8  C   UNK N   1      28.057  21.969  -9.317  0.00  0.00     0.000 C 
BRANCH   8   9
HETATM    9  C   UNK N   1      29.128  22.317  -8.308  0.00  0.00     0.000 C 
BRANCH   9  10
HETATM   10  C   UNK N   1      29.001  21.404  -7.111  0.00  0.00     0.000 C 
BRANCH  10  11
HETATM   11  C   UNK N   1      30.340  20.765  -6.819  0.00  0.00    -0.000 C 
BRANCH  11  12
HETATM   12  C   UNK N   1      30.569  19.632  -7.796  0.00  0.00    -0.005 C 
HETATM   13  C   UNK N   1      29.417  18.654  -7.714  0.00  0.00     0.005 C 
ENDBRANCH  11  12
ENDBRANCH  10  11
ENDBRANCH   9  10
ENDBRANCH   8   9
ENDBRANCH   7   8
ENDBRANCH   6   7
ENDBRANCH   5   6
ENDBRANCH   4   5
ENDBRANCH   3   4
ENDBRANCH   2   3
ENDBRANCH   1   2
BRANCH   1  14
HETATM   14  C   UNK N   1      26.638  26.649  -7.745  0.00  0.00     0.000 C 
BRANCH  14  15
HETATM   15  C   UNK N   1      27.470  27.541  -6.836  0.00  0.00     0.000 C 
BRANCH  15  16
HETATM   16  C   UNK N   1      26.694  27.924  -5.583  0.00  0.00     0.000 C 
BRANCH  16  17
HETATM   17  C   UNK N   1      27.245  27.194  -4.367  0.00  0.00     0.000 C 
BRANCH  17  18
HETATM   18  C   UNK N   1      26.354  26.021  -3.994  0.00  0.00     0.000 C 
BRANCH  18  19
HETATM   19  C   UNK N   1      27.142  24.933  -3.284  0.00  0.00     0.000 C 
BRANCH  19  20
HETATM   20  C   UNK N   1      28.543  24.816  -3.859  0.00  0.00     0.001 C 
BRANCH  20  21
HETATM   21  C   UNK N   1      28.937  23.360  -3.996  0.00  0.00     0.010 C 
BRANCH  21  22
HETATM   22  C   UNK N   1      30.445  23.233  -3.846  0.00  0.00     0.110 C 
BRANCH  22  23
HETATM   23  C   UNK N   1      30.854  22.749  -2.485  0.00  0.00     0.139 C 
HETATM   24  O   UNK N   1      30.215  23.054  -1.489  0.00  0.00    -0.650 OA
BRANCH  23  25
HETATM   25  O   UNK N   1      31.951  21.979  -2.359  0.00  0.00    -0.776 OA
HETATM   26  H   UNK N   1      32.114  21.522  -1.558  0.00  0.00     0.167 HD
ENDBRANCH  23  25
ENDBRANCH  22  23
ENDBRANCH  21  22
ENDBRANCH  20  21
ENDBRANCH  19  20
ENDBRANCH  18  19
ENDBRANCH  17  18
ENDBRANCH  16  17
ENDBRANCH  15  16
ENDBRANCH  14  15
ENDBRANCH   1  14
TORSDOF 22
ENDMDL
MODEL 9
REMARK VINA RESULT:      -4.4      3.473      6.548
REMARK  22 active torsions:
REMARK  status: ('A' for Active; 'I' for Inactive)
REMARK    1  A    between atoms: C_2  and  C_3 
REMARK    2  A    between atoms: C_3  and  C_4 
REMARK    3  A    between atoms: C_4  and  C_5 
REMARK    4  A    between atoms: C_5  and  C_6 
REMARK    5  A    between atoms: C_6  and  C_7 
REMARK    6  A    between atoms: C_7  and  C_8 
REMARK    7  A    between atoms: C_8  and  C_9 
REMARK    8  A    between atoms: C_9  and  C_10 
REMARK    9  A    between atoms: C_10  and  C_11 
REMARK   10  A    between atoms: C_11  and  C_12 
REMARK   11  A    between atoms: C_12  and  C_13 
REMARK   12  A    between atoms: C_13  and  C_14 
REMARK   13  A    between atoms: C_14  and  C_15 
REMARK   14  A    between atoms: C_15  and  C_16 
REMARK   15  A    between atoms: C_16  and  C_17 
REMARK   16  A    between atoms: C_17  and  C_18 
REMARK   17  A    between atoms: C_18  and  C_19 
REMARK   18  A    between atoms: C_19  and  C_20 
REMARK   19  A    between atoms: C_20  and  C_21 
REMARK   20  A    between atoms: C_21  and  C_22 
REMARK   21  A    between atoms: C_22  and  C_23 
REMARK   22  A    between atoms: C_23  and  O_24 
ROOT
HETATM    1  C   UNK N   1      30.387  26.952  -5.209  0.00  0.00     0.000 C 
ENDROOT
BRANCH   1   2
HETATM    2  C   UNK N   1      29.242  27.657  -5.912  0.00  0.00     0.000 C 
BRANCH   2   3
HETATM    3  C   UNK N   1      28.210  28.093  -4.895  0.00  0.00     0.000 C 
BRANCH   3   4
HETATM    4  C   UNK N   1      26.922  28.483  -5.582  0.00  0.00     0.000 C 
BRANCH   4   5
HETATM    5  C   UNK N   1      25.797  27.829  -4.819  0.00  0.00     0.000 C 
BRANCH   5   6
HETATM    6  C   UNK N   1      24.872  27.078  -5.747  0.00  0.00     0.000 C 
BRANCH   6   7
HETATM    7  C   UNK N   1      25.554  25.776  -6.102  0.00  0.00     0.000 C 
BRANCH   7   8
HETATM    8  C   UNK N   1      25.704  24.908  -4.877  0.00  0.00     0.000 C 
BRANCH   8   9
HETATM    9  C   UNK N   1      26.879  23.979  -5.088  0.00  0.00     0.000 C 
BRANCH   9  10
HETATM   10  C   UNK N   1      27.678  24.449  -6.281  0.00  0.00     0.000 C 
BRANCH  10  11
HETATM   11  C   UNK N   1      28.850  23.519  -6.501  0.00  0.00    -0.000 C 
BRANCH  11  12
HETATM   12  C   UNK N   1      28.328  22.155  -6.900  0.00  0.00    -0.005 C 
HETATM   13  C   UNK N   1      29.468  21.160  -6.905  0.00  0.00     0.005 C 
ENDBRANCH  11  12
ENDBRANCH  10  11
ENDBRANCH   9  10
ENDBRANCH   8   9
ENDBRANCH   7   8
ENDBRANCH   6   7
ENDBRANCH   5   6
ENDBRANCH   4   5
ENDBRANCH   3   4
ENDBRANCH   2   3
ENDBRANCH   1   2
BRANCH   1  14
HETATM   14  C   UNK N   1      29.930  26.345  -3.891  0.00  0.00     0.000 C 
BRANCH  14  15
HETATM   15  C   UNK N   1      30.708  25.070  -3.602  0.00  0.00     0.000 C 
BRANCH  15  16
HETATM   16  C   UNK N   1      29.820  24.021  -2.948  0.00  0.00     0.000 C 
BRANCH  16  17
HETATM   17  C   UNK N   1      30.640  22.809  -2.531  0.00  0.00     0.000 C 
BRANCH  17  18
HETATM   18  C   UNK N   1      30.294  21.604  -3.389  0.00  0.00     0.000 C 
BRANCH  18  19
HETATM   19  C   UNK N   1      31.544  20.845  -3.804  0.00  0.00     0.000 C 
BRANCH  19  20
HETATM   20  C   UNK N   1      32.731  21.245  -2.945  0.00  0.00     0.001 C 
BRANCH  20  21
HETATM   21  C   UNK N   1      34.028  20.980  -3.681  0.00  0.00     0.010 C 
BRANCH  21  22
HETATM   22  C   UNK N   1      33.817  19.846  -4.673  0.00  0.00     0.110 C 
BRANCH  22  23
HETATM   23  C   UNK N   1      34.445  18.559  -4.226  0.00  0.00     0.139 C 
HETATM   24  O   UNK N   1      35.605  18.292  -4.507  0.00  0.00    -0.650 OA
BRANCH  23  25
HETATM   25  O   UNK N   1      33.715  17.678  -3.517  0.00  0.00    -0.776 OA
HETATM   26  H   UNK N   1      33.322  16.943  -3.944  0.00  0.00     0.167 HD
ENDBRANCH  23  25
ENDBRANCH  22  23
ENDBRANCH  21  22
ENDBRANCH  20  21
ENDBRANCH  19  20
ENDBRANCH  18  19
ENDBRANCH  17  18
ENDBRANCH  16  17
ENDBRANCH  15  16
ENDBRANCH  14  15
ENDBRANCH   1  14
TORSDOF 22
ENDMDL
