REMARK  0 active torsions:
REMARK  status: ('A' for Active; 'I' for Inactive)
ROOT
HETATM    1  O   UNK N   1      -1.316  -0.290  -0.000  0.00  0.00    -0.247 OA
HETATM    2  C   UNK N   1      -0.096  -0.288   0.000  0.00  0.00     0.319 A 
HETATM    3  N   UNK N   1       0.640   0.861   0.000  0.00  0.00    -0.318 N 
HETATM    4  C   UNK N   1       2.000   0.429  -0.000  0.00  0.00     0.232 A 
HETATM    5  N   UNK N   1       3.359   0.861   0.000  0.00  0.00    -0.318 N 
HETATM    6  C   UNK N   1       4.096  -0.287   0.000  0.00  0.00     0.319 A 
HETATM    7  O   UNK N   1       5.315  -0.288   0.000  0.00  0.00    -0.247 OA
HETATM    8  N   UNK N   1       3.358  -1.435  -0.000  0.00  0.00    -0.318 N 
HETATM    9  C   UNK N   1       2.000  -1.001   0.000  0.00  0.00     0.232 A 
HETATM   10  N   UNK N   1       0.642  -1.436  -0.000  0.00  0.00    -0.318 N 
HETATM   11  H   UNK N   1       0.305   1.786   0.000  0.00  0.00     0.166 HD
HETATM   12  H   UNK N   1       3.693   1.787   0.000  0.00  0.00     0.166 HD
HETATM   13  H   UNK N   1       3.692  -2.361  -0.000  0.00  0.00     0.166 HD
HETATM   14  H   UNK N   1       0.309  -2.362  -0.000  0.00  0.00     0.166 HD
ENDROOT
TORSDOF 0
