REMARK  10 active torsions:
REMARK  status: ('A' for Active; 'I' for Inactive)
REMARK    1  A    between atoms: C_17  and  C_14 
REMARK    2  A    between atoms: C_20  and  C_14 
REMARK    3  A    between atoms: C_19  and  N_29 
REMARK    4  A    between atoms: C_25  and  C_20 
REMARK    5  A    between atoms: C_20  and  N_31 
REMARK    6  A    between atoms: C_26  and  C_23 
REMARK    7  A    between atoms: S_40  and  C_24 
REMARK    8  A    between atoms: C_25  and  O_35 
REMARK    9  A    between atoms: C_26  and  O_36 
REMARK   10  A    between atoms: S_40  and  N_33 
ROOT
HETATM    1  C   UNK N   1      -1.726   2.588  -1.091  0.00  0.00     0.135 C 
HETATM    2  N   UNK N   1      -2.834   1.895  -1.090  0.00  0.00    -0.361 N 
ATOM      3  HN  UNK N   1      -3.144   1.521  -1.987  1.00  0.00     0.162 HD
ENDROOT
BRANCH   1   4
HETATM    4  C   UNK N   1      -1.175   3.210   0.186  0.00  0.00     0.158 C 
BRANCH   4   5
HETATM    5  C   UNK N   1      -0.995   4.675   0.564  0.00  0.00     0.037 C 
BRANCH   5   6
HETATM    6  C   UNK N   1      -0.346   5.631  -0.392  0.00  0.00    -0.020 C 
HETATM    7  C   UNK N   1      -1.294   6.803  -0.605  0.00  0.00     0.009 C 
HETATM    8  C   UNK N   1       0.856   6.157   0.357  0.00  0.00     0.009 C 
ENDBRANCH   5   6
ENDBRANCH   4   5
BRANCH   4   9
HETATM    9  N   UNK N   1      -0.881   2.243   1.210  0.00  0.00    -0.357 N 
HETATM   10  C   UNK N   1       0.104   1.410   1.351  0.00  0.00     0.171 C 
ATOM     11  HN  UNK N   1      -1.571   2.206   1.960  1.00  0.00     0.162 HD
BRANCH  10  12
HETATM   12  C   UNK N   1       1.355   1.395   0.557  0.00  0.00     0.127 A 
HETATM   13  C   UNK N   1       2.273   0.342   0.669  0.00  0.00     0.056 A 
HETATM   14  C   UNK N   1       3.384   0.786   0.011  0.00  0.00     0.001 A 
HETATM   15  C   UNK N   1       4.627   0.177  -0.153  0.00  0.00     0.014 A 
HETATM   16  C   UNK N   1       3.120   2.047  -0.450  0.00  0.00     0.086 A 
HETATM   17  C   UNK N   1       5.631   0.911  -0.806  0.00  0.00     0.001 A 
HETATM   18  C   UNK N   1       5.369   2.221  -1.270  0.00  0.00     0.003 A 
HETATM   19  C   UNK N   1       4.094   2.802  -1.096  0.00  0.00     0.038 A 
HETATM   20  O   UNK N   1       1.890   2.393  -0.121  0.00  0.00    -0.306 OA
ENDBRANCH  10  12
BRANCH  10  21
HETATM   21  O   UNK N   1      -0.004   0.495   2.327  0.00  0.00    -0.344 OA
HETATM   22  H   UNK N   1      -0.596   0.241   3.008  0.00  0.00     0.219 HD
ENDBRANCH  10  21
ENDBRANCH   4   9
ENDBRANCH   1   4
BRANCH   1  23
HETATM   23  O   UNK N   1      -1.068   2.760  -2.253  0.00  0.00    -0.348 OA
HETATM   24  H   UNK N   1      -0.735   2.424  -3.062  0.00  0.00     0.219 HD
ENDBRANCH   1  23
BRANCH   2  25
HETATM   25  C   UNK N   1      -3.677   1.601   0.080  0.00  0.00     0.155 C 
HETATM   26  C   UNK N   1      -3.082   0.527   1.009  0.00  0.00     0.034 C 
HETATM   27  C   UNK N   1      -2.458  -0.712   0.359  0.00  0.00     0.023 C 
HETATM   28  C   UNK N   1      -3.175  -1.228  -0.879  0.00  0.00     0.136 C 
HETATM   29  N   UNK N   1      -4.621  -1.156  -0.736  0.00  0.00    -0.299 N 
HETATM   30  C   UNK N   1      -5.260   0.052  -1.274  0.00  0.00     0.216 C 
HETATM   31  C   UNK N   1      -5.054   1.207  -0.357  0.00  0.00     0.167 C 
HETATM   32  O   UNK N   1      -6.023   1.838   0.039  0.00  0.00    -0.294 OA
BRANCH  29  33
HETATM   33  S   UNK N   1      -5.420  -2.369   0.316  0.00  0.00     0.276 S 
HETATM   34  O   UNK N   1      -6.295  -1.181   0.751  0.00  0.00    -0.199 OA
HETATM   35  O   UNK N   1      -5.767  -2.668  -1.153  0.00  0.00    -0.199 OA
BRANCH  33  36
HETATM   36  C   UNK N   1      -7.115  -3.059   0.043  0.00  0.00     0.149 A 
HETATM   37  C   UNK N   1      -8.211  -2.306  -0.485  0.00  0.00     0.043 A 
HETATM   38  C   UNK N   1      -9.434  -2.927  -0.710  0.00  0.00     0.004 A 
HETATM   39  C   UNK N   1      -9.583  -4.278  -0.414  0.00  0.00     0.017 A 
HETATM   40  C   UNK N   1      -8.506  -4.991   0.116  0.00  0.00     0.089 A 
HETATM   41  N   UNK N   1      -7.312  -4.377   0.330  0.00  0.00    -0.355 N 
ATOM     42  HN  UNK N   1      -6.540  -4.919   0.717  1.00  0.00     0.166 HD
ENDBRANCH  33  36
ENDBRANCH  29  33
ENDBRANCH   2  25
TORSDOF 10
