MODEL 1
REMARK VINA RESULT:      -5.1      0.000      0.000
REMARK  9 active torsions:
REMARK  status: ('A' for Active; 'I' for Inactive)
REMARK    1  A    between atoms: C_3  and  C_2 
REMARK    2  A    between atoms: N_8  and  C_3 
REMARK    3  A    between atoms: C_5  and  C_4 
REMARK    4  A    between atoms: C_6  and  C_4 
REMARK    5  A    between atoms: C_4  and  O_10 
REMARK    6  A    between atoms: C_7  and  C_5 
REMARK    7  A    between atoms: C_5  and  O_11 
REMARK    8  A    between atoms: O_12  and  C_6 
REMARK    9  A    between atoms: O_14  and  C_7 
ROOT
HETATM    1  C   UNK N   1      35.523  15.701  11.610  0.00  0.00     0.231 C 
ENDROOT
BRANCH   1   2
HETATM    2  C   UNK N   1      34.532  15.441  10.450  0.00  0.00     0.252 C 
BRANCH   2   3
HETATM    3  C   UNK N   1      34.487  16.613   9.500  0.00  0.00     0.172 C 
HETATM    4  O   UNK N   1      33.760  16.583   8.517  0.00  0.00    -0.648 OA
BRANCH   3   5
HETATM    5  O   UNK N   1      35.251  17.699   9.724  0.00  0.00    -0.774 OA
HETATM    6  H   UNK N   1      35.728  18.117   9.034  0.00  0.00     0.167 HD
ENDBRANCH   3   5
ENDBRANCH   2   3
BRANCH   2   7
HETATM    7  O   UNK N   1      33.249  15.212  10.959  0.00  0.00    -0.382 OA
HETATM    8  H   UNK N   1      32.585  14.686  10.487  0.00  0.00     0.210 HD
ENDBRANCH   2   7
ENDBRANCH   1   2
BRANCH   1   9
HETATM    9  C   UNK N   1      35.623  14.571  12.612  0.00  0.00     0.144 C 
HETATM   10  N   UNK N   1      36.661  14.446  13.366  0.00  0.00    -0.372 N 
ATOM     11  HN  UNK N   1      37.399  15.147  13.306  1.00  0.00     0.161 HD
BRANCH  10  12
HETATM   12  C   UNK N   1      36.816  13.351  14.288  0.00  0.00     0.121 C 
BRANCH  12  13
HETATM   13  C   UNK N   1      36.578  13.864  15.695  0.00  0.00     0.015 C 
HETATM   14  C   UNK N   1      37.312  15.171  15.901  0.00  0.00     0.006 C 
ENDBRANCH  12  13
ENDBRANCH  10  12
BRANCH   9  15
HETATM   15  O   UNK N   1      34.619  13.669  12.681  0.00  0.00    -0.348 OA
HETATM   16  H   UNK N   1      34.313  13.131  11.977  0.00  0.00     0.219 HD
ENDBRANCH   9  15
ENDBRANCH   1   9
BRANCH   1  17
HETATM   17  O   UNK N   1      36.797  15.950  11.092  0.00  0.00    -0.384 OA
HETATM   18  H   UNK N   1      36.964  16.514  10.321  0.00  0.00     0.210 HD
ENDBRANCH   1  17
TORSDOF 9
ENDMDL
MODEL 2
REMARK VINA RESULT:      -5.1      1.533      2.213
REMARK  9 active torsions:
REMARK  status: ('A' for Active; 'I' for Inactive)
REMARK    1  A    between atoms: C_3  and  C_2 
REMARK    2  A    between atoms: N_8  and  C_3 
REMARK    3  A    between atoms: C_5  and  C_4 
REMARK    4  A    between atoms: C_6  and  C_4 
REMARK    5  A    between atoms: C_4  and  O_10 
REMARK    6  A    between atoms: C_7  and  C_5 
REMARK    7  A    between atoms: C_5  and  O_11 
REMARK    8  A    between atoms: O_12  and  C_6 
REMARK    9  A    between atoms: O_14  and  C_7 
ROOT
HETATM    1  C   UNK N   1      35.401  14.485  11.774  0.00  0.00     0.231 C 
ENDROOT
BRANCH   1   2
HETATM    2  C   UNK N   1      35.717  15.894  11.217  0.00  0.00     0.252 C 
BRANCH   2   3
HETATM    3  C   UNK N   1      34.924  16.175   9.963  0.00  0.00     0.172 C 
HETATM    4  O   UNK N   1      34.893  15.355   9.057  0.00  0.00    -0.648 OA
BRANCH   3   5
HETATM    5  O   UNK N   1      34.250  17.333   9.831  0.00  0.00    -0.774 OA
HETATM    6  H   UNK N   1      34.590  18.046   9.327  0.00  0.00     0.167 HD
ENDBRANCH   3   5
ENDBRANCH   2   3
BRANCH   2   7
HETATM    7  O   UNK N   1      37.083  16.000  10.931  0.00  0.00    -0.382 OA
HETATM    8  H   UNK N   1      37.545  16.852  10.892  0.00  0.00     0.210 HD
ENDBRANCH   2   7
ENDBRANCH   1   2
BRANCH   1   9
HETATM    9  C   UNK N   1      35.908  14.239  13.178  0.00  0.00     0.144 C 
HETATM   10  N   UNK N   1      35.491  13.231  13.864  0.00  0.00    -0.372 N 
ATOM     11  HN  UNK N   1      34.842  12.575  13.429  1.00  0.00     0.161 HD
BRANCH  10  12
HETATM   12  C   UNK N   1      35.907  12.999  15.223  0.00  0.00     0.121 C 
BRANCH  12  13
HETATM   13  C   UNK N   1      34.681  13.007  16.115  0.00  0.00     0.015 C 
HETATM   14  C   UNK N   1      35.076  13.341  17.536  0.00  0.00     0.006 C 
ENDBRANCH  12  13
ENDBRANCH  10  12
BRANCH   9  15
HETATM   15  O   UNK N   1      36.782  15.116  13.720  0.00  0.00    -0.348 OA
HETATM   16  H   UNK N   1      36.609  15.694  14.436  0.00  0.00     0.219 HD
ENDBRANCH   9  15
ENDBRANCH   1   9
BRANCH   1  17
HETATM   17  O   UNK N   1      34.020  14.273  11.756  0.00  0.00    -0.384 OA
HETATM   18  H   UNK N   1      33.579  13.552  12.233  0.00  0.00     0.210 HD
ENDBRANCH   1  17
TORSDOF 9
ENDMDL
MODEL 3
REMARK VINA RESULT:      -5.1      1.808      2.244
REMARK  9 active torsions:
REMARK  status: ('A' for Active; 'I' for Inactive)
REMARK    1  A    between atoms: C_3  and  C_2 
REMARK    2  A    between atoms: N_8  and  C_3 
REMARK    3  A    between atoms: C_5  and  C_4 
REMARK    4  A    between atoms: C_6  and  C_4 
REMARK    5  A    between atoms: C_4  and  O_10 
REMARK    6  A    between atoms: C_7  and  C_5 
REMARK    7  A    between atoms: C_5  and  O_11 
REMARK    8  A    between atoms: O_12  and  C_6 
REMARK    9  A    between atoms: O_14  and  C_7 
ROOT
HETATM    1  C   UNK N   1      35.888  14.344  12.729  0.00  0.00     0.231 C 
ENDROOT
BRANCH   1   2
HETATM    2  C   UNK N   1      35.180  14.732  11.408  0.00  0.00     0.252 C 
BRANCH   2   3
HETATM    3  C   UNK N   1      35.690  16.053  10.885  0.00  0.00     0.172 C 
HETATM    4  O   UNK N   1      36.864  16.178  10.568  0.00  0.00    -0.648 OA
BRANCH   3   5
HETATM    5  O   UNK N   1      34.859  17.105  10.769  0.00  0.00    -0.774 OA
HETATM    6  H   UNK N   1      34.905  17.693  10.041  0.00  0.00     0.167 HD
ENDBRANCH   3   5
ENDBRANCH   2   3
BRANCH   2   7
HETATM    7  O   UNK N   1      33.799  14.821  11.614  0.00  0.00    -0.382 OA
HETATM    8  H   UNK N   1      33.206  15.279  10.997  0.00  0.00     0.210 HD
ENDBRANCH   2   7
ENDBRANCH   1   2
BRANCH   1   9
HETATM    9  C   UNK N   1      35.148  13.315  13.556  0.00  0.00     0.144 C 
HETATM   10  N   UNK N   1      35.287  13.272  14.836  0.00  0.00    -0.372 N 
ATOM     11  HN  UNK N   1      35.874  13.972  15.291  1.00  0.00     0.161 HD
BRANCH  10  12
HETATM   12  C   UNK N   1      34.645  12.271  15.648  0.00  0.00     0.121 C 
BRANCH  12  13
HETATM   13  C   UNK N   1      35.305  12.255  17.013  0.00  0.00     0.015 C 
HETATM   14  C   UNK N   1      35.138  13.600  17.685  0.00  0.00     0.006 C 
ENDBRANCH  12  13
ENDBRANCH  10  12
BRANCH   9  15
HETATM   15  O   UNK N   1      34.362  12.413  12.926  0.00  0.00    -0.348 OA
HETATM   16  H   UNK N   1      34.521  12.039  12.082  0.00  0.00     0.219 HD
ENDBRANCH   9  15
ENDBRANCH   1   9
BRANCH   1  17
HETATM   17  O   UNK N   1      37.166  13.854  12.450  0.00  0.00    -0.384 OA
HETATM   18  H   UNK N   1      37.984  14.273  12.762  0.00  0.00     0.210 HD
ENDBRANCH   1  17
TORSDOF 9
ENDMDL
MODEL 4
REMARK VINA RESULT:      -4.9      2.645      5.679
REMARK  9 active torsions:
REMARK  status: ('A' for Active; 'I' for Inactive)
REMARK    1  A    between atoms: C_3  and  C_2 
REMARK    2  A    between atoms: N_8  and  C_3 
REMARK    3  A    between atoms: C_5  and  C_4 
REMARK    4  A    between atoms: C_6  and  C_4 
REMARK    5  A    between atoms: C_4  and  O_10 
REMARK    6  A    between atoms: C_7  and  C_5 
REMARK    7  A    between atoms: C_5  and  O_11 
REMARK    8  A    between atoms: O_12  and  C_6 
REMARK    9  A    between atoms: O_14  and  C_7 
ROOT
HETATM    1  C   UNK N   1      35.551  15.677  10.332  0.00  0.00     0.231 C 
ENDROOT
BRANCH   1   2
HETATM    2  C   UNK N   1      34.736  15.111  11.520  0.00  0.00     0.252 C 
BRANCH   2   3
HETATM    3  C   UNK N   1      35.218  13.732  11.902  0.00  0.00     0.172 C 
HETATM    4  O   UNK N   1      36.317  13.340  11.538  0.00  0.00    -0.648 OA
BRANCH   3   5
HETATM    5  O   UNK N   1      34.439  12.921  12.642  0.00  0.00    -0.774 OA
HETATM    6  H   UNK N   1      34.788  12.408  13.344  0.00  0.00     0.167 HD
ENDBRANCH   3   5
ENDBRANCH   2   3
BRANCH   2   7
HETATM    7  O   UNK N   1      33.379  15.046  11.183  0.00  0.00    -0.382 OA
HETATM    8  H   UNK N   1      32.897  14.208  11.109  0.00  0.00     0.210 HD
ENDBRANCH   2   7
ENDBRANCH   1   2
BRANCH   1   9
HETATM    9  C   UNK N   1      34.899  16.847   9.628  0.00  0.00     0.144 C 
HETATM   10  N   UNK N   1      33.816  16.689   8.948  0.00  0.00    -0.372 N 
ATOM     11  HN  UNK N   1      33.379  15.767   8.925  1.00  0.00     0.161 HD
BRANCH  10  12
HETATM   12  C   UNK N   1      33.200  17.767   8.218  0.00  0.00     0.121 C 
BRANCH  12  13
HETATM   13  C   UNK N   1      31.752  17.407   7.949  0.00  0.00     0.015 C 
HETATM   14  C   UNK N   1      30.839  18.261   8.802  0.00  0.00     0.006 C 
ENDBRANCH  12  13
ENDBRANCH  10  12
BRANCH   9  15
HETATM   15  O   UNK N   1      35.491  18.060   9.693  0.00  0.00    -0.348 OA
HETATM   16  H   UNK N   1      35.659  18.550  10.474  0.00  0.00     0.219 HD
ENDBRANCH   9  15
ENDBRANCH   1   9
BRANCH   1  17
HETATM   17  O   UNK N   1      36.815  16.073  10.776  0.00  0.00    -0.384 OA
HETATM   18  H   UNK N   1      37.299  15.628  11.489  0.00  0.00     0.210 HD
ENDBRANCH   1  17
TORSDOF 9
ENDMDL
MODEL 5
REMARK VINA RESULT:      -4.9      1.818      2.751
REMARK  9 active torsions:
REMARK  status: ('A' for Active; 'I' for Inactive)
REMARK    1  A    between atoms: C_3  and  C_2 
REMARK    2  A    between atoms: N_8  and  C_3 
REMARK    3  A    between atoms: C_5  and  C_4 
REMARK    4  A    between atoms: C_6  and  C_4 
REMARK    5  A    between atoms: C_4  and  O_10 
REMARK    6  A    between atoms: C_7  and  C_5 
REMARK    7  A    between atoms: C_5  and  O_11 
REMARK    8  A    between atoms: O_12  and  C_6 
REMARK    9  A    between atoms: O_14  and  C_7 
ROOT
HETATM    1  C   UNK N   1      34.785  14.840  11.167  0.00  0.00     0.231 C 
ENDROOT
BRANCH   1   2
HETATM    2  C   UNK N   1      35.411  16.243  10.978  0.00  0.00     0.252 C 
BRANCH   2   3
HETATM    3  C   UNK N   1      34.880  16.912   9.733  0.00  0.00     0.172 C 
HETATM    4  O   UNK N   1      35.245  18.041   9.436  0.00  0.00    -0.648 OA
BRANCH   3   5
HETATM    5  O   UNK N   1      33.997  16.274   8.943  0.00  0.00    -0.774 OA
HETATM    6  H   UNK N   1      33.480  16.733   8.310  0.00  0.00     0.167 HD
ENDBRANCH   3   5
ENDBRANCH   2   3
BRANCH   2   7
HETATM    7  O   UNK N   1      36.803  16.137  10.886  0.00  0.00    -0.382 OA
HETATM    8  H   UNK N   1      37.353  16.820  10.471  0.00  0.00     0.210 HD
ENDBRANCH   2   7
ENDBRANCH   1   2
BRANCH   1   9
HETATM    9  C   UNK N   1      35.326  14.068  12.351  0.00  0.00     0.144 C 
HETATM   10  N   UNK N   1      34.955  12.854  12.573  0.00  0.00    -0.372 N 
ATOM     11  HN  UNK N   1      34.321  12.405  11.913  1.00  0.00     0.161 HD
BRANCH  10  12
HETATM   12  C   UNK N   1      35.405  12.110  13.721  0.00  0.00     0.121 C 
BRANCH  12  13
HETATM   13  C   UNK N   1      34.270  12.031  14.724  0.00  0.00     0.015 C 
HETATM   14  C   UNK N   1      33.559  10.702  14.599  0.00  0.00     0.006 C 
ENDBRANCH  12  13
ENDBRANCH  10  12
BRANCH   9  15
HETATM   15  O   UNK N   1      36.180  14.685  13.197  0.00  0.00    -0.348 OA
HETATM   16  H   UNK N   1      35.973  15.005  14.053  0.00  0.00     0.219 HD
ENDBRANCH   9  15
ENDBRANCH   1   9
BRANCH   1  17
HETATM   17  O   UNK N   1      33.400  14.960  11.310  0.00  0.00    -0.384 OA
HETATM   18  H   UNK N   1      32.972  15.618  11.880  0.00  0.00     0.210 HD
ENDBRANCH   1  17
TORSDOF 9
ENDMDL
MODEL 6
REMARK VINA RESULT:      -4.9      2.426      5.912
REMARK  9 active torsions:
REMARK  status: ('A' for Active; 'I' for Inactive)
REMARK    1  A    between atoms: C_3  and  C_2 
REMARK    2  A    between atoms: N_8  and  C_3 
REMARK    3  A    between atoms: C_5  and  C_4 
REMARK    4  A    between atoms: C_6  and  C_4 
REMARK    5  A    between atoms: C_4  and  O_10 
REMARK    6  A    between atoms: C_7  and  C_5 
REMARK    7  A    between atoms: C_5  and  O_11 
REMARK    8  A    between atoms: O_12  and  C_6 
REMARK    9  A    between atoms: O_14  and  C_7 
ROOT
HETATM    1  C   UNK N   1      34.905  15.713  11.224  0.00  0.00     0.231 C 
ENDROOT
BRANCH   1   2
HETATM    2  C   UNK N   1      36.176  14.869  10.963  0.00  0.00     0.252 C 
BRANCH   2   3
HETATM    3  C   UNK N   1      36.491  13.980  12.143  0.00  0.00     0.172 C 
HETATM    4  O   UNK N   1      35.734  13.938  13.102  0.00  0.00    -0.648 OA
BRANCH   3   5
HETATM    5  O   UNK N   1      37.610  13.233  12.151  0.00  0.00    -0.774 OA
HETATM    6  H   UNK N   1      38.454  13.607  11.992  0.00  0.00     0.167 HD
ENDBRANCH   3   5
ENDBRANCH   2   3
BRANCH   2   7
HETATM    7  O   UNK N   1      37.266  15.709  10.716  0.00  0.00    -0.382 OA
HETATM    8  H   UNK N   1      37.792  15.660   9.903  0.00  0.00     0.210 HD
ENDBRANCH   2   7
ENDBRANCH   1   2
BRANCH   1   9
HETATM    9  C   UNK N   1      34.612  16.747  10.160  0.00  0.00     0.144 C 
HETATM   10  N   UNK N   1      33.545  16.672   9.441  0.00  0.00    -0.372 N 
ATOM     11  HN  UNK N   1      32.877  15.924   9.629  1.00  0.00     0.161 HD
BRANCH  10  12
HETATM   12  C   UNK N   1      33.263  17.605   8.381  0.00  0.00     0.121 C 
BRANCH  12  13
HETATM   13  C   UNK N   1      31.776  17.899   8.375  0.00  0.00     0.015 C 
HETATM   14  C   UNK N   1      31.104  17.155   7.243  0.00  0.00     0.006 C 
ENDBRANCH  12  13
ENDBRANCH  10  12
BRANCH   9  15
HETATM   15  O   UNK N   1      35.507  17.737   9.947  0.00  0.00    -0.348 OA
HETATM   16  H   UNK N   1      35.984  17.888   9.155  0.00  0.00     0.219 HD
ENDBRANCH   9  15
ENDBRANCH   1   9
BRANCH   1  17
HETATM   17  O   UNK N   1      33.797  14.869  11.341  0.00  0.00    -0.384 OA
HETATM   18  H   UNK N   1      33.542  14.219  10.668  0.00  0.00     0.210 HD
ENDBRANCH   1  17
TORSDOF 9
ENDMDL
MODEL 7
REMARK VINA RESULT:      -4.8      1.632      2.451
REMARK  9 active torsions:
REMARK  status: ('A' for Active; 'I' for Inactive)
REMARK    1  A    between atoms: C_3  and  C_2 
REMARK    2  A    between atoms: N_8  and  C_3 
REMARK    3  A    between atoms: C_5  and  C_4 
REMARK    4  A    between atoms: C_6  and  C_4 
REMARK    5  A    between atoms: C_4  and  O_10 
REMARK    6  A    between atoms: C_7  and  C_5 
REMARK    7  A    between atoms: C_5  and  O_11 
REMARK    8  A    between atoms: O_12  and  C_6 
REMARK    9  A    between atoms: O_14  and  C_7 
ROOT
HETATM    1  C   UNK N   1      35.860  15.539  11.590  0.00  0.00     0.231 C 
ENDROOT
BRANCH   1   2
HETATM    2  C   UNK N   1      34.721  15.481  10.543  0.00  0.00     0.252 C 
BRANCH   2   3
HETATM    3  C   UNK N   1      34.512  16.827   9.891  0.00  0.00     0.172 C 
HETATM    4  O   UNK N   1      35.382  17.683   9.951  0.00  0.00    -0.648 OA
BRANCH   3   5
HETATM    5  O   UNK N   1      33.363  17.096   9.244  0.00  0.00    -0.774 OA
HETATM    6  H   UNK N   1      33.340  17.654   8.492  0.00  0.00     0.167 HD
ENDBRANCH   3   5
ENDBRANCH   2   3
BRANCH   2   7
HETATM    7  O   UNK N   1      33.530  15.075  11.154  0.00  0.00    -0.382 OA
HETATM    8  H   UNK N   1      32.664  15.433  10.902  0.00  0.00     0.210 HD
ENDBRANCH   2   7
ENDBRANCH   1   2
BRANCH   1   9
HETATM    9  C   UNK N   1      36.033  14.271  12.397  0.00  0.00     0.144 C 
HETATM   10  N   UNK N   1      37.105  13.564  12.296  0.00  0.00    -0.372 N 
ATOM     11  HN  UNK N   1      37.858  13.895  11.691  1.00  0.00     0.161 HD
BRANCH  10  12
HETATM   12  C   UNK N   1      37.280  12.322  13.004  0.00  0.00     0.121 C 
BRANCH  12  13
HETATM   13  C   UNK N   1      37.101  11.176  12.027  0.00  0.00     0.015 C 
HETATM   14  C   UNK N   1      37.900  11.438  10.769  0.00  0.00     0.006 C 
ENDBRANCH  12  13
ENDBRANCH  10  12
BRANCH   9  15
HETATM   15  O   UNK N   1      35.026  13.868  13.203  0.00  0.00    -0.348 OA
HETATM   16  H   UNK N   1      34.455  13.142  13.050  0.00  0.00     0.219 HD
ENDBRANCH   9  15
ENDBRANCH   1   9
BRANCH   1  17
HETATM   17  O   UNK N   1      37.070  15.828  10.952  0.00  0.00    -0.384 OA
HETATM   18  H   UNK N   1      37.731  16.444  11.305  0.00  0.00     0.210 HD
ENDBRANCH   1  17
TORSDOF 9
ENDMDL
MODEL 8
REMARK VINA RESULT:      -4.7     15.621     17.431
REMARK  9 active torsions:
REMARK  status: ('A' for Active; 'I' for Inactive)
REMARK    1  A    between atoms: C_3  and  C_2 
REMARK    2  A    between atoms: N_8  and  C_3 
REMARK    3  A    between atoms: C_5  and  C_4 
REMARK    4  A    between atoms: C_6  and  C_4 
REMARK    5  A    between atoms: C_4  and  O_10 
REMARK    6  A    between atoms: C_7  and  C_5 
REMARK    7  A    between atoms: C_5  and  O_11 
REMARK    8  A    between atoms: O_12  and  C_6 
REMARK    9  A    between atoms: O_14  and  C_7 
ROOT
HETATM    1  C   UNK N   1      19.807  18.690   2.592  0.00  0.00     0.231 C 
ENDROOT
BRANCH   1   2
HETATM    2  C   UNK N   1      20.182  20.053   3.222  0.00  0.00     0.252 C 
BRANCH   2   3
HETATM    3  C   UNK N   1      21.030  20.873   2.279  0.00  0.00     0.172 C 
HETATM    4  O   UNK N   1      20.854  20.803   1.071  0.00  0.00    -0.648 OA
BRANCH   3   5
HETATM    5  O   UNK N   1      21.992  21.683   2.761  0.00  0.00    -0.774 OA
HETATM    6  H   UNK N   1      22.622  22.088   2.199  0.00  0.00     0.167 HD
ENDBRANCH   3   5
ENDBRANCH   2   3
BRANCH   2   7
HETATM    7  O   UNK N   1      20.883  19.852   4.415  0.00  0.00    -0.382 OA
HETATM    8  H   UNK N   1      20.537  19.310   5.141  0.00  0.00     0.210 HD
ENDBRANCH   2   7
ENDBRANCH   1   2
BRANCH   1   9
HETATM    9  C   UNK N   1      20.004  17.502   3.509  0.00  0.00     0.144 C 
HETATM   10  N   UNK N   1      21.187  17.073   3.789  0.00  0.00    -0.372 N 
ATOM     11  HN  UNK N   1      21.993  17.573   3.414  1.00  0.00     0.161 HD
BRANCH  10  12
HETATM   12  C   UNK N   1      21.409  15.911   4.610  0.00  0.00     0.121 C 
BRANCH  12  13
HETATM   13  C   UNK N   1      22.318  16.297   5.761  0.00  0.00     0.015 C 
HETATM   14  C   UNK N   1      23.396  17.241   5.276  0.00  0.00     0.006 C 
ENDBRANCH  12  13
ENDBRANCH  10  12
BRANCH   9  15
HETATM   15  O   UNK N   1      18.916  16.873   4.005  0.00  0.00    -0.348 OA
HETATM   16  H   UNK N   1      18.639  16.004   3.792  0.00  0.00     0.219 HD
ENDBRANCH   9  15
ENDBRANCH   1   9
BRANCH   1  17
HETATM   17  O   UNK N   1      18.473  18.715   2.177  0.00  0.00    -0.384 OA
HETATM   18  H   UNK N   1      18.022  19.514   1.861  0.00  0.00     0.210 HD
ENDBRANCH   1  17
TORSDOF 9
ENDMDL
MODEL 9
REMARK VINA RESULT:      -4.6      1.512      2.288
REMARK  9 active torsions:
REMARK  status: ('A' for Active; 'I' for Inactive)
REMARK    1  A    between atoms: C_3  and  C_2 
REMARK    2  A    between atoms: N_8  and  C_3 
REMARK    3  A    between atoms: C_5  and  C_4 
REMARK    4  A    between atoms: C_6  and  C_4 
REMARK    5  A    between atoms: C_4  and  O_10 
REMARK    6  A    between atoms: C_7  and  C_5 
REMARK    7  A    between atoms: C_5  and  O_11 
REMARK    8  A    between atoms: O_12  and  C_6 
REMARK    9  A    between atoms: O_14  and  C_7 
ROOT
HETATM    1  C   UNK N   1      35.439  13.530  11.004  0.00  0.00     0.231 C 
ENDROOT
BRANCH   1   2
HETATM    2  C   UNK N   1      34.769  14.858  10.575  0.00  0.00     0.252 C 
BRANCH   2   3
HETATM    3  C   UNK N   1      35.707  16.026  10.764  0.00  0.00     0.172 C 
HETATM    4  O   UNK N   1      35.266  17.133  11.035  0.00  0.00    -0.648 OA
BRANCH   3   5
HETATM    5  O   UNK N   1      37.036  15.858  10.629  0.00  0.00    -0.774 OA
HETATM    6  H   UNK N   1      37.478  15.114  10.986  0.00  0.00     0.167 HD
ENDBRANCH   3   5
ENDBRANCH   2   3
BRANCH   2   7
HETATM    7  O   UNK N   1      33.609  15.073  11.328  0.00  0.00    -0.382 OA
HETATM    8  H   UNK N   1      32.731  14.792  11.028  0.00  0.00     0.210 HD
ENDBRANCH   2   7
ENDBRANCH   1   2
BRANCH   1   9
HETATM    9  C   UNK N   1      36.181  13.600  12.321  0.00  0.00     0.144 C 
HETATM   10  N   UNK N   1      35.553  13.837  13.421  0.00  0.00    -0.372 N 
ATOM     11  HN  UNK N   1      34.538  13.934  13.397  1.00  0.00     0.161 HD
BRANCH  10  12
HETATM   12  C   UNK N   1      36.234  13.968  14.683  0.00  0.00     0.121 C 
BRANCH  12  13
HETATM   13  C   UNK N   1      35.946  12.738  15.522  0.00  0.00     0.015 C 
HETATM   14  C   UNK N   1      34.799  13.013  16.469  0.00  0.00     0.006 C 
ENDBRANCH  12  13
ENDBRANCH  10  12
BRANCH   9  15
HETATM   15  O   UNK N   1      37.524  13.448  12.323  0.00  0.00    -0.348 OA
HETATM   16  H   UNK N   1      37.986  12.639  12.426  0.00  0.00     0.219 HD
ENDBRANCH   9  15
ENDBRANCH   1   9
BRANCH   1  17
HETATM   17  O   UNK N   1      34.473  12.523  11.091  0.00  0.00    -0.384 OA
HETATM   18  H   UNK N   1      33.873  12.289  10.366  0.00  0.00     0.210 HD
ENDBRANCH   1  17
TORSDOF 9
ENDMDL
