MODEL 1
REMARK VINA RESULT:      -5.7      0.000      0.000
REMARK  7 active torsions:
REMARK  status: ('A' for Active; 'I' for Inactive)
REMARK    1  A    between atoms: C_2  and  O_1 
REMARK    2  A    between atoms: C_4  and  N_13 
REMARK    3  A    between atoms: C_6  and  C_7 
REMARK    4  A    between atoms: C_7  and  O_8 
REMARK    5  A    between atoms: O_8  and  P_9 
REMARK    6  A    between atoms: P_9  and  O_10 
REMARK    7  A    between atoms: P_9  and  O_11 
ROOT
HETATM    1  C   UNK N   1      36.078  14.189   6.691  0.00  0.00     0.153 C 
HETATM    2  C   UNK N   1      36.738  13.783   7.980  0.00  0.00     0.088 C 
HETATM    3  C   UNK N   1      35.900  14.607   8.917  0.00  0.00     0.235 C 
HETATM    4  O   UNK N   1      34.574  14.414   8.507  0.00  0.00    -0.356 OA
HETATM    5  C   UNK N   1      34.656  14.579   7.114  0.00  0.00     0.177 C 
ENDROOT
BRANCH   3   6
HETATM    6  N   UNK N   1      36.056  14.367  10.352  0.00  0.00    -0.282 N 
HETATM    7  C   UNK N   1      36.052  13.101  10.864  0.00  0.00     0.104 A 
HETATM    8  C   UNK N   1      36.218  12.891  12.232  0.00  0.00     0.092 A 
HETATM    9  C   UNK N   1      36.397  13.991  13.065  0.00  0.00     0.250 A 
HETATM   10  O   UNK N   1      36.547  13.834  14.261  0.00  0.00    -0.268 OA
HETATM   11  N   UNK N   1      36.409  15.252  12.536  0.00  0.00    -0.275 N 
HETATM   12  C   UNK N   1      36.239  15.446  11.194  0.00  0.00     0.331 A 
HETATM   13  H   UNK N   1      36.539  16.028  13.128  0.00  0.00     0.173 HD
HETATM   14  O   UNK N   1      36.266  16.583  10.745  0.00  0.00    -0.246 OA
ENDBRANCH   3   6
BRANCH   1  15
HETATM   15  O   UNK N   1      36.048  13.114   5.805  0.00  0.00    -0.393 OA
HETATM   16  H   UNK N   1      36.105  13.170   4.837  0.00  0.00     0.210 HD
ENDBRANCH   1  15
BRANCH   5  17
HETATM   17  C   UNK N   1      34.341  16.044   6.814  0.00  0.00     0.215 C 
BRANCH  17  18
HETATM   18  O   UNK N   1      33.226  16.497   7.524  0.00  0.00    -0.294 OA
BRANCH  18  19
HETATM   19  P   UNK N   1      33.578  18.141   7.958  0.00  0.00     0.390 P 
HETATM   20  O   UNK N   1      34.675  17.802   6.912  0.00  0.00    -0.632 OA
BRANCH  19  21
HETATM   21  O   UNK N   1      35.053  18.493   8.799  0.00  0.00    -0.307 OA
HETATM   22  H   UNK N   1      35.894  18.018   8.702  0.00  0.00     0.222 HD
ENDBRANCH  19  21
BRANCH  19  23
HETATM   23  O   UNK N   1      33.743  17.140   9.369  0.00  0.00    -0.307 OA
HETATM   24  H   UNK N   1      33.794  17.184  10.337  0.00  0.00     0.222 HD
ENDBRANCH  19  23
ENDBRANCH  18  19
ENDBRANCH  17  18
ENDBRANCH   5  17
TORSDOF 7
ENDMDL
MODEL 2
REMARK VINA RESULT:      -5.7     13.853     16.283
REMARK  7 active torsions:
REMARK  status: ('A' for Active; 'I' for Inactive)
REMARK    1  A    between atoms: C_2  and  O_1 
REMARK    2  A    between atoms: C_4  and  N_13 
REMARK    3  A    between atoms: C_6  and  C_7 
REMARK    4  A    between atoms: C_7  and  O_8 
REMARK    5  A    between atoms: O_8  and  P_9 
REMARK    6  A    between atoms: P_9  and  O_10 
REMARK    7  A    between atoms: P_9  and  O_11 
ROOT
HETATM    1  C   UNK N   1      22.932  15.866   5.641  0.00  0.00     0.153 C 
HETATM    2  C   UNK N   1      23.148  16.793   4.476  0.00  0.00     0.088 C 
HETATM    3  C   UNK N   1      21.721  17.219   4.276  0.00  0.00     0.235 C 
HETATM    4  O   UNK N   1      21.231  17.513   5.554  0.00  0.00    -0.356 OA
HETATM    5  C   UNK N   1      21.663  16.408   6.309  0.00  0.00     0.177 C 
ENDROOT
BRANCH   3   6
HETATM    6  N   UNK N   1      21.469  18.318   3.342  0.00  0.00    -0.282 N 
HETATM    7  C   UNK N   1      22.150  19.498   3.434  0.00  0.00     0.104 A 
HETATM    8  C   UNK N   1      21.907  20.527   2.526  0.00  0.00     0.092 A 
HETATM    9  C   UNK N   1      20.967  20.329   1.519  0.00  0.00     0.250 A 
HETATM   10  O   UNK N   1      20.740  21.210   0.713  0.00  0.00    -0.268 OA
HETATM   11  N   UNK N   1      20.301  19.138   1.434  0.00  0.00    -0.275 N 
HETATM   12  C   UNK N   1      20.542  18.138   2.334  0.00  0.00     0.331 A 
HETATM   13  H   UNK N   1      19.638  19.000   0.718  0.00  0.00     0.173 HD
HETATM   14  O   UNK N   1      19.941  17.078   2.227  0.00  0.00    -0.246 OA
ENDBRANCH   3   6
BRANCH   1  15
HETATM   15  O   UNK N   1      24.014  15.932   6.517  0.00  0.00    -0.393 OA
HETATM   16  H   UNK N   1      24.863  15.474   6.410  0.00  0.00     0.210 HD
ENDBRANCH   1  15
BRANCH   5  17
HETATM   17  C   UNK N   1      20.524  15.389   6.308  0.00  0.00     0.215 C 
BRANCH  17  18
HETATM   18  O   UNK N   1      19.602  15.631   7.330  0.00  0.00    -0.294 OA
BRANCH  18  19
HETATM   19  P   UNK N   1      20.371  15.106   8.795  0.00  0.00     0.390 P 
HETATM   20  O   UNK N   1      20.245  13.799   7.967  0.00  0.00    -0.632 OA
BRANCH  19  21
HETATM   21  O   UNK N   1      19.514  14.039   9.861  0.00  0.00    -0.307 OA
HETATM   22  H   UNK N   1      19.710  13.892  10.800  0.00  0.00     0.222 HD
ENDBRANCH  19  21
BRANCH  19  23
HETATM   23  O   UNK N   1      18.800  15.743   9.181  0.00  0.00    -0.307 OA
HETATM   24  H   UNK N   1      17.894  15.805   8.840  0.00  0.00     0.222 HD
ENDBRANCH  19  23
ENDBRANCH  18  19
ENDBRANCH  17  18
ENDBRANCH   5  17
TORSDOF 7
ENDMDL
MODEL 3
REMARK VINA RESULT:      -5.7     12.634     13.578
REMARK  7 active torsions:
REMARK  status: ('A' for Active; 'I' for Inactive)
REMARK    1  A    between atoms: C_2  and  O_1 
REMARK    2  A    between atoms: C_4  and  N_13 
REMARK    3  A    between atoms: C_6  and  C_7 
REMARK    4  A    between atoms: C_7  and  O_8 
REMARK    5  A    between atoms: O_8  and  P_9 
REMARK    6  A    between atoms: P_9  and  O_10 
REMARK    7  A    between atoms: P_9  and  O_11 
ROOT
HETATM    1  C   UNK N   1      21.094  12.710   6.262  0.00  0.00     0.153 C 
HETATM    2  C   UNK N   1      21.614  11.898   7.417  0.00  0.00     0.088 C 
HETATM    3  C   UNK N   1      22.133  13.030   8.257  0.00  0.00     0.235 C 
HETATM    4  O   UNK N   1      21.124  14.001   8.248  0.00  0.00    -0.356 OA
HETATM    5  C   UNK N   1      20.781  14.075   6.887  0.00  0.00     0.177 C 
ENDROOT
BRANCH   3   6
HETATM    6  N   UNK N   1      22.562  12.718   9.621  0.00  0.00    -0.282 N 
HETATM    7  C   UNK N   1      21.669  12.313  10.570  0.00  0.00     0.104 A 
HETATM    8  C   UNK N   1      22.099  12.005  11.860  0.00  0.00     0.092 A 
HETATM    9  C   UNK N   1      23.453  12.109  12.161  0.00  0.00     0.250 A 
HETATM   10  O   UNK N   1      23.854  11.844  13.278  0.00  0.00    -0.268 OA
HETATM   11  N   UNK N   1      24.337  12.508  11.197  0.00  0.00    -0.275 N 
HETATM   12  C   UNK N   1      23.904  12.813   9.937  0.00  0.00     0.331 A 
HETATM   13  H   UNK N   1      25.296  12.578  11.413  0.00  0.00     0.173 HD
HETATM   14  O   UNK N   1      24.717  13.155   9.091  0.00  0.00    -0.246 OA
ENDBRANCH   3   6
BRANCH   1  15
HETATM   15  O   UNK N   1      19.937  12.129   5.747  0.00  0.00    -0.393 OA
HETATM   16  H   UNK N   1      19.312  12.549   5.135  0.00  0.00     0.210 HD
ENDBRANCH   1  15
BRANCH   5  17
HETATM   17  C   UNK N   1      21.613  15.200   6.272  0.00  0.00     0.215 C 
BRANCH  17  18
HETATM   18  O   UNK N   1      21.849  16.235   7.181  0.00  0.00    -0.294 OA
BRANCH  18  19
HETATM   19  P   UNK N   1      20.625  17.426   6.870  0.00  0.00     0.390 P 
HETATM   20  O   UNK N   1      21.935  18.134   6.432  0.00  0.00    -0.632 OA
BRANCH  19  21
HETATM   21  O   UNK N   1      20.618  18.889   7.801  0.00  0.00    -0.307 OA
HETATM   22  H   UNK N   1      21.298  19.166   8.435  0.00  0.00     0.222 HD
ENDBRANCH  19  21
BRANCH  19  23
HETATM   23  O   UNK N   1      20.653  17.079   8.573  0.00  0.00    -0.307 OA
HETATM   24  H   UNK N   1      20.858  16.375   9.208  0.00  0.00     0.222 HD
ENDBRANCH  19  23
ENDBRANCH  18  19
ENDBRANCH  17  18
ENDBRANCH   5  17
TORSDOF 7
ENDMDL
MODEL 4
REMARK VINA RESULT:      -5.6      3.166      4.855
REMARK  7 active torsions:
REMARK  status: ('A' for Active; 'I' for Inactive)
REMARK    1  A    between atoms: C_2  and  O_1 
REMARK    2  A    between atoms: C_4  and  N_13 
REMARK    3  A    between atoms: C_6  and  C_7 
REMARK    4  A    between atoms: C_7  and  O_8 
REMARK    5  A    between atoms: O_8  and  P_9 
REMARK    6  A    between atoms: P_9  and  O_10 
REMARK    7  A    between atoms: P_9  and  O_11 
ROOT
HETATM    1  C   UNK N   1      37.091  12.226  12.132  0.00  0.00     0.153 C 
HETATM    2  C   UNK N   1      37.080  12.062  13.628  0.00  0.00     0.088 C 
HETATM    3  C   UNK N   1      36.493  13.398  13.984  0.00  0.00     0.235 C 
HETATM    4  O   UNK N   1      35.413  13.582  13.112  0.00  0.00    -0.356 OA
HETATM    5  C   UNK N   1      35.961  13.229  11.867  0.00  0.00     0.177 C 
ENDROOT
BRANCH   3   6
HETATM    6  N   UNK N   1      36.097  13.612  15.377  0.00  0.00    -0.282 N 
HETATM    7  C   UNK N   1      35.143  12.835  15.971  0.00  0.00     0.104 A 
HETATM    8  C   UNK N   1      34.791  13.044  17.303  0.00  0.00     0.092 A 
HETATM    9  C   UNK N   1      35.431  14.050  18.019  0.00  0.00     0.250 A 
HETATM   10  O   UNK N   1      35.143  14.250  19.184  0.00  0.00    -0.268 OA
HETATM   11  N   UNK N   1      36.390  14.813  17.413  0.00  0.00    -0.275 N 
HETATM   12  C   UNK N   1      36.724  14.604  16.105  0.00  0.00     0.331 A 
HETATM   13  H   UNK N   1      36.844  15.523  17.925  0.00  0.00     0.173 HD
HETATM   14  O   UNK N   1      37.594  15.293  15.591  0.00  0.00    -0.246 OA
ENDBRANCH   3   6
BRANCH   1  15
HETATM   15  O   UNK N   1      36.821  11.008  11.512  0.00  0.00    -0.393 OA
HETATM   16  H   UNK N   1      36.588  10.179  11.960  0.00  0.00     0.210 HD
ENDBRANCH   1  15
BRANCH   5  17
HETATM   17  C   UNK N   1      36.467  14.515  11.215  0.00  0.00     0.215 C 
BRANCH  17  18
HETATM   18  O   UNK N   1      35.592  15.585  11.417  0.00  0.00    -0.294 OA
BRANCH  18  19
HETATM   19  P   UNK N   1      35.043  16.052   9.838  0.00  0.00     0.390 P 
HETATM   20  O   UNK N   1      35.684  17.352  10.395  0.00  0.00    -0.632 OA
BRANCH  19  21
HETATM   21  O   UNK N   1      33.766  17.217   9.700  0.00  0.00    -0.307 OA
HETATM   22  H   UNK N   1      33.003  17.302  10.294  0.00  0.00     0.222 HD
ENDBRANCH  19  21
BRANCH  19  23
HETATM   23  O   UNK N   1      33.669  15.585  10.795  0.00  0.00    -0.307 OA
HETATM   24  H   UNK N   1      33.410  15.356  11.702  0.00  0.00     0.222 HD
ENDBRANCH  19  23
ENDBRANCH  18  19
ENDBRANCH  17  18
ENDBRANCH   5  17
TORSDOF 7
ENDMDL
MODEL 5
REMARK VINA RESULT:      -5.6      3.118      3.831
REMARK  7 active torsions:
REMARK  status: ('A' for Active; 'I' for Inactive)
REMARK    1  A    between atoms: C_2  and  O_1 
REMARK    2  A    between atoms: C_4  and  N_13 
REMARK    3  A    between atoms: C_6  and  C_7 
REMARK    4  A    between atoms: C_7  and  O_8 
REMARK    5  A    between atoms: O_8  and  P_9 
REMARK    6  A    between atoms: P_9  and  O_10 
REMARK    7  A    between atoms: P_9  and  O_11 
ROOT
HETATM    1  C   UNK N   1      33.148  17.593   7.060  0.00  0.00     0.153 C 
HETATM    2  C   UNK N   1      34.365  17.004   7.721  0.00  0.00     0.088 C 
HETATM    3  C   UNK N   1      33.734  16.630   9.033  0.00  0.00     0.235 C 
HETATM    4  O   UNK N   1      32.522  16.009   8.706  0.00  0.00    -0.356 OA
HETATM    5  C   UNK N   1      31.977  16.882   7.750  0.00  0.00     0.177 C 
ENDROOT
BRANCH   3   6
HETATM    6  N   UNK N   1      34.524  15.811   9.953  0.00  0.00    -0.282 N 
HETATM    7  C   UNK N   1      34.250  14.486  10.136  0.00  0.00     0.104 A 
HETATM    8  C   UNK N   1      35.024  13.718  11.005  0.00  0.00     0.092 A 
HETATM    9  C   UNK N   1      36.083  14.321  11.675  0.00  0.00     0.250 A 
HETATM   10  O   UNK N   1      36.775  13.672  12.436  0.00  0.00    -0.268 OA
HETATM   11  N   UNK N   1      36.351  15.647  11.473  0.00  0.00    -0.275 N 
HETATM   12  C   UNK N   1      35.583  16.392  10.624  0.00  0.00     0.331 A 
HETATM   13  H   UNK N   1      37.104  16.070  11.947  0.00  0.00     0.173 HD
HETATM   14  O   UNK N   1      35.851  17.572  10.452  0.00  0.00    -0.246 OA
ENDBRANCH   3   6
BRANCH   1  15
HETATM   15  O   UNK N   1      33.158  17.312   5.696  0.00  0.00    -0.393 OA
HETATM   16  H   UNK N   1      32.439  16.893   5.194  0.00  0.00     0.210 HD
ENDBRANCH   1  15
BRANCH   5  17
HETATM   17  C   UNK N   1      31.064  17.855   8.495  0.00  0.00     0.215 C 
BRANCH  17  18
HETATM   18  O   UNK N   1      30.084  17.191   9.237  0.00  0.00    -0.294 OA
BRANCH  18  19
HETATM   19  P   UNK N   1      28.577  17.539   8.449  0.00  0.00     0.390 P 
HETATM   20  O   UNK N   1      29.246  18.934   8.579  0.00  0.00    -0.632 OA
BRANCH  19  21
HETATM   21  O   UNK N   1      27.384  18.477   9.289  0.00  0.00    -0.307 OA
HETATM   22  H   UNK N   1      26.879  19.220   8.922  0.00  0.00     0.222 HD
ENDBRANCH  19  21
BRANCH  19  23
HETATM   23  O   UNK N   1      28.249  16.866  10.018  0.00  0.00    -0.307 OA
HETATM   24  H   UNK N   1      28.153  16.020  10.483  0.00  0.00     0.222 HD
ENDBRANCH  19  23
ENDBRANCH  18  19
ENDBRANCH  17  18
ENDBRANCH   5  17
TORSDOF 7
ENDMDL
MODEL 6
REMARK VINA RESULT:      -5.4      2.352      3.525
REMARK  7 active torsions:
REMARK  status: ('A' for Active; 'I' for Inactive)
REMARK    1  A    between atoms: C_2  and  O_1 
REMARK    2  A    between atoms: C_4  and  N_13 
REMARK    3  A    between atoms: C_6  and  C_7 
REMARK    4  A    between atoms: C_7  and  O_8 
REMARK    5  A    between atoms: O_8  and  P_9 
REMARK    6  A    between atoms: P_9  and  O_10 
REMARK    7  A    between atoms: P_9  and  O_11 
ROOT
HETATM    1  C   UNK N   1      36.350  14.105  10.464  0.00  0.00     0.153 C 
HETATM    2  C   UNK N   1      36.630  13.285  11.694  0.00  0.00     0.088 C 
HETATM    3  C   UNK N   1      35.752  14.035  12.654  0.00  0.00     0.235 C 
HETATM    4  O   UNK N   1      34.538  14.229  11.985  0.00  0.00    -0.356 OA
HETATM    5  C   UNK N   1      34.953  14.684  10.721  0.00  0.00     0.177 C 
ENDROOT
BRANCH   3   6
HETATM    6  N   UNK N   1      35.544  13.449  13.979  0.00  0.00    -0.282 N 
HETATM    7  C   UNK N   1      34.716  12.378  14.159  0.00  0.00     0.104 A 
HETATM    8  C   UNK N   1      34.543  11.823  15.425  0.00  0.00     0.092 A 
HETATM    9  C   UNK N   1      35.233  12.372  16.501  0.00  0.00     0.250 A 
HETATM   10  O   UNK N   1      35.101  11.904  17.616  0.00  0.00    -0.268 OA
HETATM   11  N   UNK N   1      36.066  13.439  16.304  0.00  0.00    -0.275 N 
HETATM   12  C   UNK N   1      36.224  13.978  15.059  0.00  0.00     0.331 A 
HETATM   13  H   UNK N   1      36.556  13.823  17.068  0.00  0.00     0.173 HD
HETATM   14  O   UNK N   1      36.984  14.924  14.908  0.00  0.00    -0.246 OA
ENDBRANCH   3   6
BRANCH   1  15
HETATM   15  O   UNK N   1      36.342  13.290   9.333  0.00  0.00    -0.393 OA
HETATM   16  H   UNK N   1      37.083  12.752   9.013  0.00  0.00     0.210 HD
ENDBRANCH   1  15
BRANCH   5  17
HETATM   17  C   UNK N   1      34.957  16.211  10.770  0.00  0.00     0.215 C 
BRANCH  17  18
HETATM   18  O   UNK N   1      35.536  16.772   9.629  0.00  0.00    -0.294 OA
BRANCH  18  19
HETATM   19  P   UNK N   1      34.214  17.347   8.662  0.00  0.00     0.390 P 
HETATM   20  O   UNK N   1      34.883  16.276   7.758  0.00  0.00    -0.632 OA
BRANCH  19  21
HETATM   21  O   UNK N   1      34.555  18.216   7.200  0.00  0.00    -0.307 OA
HETATM   22  H   UNK N   1      35.127  18.996   7.120  0.00  0.00     0.222 HD
ENDBRANCH  19  21
BRANCH  19  23
HETATM   23  O   UNK N   1      35.306  18.666   8.963  0.00  0.00    -0.307 OA
HETATM   24  H   UNK N   1      35.929  19.260   8.518  0.00  0.00     0.222 HD
ENDBRANCH  19  23
ENDBRANCH  18  19
ENDBRANCH  17  18
ENDBRANCH   5  17
TORSDOF 7
ENDMDL
MODEL 7
REMARK VINA RESULT:      -5.3      3.210      6.380
REMARK  7 active torsions:
REMARK  status: ('A' for Active; 'I' for Inactive)
REMARK    1  A    between atoms: C_2  and  O_1 
REMARK    2  A    between atoms: C_4  and  N_13 
REMARK    3  A    between atoms: C_6  and  C_7 
REMARK    4  A    between atoms: C_7  and  O_8 
REMARK    5  A    between atoms: O_8  and  P_9 
REMARK    6  A    between atoms: P_9  and  O_10 
REMARK    7  A    between atoms: P_9  and  O_11 
ROOT
HETATM    1  C   UNK N   1      36.741  14.626  10.337  0.00  0.00     0.153 C 
HETATM    2  C   UNK N   1      35.886  14.940   9.140  0.00  0.00     0.088 C 
HETATM    3  C   UNK N   1      34.624  15.304   9.869  0.00  0.00     0.235 C 
HETATM    4  O   UNK N   1      35.020  16.149  10.913  0.00  0.00    -0.356 OA
HETATM    5  C   UNK N   1      36.119  15.466  11.460  0.00  0.00     0.177 C 
ENDROOT
BRANCH   3   6
HETATM    6  N   UNK N   1      33.537  15.895   9.086  0.00  0.00    -0.282 N 
HETATM    7  C   UNK N   1      33.531  17.223   8.772  0.00  0.00     0.104 A 
HETATM    8  C   UNK N   1      32.496  17.765   8.012  0.00  0.00     0.092 A 
HETATM    9  C   UNK N   1      31.475  16.929   7.571  0.00  0.00     0.250 A 
HETATM   10  O   UNK N   1      30.562  17.376   6.904  0.00  0.00    -0.268 OA
HETATM   11  N   UNK N   1      31.501  15.598   7.886  0.00  0.00    -0.275 N 
HETATM   12  C   UNK N   1      32.517  15.079   8.636  0.00  0.00     0.331 A 
HETATM   13  H   UNK N   1      30.778  15.008   7.569  0.00  0.00     0.173 HD
HETATM   14  O   UNK N   1      32.523  13.883   8.893  0.00  0.00    -0.246 OA
ENDBRANCH   3   6
BRANCH   1  15
HETATM   15  O   UNK N   1      38.058  15.017  10.105  0.00  0.00    -0.393 OA
HETATM   16  H   UNK N   1      38.854  14.543  10.397  0.00  0.00     0.210 HD
ENDBRANCH   1  15
BRANCH   5  17
HETATM   17  C   UNK N   1      35.590  14.605  12.606  0.00  0.00     0.215 C 
BRANCH  17  18
HETATM   18  O   UNK N   1      36.410  14.672  13.736  0.00  0.00    -0.294 OA
BRANCH  18  19
HETATM   19  P   UNK N   1      36.479  13.057  14.367  0.00  0.00     0.390 P 
HETATM   20  O   UNK N   1      34.981  13.436  14.512  0.00  0.00    -0.632 OA
BRANCH  19  21
HETATM   21  O   UNK N   1      36.164  12.796  16.053  0.00  0.00    -0.307 OA
HETATM   22  H   UNK N   1      36.807  12.491  16.713  0.00  0.00     0.222 HD
ENDBRANCH  19  21
BRANCH  19  23
HETATM   23  O   UNK N   1      37.474  14.088  15.352  0.00  0.00    -0.307 OA
HETATM   24  H   UNK N   1      38.032  14.083  16.144  0.00  0.00     0.222 HD
ENDBRANCH  19  23
ENDBRANCH  18  19
ENDBRANCH  17  18
ENDBRANCH   5  17
TORSDOF 7
ENDMDL
MODEL 8
REMARK VINA RESULT:      -5.2      3.656      6.662
REMARK  7 active torsions:
REMARK  status: ('A' for Active; 'I' for Inactive)
REMARK    1  A    between atoms: C_2  and  O_1 
REMARK    2  A    between atoms: C_4  and  N_13 
REMARK    3  A    between atoms: C_6  and  C_7 
REMARK    4  A    between atoms: C_7  and  O_8 
REMARK    5  A    between atoms: O_8  and  P_9 
REMARK    6  A    between atoms: P_9  and  O_10 
REMARK    7  A    between atoms: P_9  and  O_11 
ROOT
HETATM    1  C   UNK N   1      34.673  17.815   8.012  0.00  0.00     0.153 C 
HETATM    2  C   UNK N   1      33.629  17.671   6.939  0.00  0.00     0.088 C 
HETATM    3  C   UNK N   1      33.000  16.396   7.423  0.00  0.00     0.235 C 
HETATM    4  O   UNK N   1      32.826  16.560   8.803  0.00  0.00    -0.356 OA
HETATM    5  C   UNK N   1      34.070  17.071   9.210  0.00  0.00     0.177 C 
ENDROOT
BRANCH   3   6
HETATM    6  N   UNK N   1      31.760  15.966   6.775  0.00  0.00    -0.282 N 
HETATM    7  C   UNK N   1      30.719  16.830   6.593  0.00  0.00     0.104 A 
HETATM    8  C   UNK N   1      29.551  16.406   5.960  0.00  0.00     0.092 A 
HETATM    9  C   UNK N   1      29.468  15.093   5.510  0.00  0.00     0.250 A 
HETATM   10  O   UNK N   1      28.462  14.700   4.952  0.00  0.00    -0.268 OA
HETATM   11  N   UNK N   1      30.523  14.242   5.692  0.00  0.00    -0.275 N 
HETATM   12  C   UNK N   1      31.661  14.666   6.318  0.00  0.00     0.331 A 
HETATM   13  H   UNK N   1      30.461  13.313   5.368  0.00  0.00     0.173 HD
HETATM   14  O   UNK N   1      32.594  13.888   6.457  0.00  0.00    -0.246 OA
ENDBRANCH   3   6
BRANCH   1  15
HETATM   15  O   UNK N   1      34.868  19.160   8.318  0.00  0.00    -0.393 OA
HETATM   16  H   UNK N   1      34.902  19.891   7.680  0.00  0.00     0.210 HD
ENDBRANCH   1  15
BRANCH   5  17
HETATM   17  C   UNK N   1      34.925  15.882   9.646  0.00  0.00     0.215 C 
BRANCH  17  18
HETATM   18  O   UNK N   1      34.836  15.647  11.021  0.00  0.00    -0.294 OA
BRANCH  18  19
HETATM   19  P   UNK N   1      35.892  14.306  11.341  0.00  0.00     0.390 P 
HETATM   20  O   UNK N   1      34.843  14.220  12.483  0.00  0.00    -0.632 OA
BRANCH  19  21
HETATM   21  O   UNK N   1      36.864  14.324  12.777  0.00  0.00    -0.307 OA
HETATM   22  H   UNK N   1      37.354  13.571  13.145  0.00  0.00     0.222 HD
ENDBRANCH  19  21
BRANCH  19  23
HETATM   23  O   UNK N   1      36.805  15.781  11.456  0.00  0.00    -0.307 OA
HETATM   24  H   UNK N   1      37.690  16.147  11.301  0.00  0.00     0.222 HD
ENDBRANCH  19  23
ENDBRANCH  18  19
ENDBRANCH  17  18
ENDBRANCH   5  17
TORSDOF 7
ENDMDL
MODEL 9
REMARK VINA RESULT:      -5.2      6.404      9.052
REMARK  7 active torsions:
REMARK  status: ('A' for Active; 'I' for Inactive)
REMARK    1  A    between atoms: C_2  and  O_1 
REMARK    2  A    between atoms: C_4  and  N_13 
REMARK    3  A    between atoms: C_6  and  C_7 
REMARK    4  A    between atoms: C_7  and  O_8 
REMARK    5  A    between atoms: O_8  and  P_9 
REMARK    6  A    between atoms: P_9  and  O_10 
REMARK    7  A    between atoms: P_9  and  O_11 
ROOT
HETATM    1  C   UNK N   1      29.582  17.726   9.678  0.00  0.00     0.153 C 
HETATM    2  C   UNK N   1      28.284  18.007   8.972  0.00  0.00     0.088 C 
HETATM    3  C   UNK N   1      28.828  18.165   7.581  0.00  0.00     0.235 C 
HETATM    4  O   UNK N   1      29.716  17.098   7.398  0.00  0.00    -0.356 OA
HETATM    5  C   UNK N   1      30.469  17.118   8.585  0.00  0.00     0.177 C 
ENDROOT
BRANCH   3   6
HETATM    6  N   UNK N   1      27.863  18.252   6.484  0.00  0.00    -0.282 N 
HETATM    7  C   UNK N   1      27.400  17.131   5.857  0.00  0.00     0.104 A 
HETATM    8  C   UNK N   1      26.469  17.233   4.824  0.00  0.00     0.092 A 
HETATM    9  C   UNK N   1      26.014  18.493   4.449  0.00  0.00     0.250 A 
HETATM   10  O   UNK N   1      25.200  18.608   3.553  0.00  0.00    -0.268 OA
HETATM   11  N   UNK N   1      26.482  19.606   5.093  0.00  0.00    -0.275 N 
HETATM   12  C   UNK N   1      27.398  19.495   6.100  0.00  0.00     0.331 A 
HETATM   13  H   UNK N   1      26.155  20.496   4.826  0.00  0.00     0.173 HD
HETATM   14  O   UNK N   1      27.790  20.505   6.667  0.00  0.00    -0.246 OA
ENDBRANCH   3   6
BRANCH   1  15
HETATM   15  O   UNK N   1      29.381  16.811  10.710  0.00  0.00    -0.393 OA
HETATM   16  H   UNK N   1      29.003  15.922  10.619  0.00  0.00     0.210 HD
ENDBRANCH   1  15
BRANCH   5  17
HETATM   17  C   UNK N   1      31.716  17.959   8.313  0.00  0.00     0.215 C 
BRANCH  17  18
HETATM   18  O   UNK N   1      32.528  17.392   7.328  0.00  0.00    -0.294 OA
BRANCH  18  19
HETATM   19  P   UNK N   1      34.142  17.426   7.968  0.00  0.00     0.390 P 
HETATM   20  O   UNK N   1      33.376  18.434   8.867  0.00  0.00    -0.632 OA
BRANCH  19  21
HETATM   21  O   UNK N   1      35.075  18.880   7.821  0.00  0.00    -0.307 OA
HETATM   22  H   UNK N   1      34.900  19.612   7.208  0.00  0.00     0.222 HD
ENDBRANCH  19  21
BRANCH  19  23
HETATM   23  O   UNK N   1      34.178  17.978   6.319  0.00  0.00    -0.307 OA
HETATM   24  H   UNK N   1      33.657  18.468   5.665  0.00  0.00     0.222 HD
ENDBRANCH  19  23
ENDBRANCH  18  19
ENDBRANCH  17  18
ENDBRANCH   5  17
TORSDOF 7
ENDMDL
