MODEL 1
REMARK VINA RESULT:      -7.8      0.000      0.000
REMARK  26 active torsions:
REMARK  status: ('A' for Active; 'I' for Inactive)
REMARK    1  A    between atoms: C_15  and  C_14 
REMARK    2  A    between atoms: C_23  and  C_14 
REMARK    3  A    between atoms: C_26  and  C_15 
REMARK    4  A    between atoms: C_18  and  C_16 
REMARK    5  A    between atoms: C_24  and  C_16 
REMARK    6  A    between atoms: C_19  and  C_17 
REMARK    7  A    between atoms: C_25  and  C_17 
REMARK    8  A    between atoms: C_28  and  C_20 
REMARK    9  A    between atoms: C_31  and  C_21 
REMARK   10  A    between atoms: C_32  and  C_22 
REMARK   11  A    between atoms: C_29  and  C_23 
REMARK   12  A    between atoms: C_23  and  N_39 
REMARK   13  A    between atoms: C_27  and  C_24 
REMARK   14  A    between atoms: C_24  and  N_41 
REMARK   15  A    between atoms: C_30  and  C_25 
REMARK   16  A    between atoms: C_25  and  N_43 
REMARK   17  A    between atoms: O_46  and  C_26 
REMARK   18  A    between atoms: O_47  and  C_27 
REMARK   19  A    between atoms: C_28  and  O_48 
REMARK   20  A    between atoms: C_29  and  O_49 
REMARK   21  A    between atoms: C_30  and  O_50 
REMARK   22  A    between atoms: P_57  and  C_31 
REMARK   23  A    between atoms: P_58  and  C_32 
REMARK   24  A    between atoms: P_57  and  O_51 
REMARK   25  A    between atoms: P_58  and  O_54 
REMARK   26  A    between atoms: P_58  and  O_55 
ROOT
HETATM    1  O   UNK N   1      34.070  17.185   9.754  0.00  0.00    -0.325 OA
HETATM    2  O   UNK N   1      33.826  18.283   7.423  0.00  0.00    -0.649 OA
HETATM    3  P   UNK N   1      33.148  17.184   8.280  0.00  0.00     0.315 P 
HETATM    4  H   UNK N   1      34.567  17.227  10.586  0.00  0.00     0.220 HD
ENDROOT
BRANCH   3   5
HETATM    5  C   UNK N   1      31.323  17.551   8.515  0.00  0.00     0.364 C 
HETATM    6  F   UNK N   1      31.140  18.868   8.888  0.00  0.00    -0.187 F 
HETATM    7  F   UNK N   1      30.881  16.730   9.540  0.00  0.00    -0.187 F 
BRANCH   5   8
HETATM    8  C   UNK N   1      30.503  17.194   7.305  0.00  0.00     0.025 C 
HETATM    9  C   UNK N   1      29.124  16.980   7.424  0.00  0.00     0.014 C 
HETATM   10  C   UNK N   1      28.298  17.092   6.320  0.00  0.00     0.008 C 
HETATM   11  C   UNK N   1      28.847  17.391   5.083  0.00  0.00    -0.056 C 
HETATM   12  C   UNK N   1      30.239  17.443   4.918  0.00  0.00     0.008 C 
HETATM   13  C   UNK N   1      31.070  17.351   6.032  0.00  0.00     0.014 C 
BRANCH  11  14
HETATM   14  C   UNK N   1      27.939  17.993   4.074  0.00  0.00     0.072 C 
BRANCH  14  15
HETATM   15  C   UNK N   1      26.609  18.473   4.705  0.00  0.00     0.161 C 
BRANCH  15  16
HETATM   16  C   UNK N   1      26.174  19.927   4.506  0.00  0.00     0.132 C 
HETATM   17  N   UNK N   1      26.846  20.870   5.058  0.00  0.00    -0.382 N 
HETATM   18  H   UNK N   1      26.782  21.805   4.757  0.00  0.00     0.158 HD
ATOM     19  HN  UNK N   1      27.469  20.643   5.833  1.00  0.00     0.158 HD
BRANCH  16  20
HETATM   20  O   UNK N   1      25.114  20.246   3.739  0.00  0.00    -0.348 OA
HETATM   21  H   UNK N   1      24.432  19.633   3.550  0.00  0.00     0.219 HD
ENDBRANCH  16  20
ENDBRANCH  15  16
BRANCH  15  22
HETATM   22  N   UNK N   1      25.622  17.498   4.316  0.00  0.00    -0.360 N 
HETATM   23  C   UNK N   1      24.397  17.333   4.692  0.00  0.00     0.135 C 
ATOM     24  HN  UNK N   1      25.947  16.820   3.626  1.00  0.00     0.162 HD
BRANCH  23  25
HETATM   25  C   UNK N   1      23.672  16.190   4.084  0.00  0.00     0.162 C 
BRANCH  25  26
HETATM   26  C   UNK N   1      24.506  15.154   3.254  0.00  0.00     0.072 C 
BRANCH  26  27
HETATM   27  C   UNK N   1      24.326  13.877   4.004  0.00  0.00    -0.056 C 
HETATM   28  C   UNK N   1      23.170  13.143   3.711  0.00  0.00     0.008 C 
HETATM   29  C   UNK N   1      22.452  12.543   4.738  0.00  0.00     0.014 C 
HETATM   30  C   UNK N   1      22.885  12.682   6.062  0.00  0.00     0.025 C 
HETATM   31  C   UNK N   1      24.120  13.278   6.333  0.00  0.00     0.014 C 
HETATM   32  C   UNK N   1      24.837  13.879   5.307  0.00  0.00     0.008 C 
BRANCH  30  33
HETATM   33  C   UNK N   1      21.965  12.328   7.185  0.00  0.00     0.364 C 
HETATM   34  F   UNK N   1      22.548  11.318   7.934  0.00  0.00    -0.187 F 
HETATM   35  F   UNK N   1      20.754  11.865   6.700  0.00  0.00    -0.187 F 
BRANCH  33  36
HETATM   36  P   UNK N   1      21.666  13.793   8.266  0.00  0.00     0.315 P 
HETATM   37  O   UNK N   1      22.633  13.763   9.479  0.00  0.00    -0.649 OA
BRANCH  36  38
HETATM   38  O   UNK N   1      21.954  15.329   7.511  0.00  0.00    -0.325 OA
HETATM   39  H   UNK N   1      21.353  16.084   7.423  0.00  0.00     0.220 HD
ENDBRANCH  36  38
BRANCH  36  40
HETATM   40  O   UNK N   1      20.081  13.838   8.965  0.00  0.00    -0.325 OA
HETATM   41  H   UNK N   1      19.721  14.212   9.785  0.00  0.00     0.220 HD
ENDBRANCH  36  40
ENDBRANCH  33  36
ENDBRANCH  30  33
ENDBRANCH  26  27
ENDBRANCH  25  26
BRANCH  25  42
HETATM   42  N   UNK N   1      22.483  16.663   3.414  0.00  0.00    -0.360 N 
HETATM   43  C   UNK N   1      21.276  16.405   3.772  0.00  0.00     0.135 C 
ATOM     44  HN  UNK N   1      22.612  17.251   2.589  1.00  0.00     0.162 HD
BRANCH  43  45
HETATM   45  C   UNK N   1      20.127  16.933   2.961  0.00  0.00     0.158 C 
BRANCH  45  46
HETATM   46  C   UNK N   1      20.526  18.118   2.062  0.00  0.00     0.044 C 
BRANCH  46  47
HETATM   47  C   UNK N   1      20.142  19.476   2.647  0.00  0.00     0.112 C 
BRANCH  47  48
HETATM   48  C   UNK N   1      21.351  20.298   2.984  0.00  0.00     0.139 C 
HETATM   49  O   UNK N   1      22.310  19.792   3.543  0.00  0.00    -0.650 OA
BRANCH  48  50
HETATM   50  O   UNK N   1      21.364  21.612   2.690  0.00  0.00    -0.776 OA
HETATM   51  H   UNK N   1      20.671  22.241   2.635  0.00  0.00     0.167 HD
ENDBRANCH  48  50
ENDBRANCH  47  48
ENDBRANCH  46  47
ENDBRANCH  45  46
BRANCH  45  52
HETATM   52  N   UNK N   1      19.553  15.830   2.217  0.00  0.00    -0.358 N 
HETATM   53  C   UNK N   1      20.134  15.216   1.245  0.00  0.00     0.146 C 
ATOM     54  HN  UNK N   1      18.619  15.518   2.482  1.00  0.00     0.162 HD
BRANCH  53  55
HETATM   55  C   UNK N   1      19.555  13.962   0.744  0.00  0.00     0.014 A 
HETATM   56  C   UNK N   1      18.209  13.927   0.340  0.00  0.00     0.016 A 
HETATM   57  C   UNK N   1      17.617  12.719  -0.030  0.00  0.00     0.001 A 
HETATM   58  C   UNK N   1      18.357  11.536   0.022  0.00  0.00     0.000 A 
HETATM   59  C   UNK N   1      19.695  11.563   0.428  0.00  0.00     0.001 A 
HETATM   60  C   UNK N   1      20.292  12.774   0.786  0.00  0.00     0.016 A 
ENDBRANCH  53  55
BRANCH  53  61
HETATM   61  O   UNK N   1      21.343  15.626   0.784  0.00  0.00    -0.346 OA
HETATM   62  H   UNK N   1      22.177  15.202   0.730  0.00  0.00     0.219 HD
ENDBRANCH  53  61
ENDBRANCH  45  52
ENDBRANCH  43  45
BRANCH  43  63
HETATM   63  O   UNK N   1      21.022  15.656   4.866  0.00  0.00    -0.348 OA
HETATM   64  H   UNK N   1      20.847  15.600   5.785  0.00  0.00     0.219 HD
ENDBRANCH  43  63
ENDBRANCH  25  42
ENDBRANCH  23  25
BRANCH  23  65
HETATM   65  O   UNK N   1      23.806  18.126   5.609  0.00  0.00    -0.348 OA
HETATM   66  H   UNK N   1      24.000  18.130   6.526  0.00  0.00     0.219 HD
ENDBRANCH  23  65
ENDBRANCH  15  22
ENDBRANCH  14  15
ENDBRANCH  11  14
ENDBRANCH   5   8
ENDBRANCH   3   5
BRANCH   3  67
HETATM   67  O   UNK N   1      33.513  15.699   7.462  0.00  0.00    -0.325 OA
HETATM   68  H   UNK N   1      34.188  15.075   7.771  0.00  0.00     0.220 HD
ENDBRANCH   3  67
TORSDOF 26
ENDMDL
MODEL 2
REMARK VINA RESULT:      -7.7      3.703      8.179
REMARK  26 active torsions:
REMARK  status: ('A' for Active; 'I' for Inactive)
REMARK    1  A    between atoms: C_15  and  C_14 
REMARK    2  A    between atoms: C_23  and  C_14 
REMARK    3  A    between atoms: C_26  and  C_15 
REMARK    4  A    between atoms: C_18  and  C_16 
REMARK    5  A    between atoms: C_24  and  C_16 
REMARK    6  A    between atoms: C_19  and  C_17 
REMARK    7  A    between atoms: C_25  and  C_17 
REMARK    8  A    between atoms: C_28  and  C_20 
REMARK    9  A    between atoms: C_31  and  C_21 
REMARK   10  A    between atoms: C_32  and  C_22 
REMARK   11  A    between atoms: C_29  and  C_23 
REMARK   12  A    between atoms: C_23  and  N_39 
REMARK   13  A    between atoms: C_27  and  C_24 
REMARK   14  A    between atoms: C_24  and  N_41 
REMARK   15  A    between atoms: C_30  and  C_25 
REMARK   16  A    between atoms: C_25  and  N_43 
REMARK   17  A    between atoms: O_46  and  C_26 
REMARK   18  A    between atoms: O_47  and  C_27 
REMARK   19  A    between atoms: C_28  and  O_48 
REMARK   20  A    between atoms: C_29  and  O_49 
REMARK   21  A    between atoms: C_30  and  O_50 
REMARK   22  A    between atoms: P_57  and  C_31 
REMARK   23  A    between atoms: P_58  and  C_32 
REMARK   24  A    between atoms: P_57  and  O_51 
REMARK   25  A    between atoms: P_58  and  O_54 
REMARK   26  A    between atoms: P_58  and  O_55 
ROOT
HETATM    1  O   UNK N   1      24.022  11.269   3.884  0.00  0.00    -0.325 OA
HETATM    2  O   UNK N   1      26.346  12.194   4.553  0.00  0.00    -0.649 OA
HETATM    3  P   UNK N   1      25.719  11.240   3.505  0.00  0.00     0.315 P 
HETATM    4  H   UNK N   1      23.075  11.330   4.081  0.00  0.00     0.220 HD
ENDROOT
BRANCH   3   5
HETATM    5  C   UNK N   1      26.127  11.801   1.761  0.00  0.00     0.364 C 
HETATM    6  F   UNK N   1      26.368  10.711   0.948  0.00  0.00    -0.187 F 
HETATM    7  F   UNK N   1      27.284  12.559   1.847  0.00  0.00    -0.187 F 
BRANCH   5   8
HETATM    8  C   UNK N   1      25.071  12.705   1.187  0.00  0.00     0.025 C 
HETATM    9  C   UNK N   1      24.079  12.186   0.344  0.00  0.00     0.014 C 
HETATM   10  C   UNK N   1      22.884  12.860   0.168  0.00  0.00     0.008 C 
HETATM   11  C   UNK N   1      22.681  14.071   0.810  0.00  0.00    -0.056 C 
HETATM   12  C   UNK N   1      23.725  14.681   1.520  0.00  0.00     0.008 C 
HETATM   13  C   UNK N   1      24.921  13.994   1.715  0.00  0.00     0.014 C 
BRANCH  11  14
HETATM   14  C   UNK N   1      21.272  14.493   1.017  0.00  0.00     0.072 C 
BRANCH  14  15
HETATM   15  C   UNK N   1      21.144  16.027   1.177  0.00  0.00     0.161 C 
BRANCH  15  16
HETATM   16  C   UNK N   1      20.029  16.762   0.430  0.00  0.00     0.132 C 
HETATM   17  N   UNK N   1      18.835  16.290   0.450  0.00  0.00    -0.382 N 
HETATM   18  H   UNK N   1      18.050  16.839   0.226  0.00  0.00     0.158 HD
ATOM     19  HN  UNK N   1      18.697  15.312   0.708  1.00  0.00     0.158 HD
BRANCH  16  20
HETATM   20  O   UNK N   1      20.261  17.913  -0.229  0.00  0.00    -0.348 OA
HETATM   21  H   UNK N   1      20.959  18.001  -0.849  0.00  0.00     0.219 HD
ENDBRANCH  16  20
ENDBRANCH  15  16
BRANCH  15  22
HETATM   22  N   UNK N   1      21.170  16.271   2.597  0.00  0.00    -0.360 N 
HETATM   23  C   UNK N   1      21.133  17.373   3.270  0.00  0.00     0.135 C 
ATOM     24  HN  UNK N   1      21.228  15.429   3.169  1.00  0.00     0.162 HD
BRANCH  23  25
HETATM   25  C   UNK N   1      21.200  17.244   4.747  0.00  0.00     0.162 C 
BRANCH  25  26
HETATM   26  C   UNK N   1      22.364  17.983   5.492  0.00  0.00     0.072 C 
BRANCH  26  27
HETATM   27  C   UNK N   1      23.593  17.476   4.813  0.00  0.00    -0.056 C 
HETATM   28  C   UNK N   1      24.121  16.276   5.303  0.00  0.00     0.008 C 
HETATM   29  C   UNK N   1      25.495  16.131   5.443  0.00  0.00     0.014 C 
HETATM   30  C   UNK N   1      26.345  17.190   5.102  0.00  0.00     0.025 C 
HETATM   31  C   UNK N   1      25.826  18.323   4.467  0.00  0.00     0.014 C 
HETATM   32  C   UNK N   1      24.452  18.468   4.327  0.00  0.00     0.008 C 
BRANCH  30  33
HETATM   33  C   UNK N   1      27.771  17.172   5.546  0.00  0.00     0.364 C 
HETATM   34  F   UNK N   1      27.825  16.702   6.849  0.00  0.00    -0.187 F 
HETATM   35  F   UNK N   1      28.309  18.448   5.522  0.00  0.00    -0.187 F 
BRANCH  33  36
HETATM   36  P   UNK N   1      28.776  16.070   4.460  0.00  0.00     0.315 P 
HETATM   37  O   UNK N   1      28.896  16.690   3.042  0.00  0.00    -0.649 OA
BRANCH  36  38
HETATM   38  O   UNK N   1      30.416  15.834   4.977  0.00  0.00    -0.325 OA
HETATM   39  H   UNK N   1      31.198  16.371   4.778  0.00  0.00     0.220 HD
ENDBRANCH  36  38
BRANCH  36  40
HETATM   40  O   UNK N   1      28.074  14.507   4.202  0.00  0.00    -0.325 OA
HETATM   41  H   UNK N   1      28.433  13.606   4.190  0.00  0.00     0.220 HD
ENDBRANCH  36  40
ENDBRANCH  33  36
ENDBRANCH  30  33
ENDBRANCH  26  27
ENDBRANCH  25  26
BRANCH  25  42
HETATM   42  N   UNK N   1      21.041  15.860   5.126  0.00  0.00    -0.360 N 
HETATM   43  C   UNK N   1      20.380  15.441   6.147  0.00  0.00     0.135 C 
ATOM     44  HN  UNK N   1      21.488  15.157   4.537  1.00  0.00     0.162 HD
BRANCH  43  45
HETATM   45  C   UNK N   1      20.325  13.970   6.448  0.00  0.00     0.158 C 
BRANCH  45  46
HETATM   46  C   UNK N   1      20.514  13.096   5.193  0.00  0.00     0.044 C 
BRANCH  46  47
HETATM   47  C   UNK N   1      19.204  12.537   4.644  0.00  0.00     0.112 C 
BRANCH  47  48
HETATM   48  C   UNK N   1      18.773  13.252   3.398  0.00  0.00     0.139 C 
HETATM   49  O   UNK N   1      18.380  12.626   2.426  0.00  0.00    -0.650 OA
BRANCH  48  50
HETATM   50  O   UNK N   1      18.846  14.595   3.343  0.00  0.00    -0.776 OA
HETATM   51  H   UNK N   1      18.392  15.219   2.811  0.00  0.00     0.167 HD
ENDBRANCH  48  50
ENDBRANCH  47  48
ENDBRANCH  46  47
ENDBRANCH  45  46
BRANCH  45  52
HETATM   52  N   UNK N   1      21.294  13.683   7.486  0.00  0.00    -0.358 N 
HETATM   53  C   UNK N   1      21.059  13.745   8.751  0.00  0.00     0.146 C 
ATOM     54  HN  UNK N   1      22.233  13.412   7.193  1.00  0.00     0.162 HD
BRANCH  53  55
HETATM   55  C   UNK N   1      22.043  13.189   9.690  0.00  0.00     0.014 A 
HETATM   56  C   UNK N   1      23.406  13.178   9.345  0.00  0.00     0.016 A 
HETATM   57  C   UNK N   1      24.336  12.553  10.176  0.00  0.00     0.001 A 
HETATM   58  C   UNK N   1      23.911  11.915  11.343  0.00  0.00     0.000 A 
HETATM   59  C   UNK N   1      22.556  11.918  11.688  0.00  0.00     0.001 A 
HETATM   60  C   UNK N   1      21.625  12.555  10.863  0.00  0.00     0.016 A 
ENDBRANCH  53  55
BRANCH  53  61
HETATM   61  O   UNK N   1      19.858  14.174   9.217  0.00  0.00    -0.346 OA
HETATM   62  H   UNK N   1      19.576  14.989   9.584  0.00  0.00     0.219 HD
ENDBRANCH  53  61
ENDBRANCH  45  52
ENDBRANCH  43  45
BRANCH  43  63
HETATM   63  O   UNK N   1      19.739  16.305   6.961  0.00  0.00    -0.348 OA
HETATM   64  H   UNK N   1      19.086  16.471   7.612  0.00  0.00     0.219 HD
ENDBRANCH  43  63
ENDBRANCH  25  42
ENDBRANCH  23  25
BRANCH  23  65
HETATM   65  O   UNK N   1      21.071  18.584   2.678  0.00  0.00    -0.348 OA
HETATM   66  H   UNK N   1      21.409  19.380   3.040  0.00  0.00     0.219 HD
ENDBRANCH  23  65
ENDBRANCH  15  22
ENDBRANCH  14  15
ENDBRANCH  11  14
ENDBRANCH   5   8
ENDBRANCH   3   5
BRANCH   3  67
HETATM   67  O   UNK N   1      26.301   9.664   3.938  0.00  0.00    -0.325 OA
HETATM   68  H   UNK N   1      26.676   9.042   3.296  0.00  0.00     0.220 HD
ENDBRANCH   3  67
TORSDOF 26
ENDMDL
MODEL 3
REMARK VINA RESULT:      -7.6      4.226      8.591
REMARK  26 active torsions:
REMARK  status: ('A' for Active; 'I' for Inactive)
REMARK    1  A    between atoms: C_15  and  C_14 
REMARK    2  A    between atoms: C_23  and  C_14 
REMARK    3  A    between atoms: C_26  and  C_15 
REMARK    4  A    between atoms: C_18  and  C_16 
REMARK    5  A    between atoms: C_24  and  C_16 
REMARK    6  A    between atoms: C_19  and  C_17 
REMARK    7  A    between atoms: C_25  and  C_17 
REMARK    8  A    between atoms: C_28  and  C_20 
REMARK    9  A    between atoms: C_31  and  C_21 
REMARK   10  A    between atoms: C_32  and  C_22 
REMARK   11  A    between atoms: C_29  and  C_23 
REMARK   12  A    between atoms: C_23  and  N_39 
REMARK   13  A    between atoms: C_27  and  C_24 
REMARK   14  A    between atoms: C_24  and  N_41 
REMARK   15  A    between atoms: C_30  and  C_25 
REMARK   16  A    between atoms: C_25  and  N_43 
REMARK   17  A    between atoms: O_46  and  C_26 
REMARK   18  A    between atoms: O_47  and  C_27 
REMARK   19  A    between atoms: C_28  and  O_48 
REMARK   20  A    between atoms: C_29  and  O_49 
REMARK   21  A    between atoms: C_30  and  O_50 
REMARK   22  A    between atoms: P_57  and  C_31 
REMARK   23  A    between atoms: P_58  and  C_32 
REMARK   24  A    between atoms: P_57  and  O_51 
REMARK   25  A    between atoms: P_58  and  O_54 
REMARK   26  A    between atoms: P_58  and  O_55 
ROOT
HETATM    1  O   UNK N   1      21.716  10.263   2.977  0.00  0.00    -0.325 OA
HETATM    2  O   UNK N   1      23.479  12.066   3.562  0.00  0.00    -0.649 OA
HETATM    3  P   UNK N   1      23.238  10.958   2.505  0.00  0.00     0.315 P 
HETATM    4  H   UNK N   1      20.846   9.914   3.228  0.00  0.00     0.220 HD
ENDROOT
BRANCH   3   5
HETATM    5  C   UNK N   1      23.250  11.675   0.771  0.00  0.00     0.364 C 
HETATM    6  F   UNK N   1      22.881  10.714  -0.151  0.00  0.00    -0.187 F 
HETATM    7  F   UNK N   1      24.554  12.067   0.511  0.00  0.00    -0.187 F 
BRANCH   5   8
HETATM    8  C   UNK N   1      22.405  12.915   0.655  0.00  0.00     0.025 C 
HETATM    9  C   UNK N   1      21.010  12.813   0.574  0.00  0.00     0.014 C 
HETATM   10  C   UNK N   1      20.207  13.889   0.908  0.00  0.00     0.008 C 
HETATM   11  C   UNK N   1      20.792  15.083   1.300  0.00  0.00    -0.056 C 
HETATM   12  C   UNK N   1      22.182  15.250   1.224  0.00  0.00     0.008 C 
HETATM   13  C   UNK N   1      22.992  14.161   0.908  0.00  0.00     0.014 C 
BRANCH  11  14
HETATM   14  C   UNK N   1      19.958  16.002   2.114  0.00  0.00     0.072 C 
BRANCH  14  15
HETATM   15  C   UNK N   1      20.598  17.407   2.240  0.00  0.00     0.161 C 
BRANCH  15  16
HETATM   16  C   UNK N   1      19.715  18.644   2.064  0.00  0.00     0.132 C 
HETATM   17  N   UNK N   1      20.201  19.695   1.510  0.00  0.00    -0.382 N 
HETATM   18  H   UNK N   1      19.628  20.402   1.136  0.00  0.00     0.158 HD
ATOM     19  HN  UNK N   1      21.214  19.800   1.455  1.00  0.00     0.158 HD
BRANCH  16  20
HETATM   20  O   UNK N   1      18.426  18.651   2.453  0.00  0.00    -0.348 OA
HETATM   21  H   UNK N   1      17.721  18.529   1.847  0.00  0.00     0.219 HD
ENDBRANCH  16  20
ENDBRANCH  15  16
BRANCH  15  22
HETATM   22  N   UNK N   1      21.349  17.381   3.469  0.00  0.00    -0.360 N 
HETATM   23  C   UNK N   1      22.192  18.223   3.967  0.00  0.00     0.135 C 
ATOM     24  HN  UNK N   1      21.187  16.555   4.046  1.00  0.00     0.162 HD
BRANCH  23  25
HETATM   25  C   UNK N   1      22.799  17.854   5.270  0.00  0.00     0.162 C 
BRANCH  25  26
HETATM   26  C   UNK N   1      24.356  17.680   5.327  0.00  0.00     0.072 C 
BRANCH  26  27
HETATM   27  C   UNK N   1      24.551  16.209   5.172  0.00  0.00    -0.056 C 
HETATM   28  C   UNK N   1      25.212  15.558   6.220  0.00  0.00     0.008 C 
HETATM   29  C   UNK N   1      26.159  14.580   5.940  0.00  0.00     0.014 C 
HETATM   30  C   UNK N   1      26.453  14.258   4.610  0.00  0.00     0.025 C 
HETATM   31  C   UNK N   1      25.679  14.794   3.576  0.00  0.00     0.014 C 
HETATM   32  C   UNK N   1      24.734  15.771   3.856  0.00  0.00     0.008 C 
BRANCH  30  33
HETATM   33  C   UNK N   1      27.675  13.461   4.290  0.00  0.00     0.364 C 
HETATM   34  F   UNK N   1      28.624  13.689   5.275  0.00  0.00    -0.187 F 
HETATM   35  F   UNK N   1      28.210  13.850   3.074  0.00  0.00    -0.187 F 
BRANCH  33  36
HETATM   36  P   UNK N   1      27.281  11.660   4.230  0.00  0.00     0.315 P 
HETATM   37  O   UNK N   1      26.988  11.230   2.768  0.00  0.00    -0.649 OA
BRANCH  36  38
HETATM   38  O   UNK N   1      28.566  10.613   4.747  0.00  0.00    -0.325 OA
HETATM   39  H   UNK N   1      28.756  10.281   5.637  0.00  0.00     0.220 HD
ENDBRANCH  36  38
BRANCH  36  40
HETATM   40  O   UNK N   1      25.856  11.223   5.114  0.00  0.00    -0.325 OA
HETATM   41  H   UNK N   1      25.210  10.504   5.029  0.00  0.00     0.220 HD
ENDBRANCH  36  40
ENDBRANCH  33  36
ENDBRANCH  30  33
ENDBRANCH  26  27
ENDBRANCH  25  26
BRANCH  25  42
HETATM   42  N   UNK N   1      22.061  16.763   5.864  0.00  0.00    -0.360 N 
HETATM   43  C   UNK N   1      21.197  16.878   6.808  0.00  0.00     0.135 C 
ATOM     44  HN  UNK N   1      22.241  15.825   5.504  1.00  0.00     0.162 HD
BRANCH  43  45
HETATM   45  C   UNK N   1      20.526  15.653   7.360  0.00  0.00     0.158 C 
BRANCH  45  46
HETATM   46  C   UNK N   1      19.930  14.752   6.262  0.00  0.00     0.044 C 
BRANCH  46  47
HETATM   47  C   UNK N   1      20.971  13.876   5.569  0.00  0.00     0.112 C 
BRANCH  47  48
HETATM   48  C   UNK N   1      20.678  12.415   5.748  0.00  0.00     0.139 C 
HETATM   49  O   UNK N   1      20.253  11.749   4.818  0.00  0.00    -0.650 OA
BRANCH  48  50
HETATM   50  O   UNK N   1      20.860  11.844   6.954  0.00  0.00    -0.776 OA
HETATM   51  H   UNK N   1      20.466  11.091   7.348  0.00  0.00     0.167 HD
ENDBRANCH  48  50
ENDBRANCH  47  48
ENDBRANCH  46  47
ENDBRANCH  45  46
BRANCH  45  52
HETATM   52  N   UNK N   1      21.476  14.957   8.204  0.00  0.00    -0.358 N 
HETATM   53  C   UNK N   1      21.162  14.210   9.206  0.00  0.00     0.146 C 
ATOM     54  HN  UNK N   1      22.467  15.068   7.990  1.00  0.00     0.162 HD
BRANCH  53  55
HETATM   55  C   UNK N   1      22.197  13.366   9.820  0.00  0.00     0.014 A 
HETATM   56  C   UNK N   1      21.897  12.628  10.979  0.00  0.00     0.016 A 
HETATM   57  C   UNK N   1      22.899  11.913  11.635  0.00  0.00     0.001 A 
HETATM   58  C   UNK N   1      24.209  11.948  11.154  0.00  0.00     0.000 A 
HETATM   59  C   UNK N   1      24.515  12.684  10.005  0.00  0.00     0.001 A 
HETATM   60  C   UNK N   1      23.510  13.390   9.340  0.00  0.00     0.016 A 
ENDBRANCH  53  55
BRANCH  53  61
HETATM   61  O   UNK N   1      19.870  14.079   9.601  0.00  0.00    -0.346 OA
HETATM   62  H   UNK N   1      19.073  14.467   9.298  0.00  0.00     0.219 HD
ENDBRANCH  53  61
ENDBRANCH  45  52
ENDBRANCH  43  45
BRANCH  43  63
HETATM   63  O   UNK N   1      20.885  18.088   7.319  0.00  0.00    -0.348 OA
HETATM   64  H   UNK N   1      21.011  19.016   7.335  0.00  0.00     0.219 HD
ENDBRANCH  43  63
ENDBRANCH  25  42
ENDBRANCH  23  25
BRANCH  23  65
HETATM   65  O   UNK N   1      22.539  19.363   3.335  0.00  0.00    -0.348 OA
HETATM   66  H   UNK N   1      22.518  20.220   3.716  0.00  0.00     0.219 HD
ENDBRANCH  23  65
ENDBRANCH  15  22
ENDBRANCH  14  15
ENDBRANCH  11  14
ENDBRANCH   5   8
ENDBRANCH   3   5
BRANCH   3  67
HETATM   67  O   UNK N   1      24.455   9.766   2.829  0.00  0.00    -0.325 OA
HETATM   68  H   UNK N   1      24.249   8.845   3.053  0.00  0.00     0.220 HD
ENDBRANCH   3  67
TORSDOF 26
ENDMDL
MODEL 4
REMARK VINA RESULT:      -7.5      2.902      8.464
REMARK  26 active torsions:
REMARK  status: ('A' for Active; 'I' for Inactive)
REMARK    1  A    between atoms: C_15  and  C_14 
REMARK    2  A    between atoms: C_23  and  C_14 
REMARK    3  A    between atoms: C_26  and  C_15 
REMARK    4  A    between atoms: C_18  and  C_16 
REMARK    5  A    between atoms: C_24  and  C_16 
REMARK    6  A    between atoms: C_19  and  C_17 
REMARK    7  A    between atoms: C_25  and  C_17 
REMARK    8  A    between atoms: C_28  and  C_20 
REMARK    9  A    between atoms: C_31  and  C_21 
REMARK   10  A    between atoms: C_32  and  C_22 
REMARK   11  A    between atoms: C_29  and  C_23 
REMARK   12  A    between atoms: C_23  and  N_39 
REMARK   13  A    between atoms: C_27  and  C_24 
REMARK   14  A    between atoms: C_24  and  N_41 
REMARK   15  A    between atoms: C_30  and  C_25 
REMARK   16  A    between atoms: C_25  and  N_43 
REMARK   17  A    between atoms: O_46  and  C_26 
REMARK   18  A    between atoms: O_47  and  C_27 
REMARK   19  A    between atoms: C_28  and  O_48 
REMARK   20  A    between atoms: C_29  and  O_49 
REMARK   21  A    between atoms: C_30  and  O_50 
REMARK   22  A    between atoms: P_57  and  C_31 
REMARK   23  A    between atoms: P_58  and  C_32 
REMARK   24  A    between atoms: P_57  and  O_51 
REMARK   25  A    between atoms: P_58  and  O_54 
REMARK   26  A    between atoms: P_58  and  O_55 
ROOT
HETATM    1  O   UNK N   1      25.107  13.827   9.717  0.00  0.00    -0.325 OA
HETATM    2  O   UNK N   1      24.309  11.397   9.315  0.00  0.00    -0.649 OA
HETATM    3  P   UNK N   1      23.835  12.684  10.036  0.00  0.00     0.315 P 
HETATM    4  H   UNK N   1      25.804  14.463   9.494  0.00  0.00     0.220 HD
ENDROOT
BRANCH   3   5
HETATM    5  C   UNK N   1      22.148  13.219   9.411  0.00  0.00     0.364 C 
HETATM    6  F   UNK N   1      21.729  14.358  10.070  0.00  0.00    -0.187 F 
HETATM    7  F   UNK N   1      21.271  12.186   9.701  0.00  0.00    -0.187 F 
BRANCH   5   8
HETATM    8  C   UNK N   1      22.117  13.393   7.917  0.00  0.00     0.025 C 
HETATM    9  C   UNK N   1      21.996  14.672   7.359  0.00  0.00     0.014 C 
HETATM   10  C   UNK N   1      22.400  14.910   6.057  0.00  0.00     0.008 C 
HETATM   11  C   UNK N   1      22.904  13.868   5.295  0.00  0.00    -0.056 C 
HETATM   12  C   UNK N   1      22.875  12.554   5.785  0.00  0.00     0.008 C 
HETATM   13  C   UNK N   1      22.487  12.316   7.101  0.00  0.00     0.014 C 
BRANCH  11  14
HETATM   14  C   UNK N   1      23.773  14.234   4.148  0.00  0.00     0.072 C 
BRANCH  14  15
HETATM   15  C   UNK N   1      25.204  13.662   4.301  0.00  0.00     0.161 C 
BRANCH  15  16
HETATM   16  C   UNK N   1      25.866  12.986   3.098  0.00  0.00     0.132 C 
HETATM   17  N   UNK N   1      26.547  11.912   3.271  0.00  0.00    -0.382 N 
HETATM   18  H   UNK N   1      26.762  11.302   2.528  0.00  0.00     0.158 HD
ATOM     19  HN  UNK N   1      26.876  11.682   4.209  1.00  0.00     0.158 HD
BRANCH  16  20
HETATM   20  O   UNK N   1      25.730  13.476   1.851  0.00  0.00    -0.348 OA
HETATM   21  H   UNK N   1      26.107  14.293   1.592  0.00  0.00     0.219 HD
ENDBRANCH  16  20
ENDBRANCH  15  16
BRANCH  15  22
HETATM   22  N   UNK N   1      25.982  14.721   4.891  0.00  0.00    -0.360 N 
HETATM   23  C   UNK N   1      26.278  14.972   6.124  0.00  0.00     0.135 C 
ATOM     24  HN  UNK N   1      26.366  15.388   4.221  1.00  0.00     0.162 HD
BRANCH  23  25
HETATM   25  C   UNK N   1      27.099  16.183   6.370  0.00  0.00     0.162 C 
BRANCH  25  26
HETATM   26  C   UNK N   1      27.967  16.223   7.674  0.00  0.00     0.072 C 
BRANCH  26  27
HETATM   27  C   UNK N   1      29.047  17.199   7.348  0.00  0.00    -0.056 C 
HETATM   28  C   UNK N   1      29.830  16.905   6.225  0.00  0.00     0.008 C 
HETATM   29  C   UNK N   1      31.204  17.105   6.268  0.00  0.00     0.014 C 
HETATM   30  C   UNK N   1      31.799  17.594   7.437  0.00  0.00     0.025 C 
HETATM   31  C   UNK N   1      30.999  18.034   8.495  0.00  0.00     0.014 C 
HETATM   32  C   UNK N   1      29.626  17.833   8.453  0.00  0.00     0.008 C 
BRANCH  30  33
HETATM   33  C   UNK N   1      33.281  17.508   7.609  0.00  0.00     0.364 C 
HETATM   34  F   UNK N   1      33.725  18.668   8.223  0.00  0.00    -0.187 F 
HETATM   35  F   UNK N   1      33.912  17.398   6.381  0.00  0.00    -0.187 F 
BRANCH  33  36
HETATM   36  P   UNK N   1      33.731  16.055   8.653  0.00  0.00     0.315 P 
HETATM   37  O   UNK N   1      32.536  15.069   8.733  0.00  0.00    -0.649 OA
BRANCH  36  38
HETATM   38  O   UNK N   1      35.048  15.101   8.047  0.00  0.00    -0.325 OA
HETATM   39  H   UNK N   1      35.992  15.319   8.017  0.00  0.00     0.220 HD
ENDBRANCH  36  38
BRANCH  36  40
HETATM   40  O   UNK N   1      34.084  16.457  10.301  0.00  0.00    -0.325 OA
HETATM   41  H   UNK N   1      33.758  16.130  11.154  0.00  0.00     0.220 HD
ENDBRANCH  36  40
ENDBRANCH  33  36
ENDBRANCH  30  33
ENDBRANCH  26  27
ENDBRANCH  25  26
BRANCH  25  42
HETATM   42  N   UNK N   1      26.303  17.369   6.154  0.00  0.00    -0.360 N 
HETATM   43  C   UNK N   1      26.265  18.049   5.064  0.00  0.00     0.135 C 
ATOM     44  HN  UNK N   1      25.723  17.692   6.929  1.00  0.00     0.162 HD
BRANCH  43  45
HETATM   45  C   UNK N   1      25.418  19.288   4.986  0.00  0.00     0.158 C 
BRANCH  45  46
HETATM   46  C   UNK N   1      26.199  20.513   4.474  0.00  0.00     0.044 C 
BRANCH  46  47
HETATM   47  C   UNK N   1      26.431  21.573   5.549  0.00  0.00     0.112 C 
BRANCH  47  48
HETATM   48  C   UNK N   1      26.842  20.960   6.855  0.00  0.00     0.139 C 
HETATM   49  O   UNK N   1      27.929  20.417   6.971  0.00  0.00    -0.650 OA
BRANCH  48  50
HETATM   50  O   UNK N   1      25.992  20.987   7.898  0.00  0.00    -0.776 OA
HETATM   51  H   UNK N   1      25.435  20.326   8.261  0.00  0.00     0.167 HD
ENDBRANCH  48  50
ENDBRANCH  47  48
ENDBRANCH  46  47
ENDBRANCH  45  46
BRANCH  45  52
HETATM   52  N   UNK N   1      24.250  18.988   4.182  0.00  0.00    -0.358 N 
HETATM   53  C   UNK N   1      23.167  18.454   4.629  0.00  0.00     0.146 C 
ATOM     54  HN  UNK N   1      24.290  19.217   3.189  1.00  0.00     0.162 HD
BRANCH  53  55
HETATM   55  C   UNK N   1      21.973  18.435   3.772  0.00  0.00     0.014 A 
HETATM   56  C   UNK N   1      21.312  19.638   3.469  0.00  0.00     0.016 A 
HETATM   57  C   UNK N   1      20.116  19.622   2.752  0.00  0.00     0.001 A 
HETATM   58  C   UNK N   1      19.559  18.406   2.353  0.00  0.00     0.000 A 
HETATM   59  C   UNK N   1      20.208  17.205   2.655  0.00  0.00     0.001 A 
HETATM   60  C   UNK N   1      21.413  17.220   3.362  0.00  0.00     0.016 A 
ENDBRANCH  53  55
BRANCH  53  61
HETATM   61  O   UNK N   1      23.069  18.049   5.921  0.00  0.00    -0.346 OA
HETATM   62  H   UNK N   1      22.525  17.416   6.347  0.00  0.00     0.219 HD
ENDBRANCH  53  61
ENDBRANCH  45  52
ENDBRANCH  43  45
BRANCH  43  63
HETATM   63  O   UNK N   1      26.984  17.673   3.986  0.00  0.00    -0.348 OA
HETATM   64  H   UNK N   1      27.667  17.845   3.368  0.00  0.00     0.219 HD
ENDBRANCH  43  63
ENDBRANCH  25  42
ENDBRANCH  23  25
BRANCH  23  65
HETATM   65  O   UNK N   1      25.844  14.204   7.145  0.00  0.00    -0.348 OA
HETATM   66  H   UNK N   1      25.996  14.378   8.054  0.00  0.00     0.219 HD
ENDBRANCH  23  65
ENDBRANCH  15  22
ENDBRANCH  14  15
ENDBRANCH  11  14
ENDBRANCH   5   8
ENDBRANCH   3   5
BRANCH   3  67
HETATM   67  O   UNK N   1      23.920  12.301  11.725  0.00  0.00    -0.325 OA
HETATM   68  H   UNK N   1      23.322  12.682  12.387  0.00  0.00     0.220 HD
ENDBRANCH   3  67
TORSDOF 26
ENDMDL
MODEL 5
REMARK VINA RESULT:      -7.4      3.356      9.423
REMARK  26 active torsions:
REMARK  status: ('A' for Active; 'I' for Inactive)
REMARK    1  A    between atoms: C_15  and  C_14 
REMARK    2  A    between atoms: C_23  and  C_14 
REMARK    3  A    between atoms: C_26  and  C_15 
REMARK    4  A    between atoms: C_18  and  C_16 
REMARK    5  A    between atoms: C_24  and  C_16 
REMARK    6  A    between atoms: C_19  and  C_17 
REMARK    7  A    between atoms: C_25  and  C_17 
REMARK    8  A    between atoms: C_28  and  C_20 
REMARK    9  A    between atoms: C_31  and  C_21 
REMARK   10  A    between atoms: C_32  and  C_22 
REMARK   11  A    between atoms: C_29  and  C_23 
REMARK   12  A    between atoms: C_23  and  N_39 
REMARK   13  A    between atoms: C_27  and  C_24 
REMARK   14  A    between atoms: C_24  and  N_41 
REMARK   15  A    between atoms: C_30  and  C_25 
REMARK   16  A    between atoms: C_25  and  N_43 
REMARK   17  A    between atoms: O_46  and  C_26 
REMARK   18  A    between atoms: O_47  and  C_27 
REMARK   19  A    between atoms: C_28  and  O_48 
REMARK   20  A    between atoms: C_29  and  O_49 
REMARK   21  A    between atoms: C_30  and  O_50 
REMARK   22  A    between atoms: P_57  and  C_31 
REMARK   23  A    between atoms: P_58  and  C_32 
REMARK   24  A    between atoms: P_57  and  O_51 
REMARK   25  A    between atoms: P_58  and  O_54 
REMARK   26  A    between atoms: P_58  and  O_55 
ROOT
HETATM    1  O   UNK N   1      20.570  16.704   6.573  0.00  0.00    -0.325 OA
HETATM    2  O   UNK N   1      20.217  14.446   5.356  0.00  0.00    -0.649 OA
HETATM    3  P   UNK N   1      19.759  15.923   5.248  0.00  0.00     0.315 P 
HETATM    4  H   UNK N   1      21.063  17.132   7.290  0.00  0.00     0.220 HD
ENDROOT
BRANCH   3   5
HETATM    5  C   UNK N   1      20.181  16.633   3.563  0.00  0.00     0.364 C 
HETATM    6  F   UNK N   1      19.225  17.551   3.174  0.00  0.00    -0.187 F 
HETATM    7  F   UNK N   1      20.172  15.572   2.671  0.00  0.00    -0.187 F 
BRANCH   5   8
HETATM    8  C   UNK N   1      21.567  17.215   3.515  0.00  0.00     0.025 C 
HETATM    9  C   UNK N   1      21.748  18.599   3.397  0.00  0.00     0.014 C 
HETATM   10  C   UNK N   1      22.938  19.187   3.787  0.00  0.00     0.008 C 
HETATM   11  C   UNK N   1      23.966  18.395   4.273  0.00  0.00    -0.056 C 
HETATM   12  C   UNK N   1      23.859  16.997   4.241  0.00  0.00     0.008 C 
HETATM   13  C   UNK N   1      22.655  16.404   3.867  0.00  0.00     0.014 C 
BRANCH  11  14
HETATM   14  C   UNK N   1      24.978  19.061   5.131  0.00  0.00     0.072 C 
BRANCH  14  15
HETATM   15  C   UNK N   1      26.407  18.927   4.551  0.00  0.00     0.161 C 
BRANCH  15  16
HETATM   16  C   UNK N   1      27.358  20.123   4.635  0.00  0.00     0.132 C 
HETATM   17  N   UNK N   1      28.535  20.033   4.131  0.00  0.00    -0.382 N 
HETATM   18  H   UNK N   1      29.077  20.827   3.919  0.00  0.00     0.158 HD
ATOM     19  HN  UNK N   1      28.921  19.107   3.943  1.00  0.00     0.158 HD
BRANCH  16  20
HETATM   20  O   UNK N   1      26.982  21.284   5.203  0.00  0.00    -0.348 OA
HETATM   21  H   UNK N   1      27.365  22.105   4.961  0.00  0.00     0.219 HD
ENDBRANCH  16  20
ENDBRANCH  15  16
BRANCH  15  22
HETATM   22  N   UNK N   1      26.936  17.706   5.104  0.00  0.00    -0.360 N 
HETATM   23  C   UNK N   1      27.802  16.868   4.639  0.00  0.00     0.135 C 
ATOM     24  HN  UNK N   1      26.561  17.461   6.021  1.00  0.00     0.162 HD
BRANCH  23  25
HETATM   25  C   UNK N   1      28.097  15.688   5.489  0.00  0.00     0.162 C 
BRANCH  25  26
HETATM   26  C   UNK N   1      29.455  14.941   5.253  0.00  0.00     0.072 C 
BRANCH  26  27
HETATM   27  C   UNK N   1      30.482  15.938   5.678  0.00  0.00    -0.056 C 
HETATM   28  C   UNK N   1      31.792  15.701   5.244  0.00  0.00     0.008 C 
HETATM   29  C   UNK N   1      32.857  15.906   6.112  0.00  0.00     0.014 C 
HETATM   30  C   UNK N   1      32.613  16.340   7.420  0.00  0.00     0.025 C 
HETATM   31  C   UNK N   1      31.323  16.725   7.798  0.00  0.00     0.014 C 
HETATM   32  C   UNK N   1      30.259  16.520   6.931  0.00  0.00     0.008 C 
BRANCH  30  33
HETATM   33  C   UNK N   1      33.695  16.252   8.447  0.00  0.00     0.364 C 
HETATM   34  F   UNK N   1      33.631  17.376   9.256  0.00  0.00    -0.187 F 
HETATM   35  F   UNK N   1      34.942  16.222   7.844  0.00  0.00    -0.187 F 
BRANCH  33  36
HETATM   36  P   UNK N   1      33.487  14.741   9.484  0.00  0.00     0.315 P 
HETATM   37  O   UNK N   1      34.820  13.949   9.540  0.00  0.00    -0.649 OA
BRANCH  36  38
HETATM   38  O   UNK N   1      33.086  15.046  11.145  0.00  0.00    -0.325 OA
HETATM   39  H   UNK N   1      32.292  15.464  11.510  0.00  0.00     0.220 HD
ENDBRANCH  36  38
BRANCH  36  40
HETATM   40  O   UNK N   1      32.329  13.614   8.859  0.00  0.00    -0.325 OA
HETATM   41  H   UNK N   1      31.359  13.584   8.856  0.00  0.00     0.220 HD
ENDBRANCH  36  40
ENDBRANCH  33  36
ENDBRANCH  30  33
ENDBRANCH  26  27
ENDBRANCH  25  26
BRANCH  25  42
HETATM   42  N   UNK N   1      26.946  14.817   5.538  0.00  0.00    -0.360 N 
HETATM   43  C   UNK N   1      26.045  14.828   6.455  0.00  0.00     0.135 C 
ATOM     44  HN  UNK N   1      26.838  14.139   4.783  1.00  0.00     0.162 HD
BRANCH  43  45
HETATM   45  C   UNK N   1      24.915  13.840   6.403  0.00  0.00     0.158 C 
BRANCH  45  46
HETATM   46  C   UNK N   1      25.232  12.616   5.524  0.00  0.00     0.044 C 
BRANCH  46  47
HETATM   47  C   UNK N   1      24.555  12.664   4.156  0.00  0.00     0.112 C 
BRANCH  47  48
HETATM   48  C   UNK N   1      25.551  12.843   3.048  0.00  0.00     0.139 C 
HETATM   49  O   UNK N   1      26.059  11.873   2.508  0.00  0.00    -0.650 OA
BRANCH  48  50
HETATM   50  O   UNK N   1      25.907  14.084   2.668  0.00  0.00    -0.776 OA
HETATM   51  H   UNK N   1      26.741  14.447   2.440  0.00  0.00     0.167 HD
ENDBRANCH  48  50
ENDBRANCH  47  48
ENDBRANCH  46  47
ENDBRANCH  45  46
BRANCH  45  52
HETATM   52  N   UNK N   1      24.564  13.481   7.763  0.00  0.00    -0.358 N 
HETATM   53  C   UNK N   1      23.363  13.432   8.224  0.00  0.00     0.146 C 
ATOM     54  HN  UNK N   1      25.325  13.252   8.401  1.00  0.00     0.162 HD
BRANCH  53  55
HETATM   55  C   UNK N   1      23.126  12.814   9.537  0.00  0.00     0.014 A 
HETATM   56  C   UNK N   1      21.820  12.758  10.056  0.00  0.00     0.016 A 
HETATM   57  C   UNK N   1      21.597  12.277  11.346  0.00  0.00     0.001 A 
HETATM   58  C   UNK N   1      22.675  11.872  12.135  0.00  0.00     0.000 A 
HETATM   59  C   UNK N   1      23.977  11.931  11.627  0.00  0.00     0.001 A 
HETATM   60  C   UNK N   1      24.200  12.400  10.330  0.00  0.00     0.016 A 
ENDBRANCH  53  55
BRANCH  53  61
HETATM   61  O   UNK N   1      22.305  13.800   7.458  0.00  0.00    -0.346 OA
HETATM   62  H   UNK N   1      21.382  13.657   7.541  0.00  0.00     0.219 HD
ENDBRANCH  53  61
ENDBRANCH  45  52
ENDBRANCH  43  45
BRANCH  43  63
HETATM   63  O   UNK N   1      26.102  15.713   7.473  0.00  0.00    -0.348 OA
HETATM   64  H   UNK N   1      25.773  16.480   7.897  0.00  0.00     0.219 HD
ENDBRANCH  43  63
ENDBRANCH  25  42
ENDBRANCH  23  25
BRANCH  23  65
HETATM   65  O   UNK N   1      28.390  17.025   3.435  0.00  0.00    -0.348 OA
HETATM   66  H   UNK N   1      29.015  17.691   3.221  0.00  0.00     0.219 HD
ENDBRANCH  23  65
ENDBRANCH  15  22
ENDBRANCH  14  15
ENDBRANCH  11  14
ENDBRANCH   5   8
ENDBRANCH   3   5
BRANCH   3  67
HETATM   67  O   UNK N   1      18.070  15.891   5.645  0.00  0.00    -0.325 OA
HETATM   68  H   UNK N   1      17.634  16.585   6.163  0.00  0.00     0.220 HD
ENDBRANCH   3  67
TORSDOF 26
ENDMDL
MODEL 6
REMARK VINA RESULT:      -7.4      4.440      9.234
REMARK  26 active torsions:
REMARK  status: ('A' for Active; 'I' for Inactive)
REMARK    1  A    between atoms: C_15  and  C_14 
REMARK    2  A    between atoms: C_23  and  C_14 
REMARK    3  A    between atoms: C_26  and  C_15 
REMARK    4  A    between atoms: C_18  and  C_16 
REMARK    5  A    between atoms: C_24  and  C_16 
REMARK    6  A    between atoms: C_19  and  C_17 
REMARK    7  A    between atoms: C_25  and  C_17 
REMARK    8  A    between atoms: C_28  and  C_20 
REMARK    9  A    between atoms: C_31  and  C_21 
REMARK   10  A    between atoms: C_32  and  C_22 
REMARK   11  A    between atoms: C_29  and  C_23 
REMARK   12  A    between atoms: C_23  and  N_39 
REMARK   13  A    between atoms: C_27  and  C_24 
REMARK   14  A    between atoms: C_24  and  N_41 
REMARK   15  A    between atoms: C_30  and  C_25 
REMARK   16  A    between atoms: C_25  and  N_43 
REMARK   17  A    between atoms: O_46  and  C_26 
REMARK   18  A    between atoms: O_47  and  C_27 
REMARK   19  A    between atoms: C_28  and  O_48 
REMARK   20  A    between atoms: C_29  and  O_49 
REMARK   21  A    between atoms: C_30  and  O_50 
REMARK   22  A    between atoms: P_57  and  C_31 
REMARK   23  A    between atoms: P_58  and  C_32 
REMARK   24  A    between atoms: P_57  and  O_51 
REMARK   25  A    between atoms: P_58  and  O_54 
REMARK   26  A    between atoms: P_58  and  O_55 
ROOT
HETATM    1  O   UNK N   1      23.334   5.721   8.005  0.00  0.00    -0.325 OA
HETATM    2  O   UNK N   1      23.108   5.239   5.471  0.00  0.00    -0.649 OA
HETATM    3  P   UNK N   1      23.112   6.448   6.441  0.00  0.00     0.315 P 
HETATM    4  H   UNK N   1      23.500   5.303   8.864  0.00  0.00     0.220 HD
ENDROOT
BRANCH   3   5
HETATM    5  C   UNK N   1      24.448   7.679   5.970  0.00  0.00     0.364 C 
HETATM    6  F   UNK N   1      24.935   7.402   4.707  0.00  0.00    -0.187 F 
HETATM    7  F   UNK N   1      25.474   7.524   6.889  0.00  0.00    -0.187 F 
BRANCH   5   8
HETATM    8  C   UNK N   1      23.985   9.105   6.090  0.00  0.00     0.025 C 
HETATM    9  C   UNK N   1      23.568   9.810   4.954  0.00  0.00     0.014 C 
HETATM   10  C   UNK N   1      22.746  10.916   5.076  0.00  0.00     0.008 C 
HETATM   11  C   UNK N   1      22.356  11.343   6.336  0.00  0.00    -0.056 C 
HETATM   12  C   UNK N   1      22.900  10.750   7.485  0.00  0.00     0.008 C 
HETATM   13  C   UNK N   1      23.710   9.624   7.363  0.00  0.00     0.014 C 
BRANCH  11  14
HETATM   14  C   UNK N   1      21.120  12.161   6.414  0.00  0.00     0.072 C 
BRANCH  14  15
HETATM   15  C   UNK N   1      20.434  12.309   5.034  0.00  0.00     0.161 C 
BRANCH  15  16
HETATM   16  C   UNK N   1      19.198  11.463   4.724  0.00  0.00     0.132 C 
HETATM   17  N   UNK N   1      18.369  11.857   3.826  0.00  0.00    -0.382 N 
HETATM   18  H   UNK N   1      17.723  11.245   3.404  0.00  0.00     0.158 HD
ATOM     19  HN  UNK N   1      18.382  12.836   3.539  1.00  0.00     0.158 HD
BRANCH  16  20
HETATM   20  O   UNK N   1      18.968  10.294   5.352  0.00  0.00    -0.348 OA
HETATM   21  H   UNK N   1      19.532   9.553   5.249  0.00  0.00     0.219 HD
ENDBRANCH  16  20
ENDBRANCH  15  16
BRANCH  15  22
HETATM   22  N   UNK N   1      20.249  13.725   4.844  0.00  0.00    -0.360 N 
HETATM   23  C   UNK N   1      20.325  14.456   3.781  0.00  0.00     0.135 C 
ATOM     24  HN  UNK N   1      20.020  14.239   5.695  1.00  0.00     0.162 HD
BRANCH  23  25
HETATM   25  C   UNK N   1      20.088  15.910   3.965  0.00  0.00     0.162 C 
BRANCH  25  26
HETATM   26  C   UNK N   1      20.854  16.899   3.021  0.00  0.00     0.072 C 
BRANCH  26  27
HETATM   27  C   UNK N   1      21.905  17.484   3.904  0.00  0.00    -0.056 C 
HETATM   28  C   UNK N   1      22.116  18.863   3.786  0.00  0.00     0.008 C 
HETATM   29  C   UNK N   1      23.410  19.369   3.797  0.00  0.00     0.014 C 
HETATM   30  C   UNK N   1      24.497  18.495   3.918  0.00  0.00     0.025 C 
HETATM   31  C   UNK N   1      24.276  17.142   4.194  0.00  0.00     0.014 C 
HETATM   32  C   UNK N   1      22.984  16.637   4.182  0.00  0.00     0.008 C 
BRANCH  30  33
HETATM   33  C   UNK N   1      25.877  18.978   3.610  0.00  0.00     0.364 C 
HETATM   34  F   UNK N   1      25.788  20.037   2.720  0.00  0.00    -0.187 F 
HETATM   35  F   UNK N   1      26.626  17.975   3.017  0.00  0.00    -0.187 F 
BRANCH  33  36
HETATM   36  P   UNK N   1      26.728  19.542   5.146  0.00  0.00     0.315 P 
HETATM   37  O   UNK N   1      25.917  20.686   5.811  0.00  0.00    -0.649 OA
BRANCH  36  38
HETATM   38  O   UNK N   1      26.879  18.334   6.383  0.00  0.00    -0.325 OA
HETATM   39  H   UNK N   1      27.611  17.720   6.545  0.00  0.00     0.220 HD
ENDBRANCH  36  38
BRANCH  36  40
HETATM   40  O   UNK N   1      28.300  20.216   4.872  0.00  0.00    -0.325 OA
HETATM   41  H   UNK N   1      29.176  20.051   5.256  0.00  0.00     0.220 HD
ENDBRANCH  36  40
ENDBRANCH  33  36
ENDBRANCH  30  33
ENDBRANCH  26  27
ENDBRANCH  25  26
BRANCH  25  42
HETATM   42  N   UNK N   1      20.173  16.247   5.367  0.00  0.00    -0.360 N 
HETATM   43  C   UNK N   1      19.196  16.202   6.202  0.00  0.00     0.135 C 
ATOM     44  HN  UNK N   1      21.081  16.546   5.724  1.00  0.00     0.162 HD
BRANCH  43  45
HETATM   45  C   UNK N   1      19.414  16.616   7.629  0.00  0.00     0.158 C 
BRANCH  45  46
HETATM   46  C   UNK N   1      18.163  17.255   8.263  0.00  0.00     0.044 C 
BRANCH  46  47
HETATM   47  C   UNK N   1      18.287  17.456   9.772  0.00  0.00     0.112 C 
BRANCH  47  48
HETATM   48  C   UNK N   1      18.853  18.804  10.109  0.00  0.00     0.139 C 
HETATM   49  O   UNK N   1      19.982  19.108   9.758  0.00  0.00    -0.650 OA
BRANCH  48  50
HETATM   50  O   UNK N   1      18.119  19.672  10.828  0.00  0.00    -0.776 OA
HETATM   51  H   UNK N   1      17.907  20.574  10.682  0.00  0.00     0.167 HD
ENDBRANCH  48  50
ENDBRANCH  47  48
ENDBRANCH  46  47
ENDBRANCH  45  46
BRANCH  45  52
HETATM   52  N   UNK N   1      19.893  15.464   8.367  0.00  0.00    -0.358 N 
HETATM   53  C   UNK N   1      21.122  15.081   8.416  0.00  0.00     0.146 C 
ATOM     54  HN  UNK N   1      19.206  14.917   8.886  1.00  0.00     0.162 HD
BRANCH  53  55
HETATM   55  C   UNK N   1      21.513  14.057   9.395  0.00  0.00     0.014 A 
HETATM   56  C   UNK N   1      22.861  13.673   9.502  0.00  0.00     0.016 A 
HETATM   57  C   UNK N   1      23.229  12.624  10.345  0.00  0.00     0.001 A 
HETATM   58  C   UNK N   1      22.252  11.937  11.069  0.00  0.00     0.000 A 
HETATM   59  C   UNK N   1      20.909  12.311  10.963  0.00  0.00     0.001 A 
HETATM   60  C   UNK N   1      20.541  13.369  10.129  0.00  0.00     0.016 A 
ENDBRANCH  53  55
BRANCH  53  61
HETATM   61  O   UNK N   1      22.079  15.710   7.689  0.00  0.00    -0.346 OA
HETATM   62  H   UNK N   1      22.265  15.733   6.770  0.00  0.00     0.219 HD
ENDBRANCH  53  61
ENDBRANCH  45  52
ENDBRANCH  43  45
BRANCH  43  63
HETATM   63  O   UNK N   1      17.970  15.793   5.814  0.00  0.00    -0.348 OA
HETATM   64  H   UNK N   1      17.431  15.278   5.246  0.00  0.00     0.219 HD
ENDBRANCH  43  63
ENDBRANCH  25  42
ENDBRANCH  23  25
BRANCH  23  65
HETATM   65  O   UNK N   1      20.632  13.948   2.570  0.00  0.00    -0.348 OA
HETATM   66  H   UNK N   1      20.111  14.042   1.796  0.00  0.00     0.219 HD
ENDBRANCH  23  65
ENDBRANCH  15  22
ENDBRANCH  14  15
ENDBRANCH  11  14
ENDBRANCH   5   8
ENDBRANCH   3   5
BRANCH   3  67
HETATM   67  O   UNK N   1      21.488   7.055   6.397  0.00  0.00    -0.325 OA
HETATM   68  H   UNK N   1      20.833   6.868   7.087  0.00  0.00     0.220 HD
ENDBRANCH   3  67
TORSDOF 26
ENDMDL
MODEL 7
REMARK VINA RESULT:      -7.4      3.513      5.578
REMARK  26 active torsions:
REMARK  status: ('A' for Active; 'I' for Inactive)
REMARK    1  A    between atoms: C_15  and  C_14 
REMARK    2  A    between atoms: C_23  and  C_14 
REMARK    3  A    between atoms: C_26  and  C_15 
REMARK    4  A    between atoms: C_18  and  C_16 
REMARK    5  A    between atoms: C_24  and  C_16 
REMARK    6  A    between atoms: C_19  and  C_17 
REMARK    7  A    between atoms: C_25  and  C_17 
REMARK    8  A    between atoms: C_28  and  C_20 
REMARK    9  A    between atoms: C_31  and  C_21 
REMARK   10  A    between atoms: C_32  and  C_22 
REMARK   11  A    between atoms: C_29  and  C_23 
REMARK   12  A    between atoms: C_23  and  N_39 
REMARK   13  A    between atoms: C_27  and  C_24 
REMARK   14  A    between atoms: C_24  and  N_41 
REMARK   15  A    between atoms: C_30  and  C_25 
REMARK   16  A    between atoms: C_25  and  N_43 
REMARK   17  A    between atoms: O_46  and  C_26 
REMARK   18  A    between atoms: O_47  and  C_27 
REMARK   19  A    between atoms: C_28  and  O_48 
REMARK   20  A    between atoms: C_29  and  O_49 
REMARK   21  A    between atoms: C_30  and  O_50 
REMARK   22  A    between atoms: P_57  and  C_31 
REMARK   23  A    between atoms: P_58  and  C_32 
REMARK   24  A    between atoms: P_57  and  O_51 
REMARK   25  A    between atoms: P_58  and  O_54 
REMARK   26  A    between atoms: P_58  and  O_55 
ROOT
HETATM    1  O   UNK N   1      36.175  13.540   8.941  0.00  0.00    -0.325 OA
HETATM    2  O   UNK N   1      36.558  13.440  11.500  0.00  0.00    -0.649 OA
HETATM    3  P   UNK N   1      36.374  14.496  10.380  0.00  0.00     0.315 P 
HETATM    4  H   UNK N   1      36.024  12.991   8.156  0.00  0.00     0.220 HD
ENDROOT
BRANCH   3   5
HETATM    5  C   UNK N   1      34.924  15.626  10.758  0.00  0.00     0.364 C 
HETATM    6  F   UNK N   1      35.351  16.746  11.444  0.00  0.00    -0.187 F 
HETATM    7  F   UNK N   1      34.060  14.907  11.569  0.00  0.00    -0.187 F 
BRANCH   5   8
HETATM    8  C   UNK N   1      34.142  15.989   9.525  0.00  0.00     0.025 C 
HETATM    9  C   UNK N   1      33.041  15.216   9.134  0.00  0.00     0.014 C 
HETATM   10  C   UNK N   1      32.067  15.748   8.308  0.00  0.00     0.008 C 
HETATM   11  C   UNK N   1      32.198  17.048   7.845  0.00  0.00    -0.056 C 
HETATM   12  C   UNK N   1      33.373  17.774   8.092  0.00  0.00     0.008 C 
HETATM   13  C   UNK N   1      34.344  17.247   8.940  0.00  0.00     0.014 C 
BRANCH  11  14
HETATM   14  C   UNK N   1      30.954  17.736   7.418  0.00  0.00     0.072 C 
BRANCH  14  15
HETATM   15  C   UNK N   1      29.685  16.978   7.880  0.00  0.00     0.161 C 
BRANCH  15  16
HETATM   16  C   UNK N   1      28.857  17.550   9.033  0.00  0.00     0.132 C 
HETATM   17  N   UNK N   1      27.713  18.079   8.789  0.00  0.00    -0.382 N 
HETATM   18  H   UNK N   1      27.037  18.214   9.492  0.00  0.00     0.158 HD
ATOM     19  HN  UNK N   1      27.497  18.369   7.835  1.00  0.00     0.158 HD
BRANCH  16  20
HETATM   20  O   UNK N   1      29.285  17.487  10.307  0.00  0.00    -0.348 OA
HETATM   21  H   UNK N   1      29.451  16.672  10.739  0.00  0.00     0.219 HD
ENDBRANCH  16  20
ENDBRANCH  15  16
BRANCH  15  22
HETATM   22  N   UNK N   1      28.933  16.717   6.679  0.00  0.00    -0.360 N 
HETATM   23  C   UNK N   1      29.041  15.780   5.796  0.00  0.00     0.135 C 
ATOM     24  HN  UNK N   1      28.186  17.387   6.494  1.00  0.00     0.162 HD
BRANCH  23  25
HETATM   25  C   UNK N   1      28.091  15.835   4.658  0.00  0.00     0.162 C 
BRANCH  25  26
HETATM   26  C   UNK N   1      28.656  15.568   3.221  0.00  0.00     0.072 C 
BRANCH  26  27
HETATM   27  C   UNK N   1      27.637  14.670   2.604  0.00  0.00    -0.056 C 
HETATM   28  C   UNK N   1      26.761  15.264   1.688  0.00  0.00     0.008 C 
HETATM   29  C   UNK N   1      25.412  14.930   1.703  0.00  0.00     0.014 C 
HETATM   30  C   UNK N   1      24.936  14.006   2.640  0.00  0.00     0.025 C 
HETATM   31  C   UNK N   1      25.836  13.299   3.443  0.00  0.00     0.014 C 
HETATM   32  C   UNK N   1      27.183  13.634   3.429  0.00  0.00     0.008 C 
BRANCH  30  33
HETATM   33  C   UNK N   1      23.466  13.882   2.881  0.00  0.00     0.364 C 
HETATM   34  F   UNK N   1      22.800  14.727   2.007  0.00  0.00    -0.187 F 
HETATM   35  F   UNK N   1      23.148  14.258   4.175  0.00  0.00    -0.187 F 
BRANCH  33  36
HETATM   36  P   UNK N   1      22.905  12.148   2.599  0.00  0.00     0.315 P 
HETATM   37  O   UNK N   1      22.923  11.360   3.935  0.00  0.00    -0.649 OA
BRANCH  36  38
HETATM   38  O   UNK N   1      21.276  11.993   2.019  0.00  0.00    -0.325 OA
HETATM   39  H   UNK N   1      20.736  11.193   1.934  0.00  0.00     0.220 HD
ENDBRANCH  36  38
BRANCH  36  40
HETATM   40  O   UNK N   1      23.931  11.241   1.537  0.00  0.00    -0.325 OA
HETATM   41  H   UNK N   1      23.949  10.312   1.256  0.00  0.00     0.220 HD
ENDBRANCH  36  40
ENDBRANCH  33  36
ENDBRANCH  30  33
ENDBRANCH  26  27
ENDBRANCH  25  26
BRANCH  25  42
HETATM   42  N   UNK N   1      27.273  17.022   4.759  0.00  0.00    -0.360 N 
HETATM   43  C   UNK N   1      26.048  17.048   5.150  0.00  0.00     0.135 C 
ATOM     44  HN  UNK N   1      27.702  17.910   4.500  1.00  0.00     0.162 HD
BRANCH  43  45
HETATM   45  C   UNK N   1      25.300  18.350   5.173  0.00  0.00     0.158 C 
BRANCH  45  46
HETATM   46  C   UNK N   1      26.132  19.527   4.628  0.00  0.00     0.044 C 
BRANCH  46  47
HETATM   47  C   UNK N   1      26.050  20.779   5.500  0.00  0.00     0.112 C 
BRANCH  47  48
HETATM   48  C   UNK N   1      26.781  20.602   6.797  0.00  0.00     0.139 C 
HETATM   49  O   UNK N   1      27.954  20.261   6.808  0.00  0.00    -0.650 OA
BRANCH  48  50
HETATM   50  O   UNK N   1      26.130  20.796   7.959  0.00  0.00    -0.776 OA
HETATM   51  H   UNK N   1      26.377  20.616   8.845  0.00  0.00     0.167 HD
ENDBRANCH  48  50
ENDBRANCH  47  48
ENDBRANCH  46  47
ENDBRANCH  45  46
BRANCH  45  52
HETATM   52  N   UNK N   1      24.050  18.168   4.462  0.00  0.00    -0.358 N 
HETATM   53  C   UNK N   1      22.881  18.273   4.991  0.00  0.00     0.146 C 
ATOM     54  HN  UNK N   1      24.101  17.938   3.470  1.00  0.00     0.162 HD
BRANCH  53  55
HETATM   55  C   UNK N   1      21.701  18.315   4.116  0.00  0.00     0.014 A 
HETATM   56  C   UNK N   1      21.286  17.148   3.449  0.00  0.00     0.016 A 
HETATM   57  C   UNK N   1      20.239  17.200   2.529  0.00  0.00     0.001 A 
HETATM   58  C   UNK N   1      19.614  18.417   2.251  0.00  0.00     0.000 A 
HETATM   59  C   UNK N   1      20.026  19.581   2.907  0.00  0.00     0.001 A 
HETATM   60  C   UNK N   1      21.066  19.529   3.838  0.00  0.00     0.016 A 
ENDBRANCH  53  55
BRANCH  53  61
HETATM   61  O   UNK N   1      22.734  18.498   6.322  0.00  0.00    -0.346 OA
HETATM   62  H   UNK N   1      22.528  19.267   6.816  0.00  0.00     0.219 HD
ENDBRANCH  53  61
ENDBRANCH  45  52
ENDBRANCH  43  45
BRANCH  43  63
HETATM   63  O   UNK N   1      25.418  15.918   5.534  0.00  0.00    -0.348 OA
HETATM   64  H   UNK N   1      25.074  15.376   6.217  0.00  0.00     0.219 HD
ENDBRANCH  43  63
ENDBRANCH  25  42
ENDBRANCH  23  25
BRANCH  23  65
HETATM   65  O   UNK N   1      29.983  14.816   5.872  0.00  0.00    -0.348 OA
HETATM   66  H   UNK N   1      29.928  14.049   6.408  0.00  0.00     0.219 HD
ENDBRANCH  23  65
ENDBRANCH  15  22
ENDBRANCH  14  15
ENDBRANCH  11  14
ENDBRANCH   5   8
ENDBRANCH   3   5
BRANCH   3  67
HETATM   67  O   UNK N   1      37.917  15.278  10.252  0.00  0.00    -0.325 OA
HETATM   68  H   UNK N   1      38.643  15.124  10.876  0.00  0.00     0.220 HD
ENDBRANCH   3  67
TORSDOF 26
ENDMDL
MODEL 8
REMARK VINA RESULT:      -7.3      5.627      8.723
REMARK  26 active torsions:
REMARK  status: ('A' for Active; 'I' for Inactive)
REMARK    1  A    between atoms: C_15  and  C_14 
REMARK    2  A    between atoms: C_23  and  C_14 
REMARK    3  A    between atoms: C_26  and  C_15 
REMARK    4  A    between atoms: C_18  and  C_16 
REMARK    5  A    between atoms: C_24  and  C_16 
REMARK    6  A    between atoms: C_19  and  C_17 
REMARK    7  A    between atoms: C_25  and  C_17 
REMARK    8  A    between atoms: C_28  and  C_20 
REMARK    9  A    between atoms: C_31  and  C_21 
REMARK   10  A    between atoms: C_32  and  C_22 
REMARK   11  A    between atoms: C_29  and  C_23 
REMARK   12  A    between atoms: C_23  and  N_39 
REMARK   13  A    between atoms: C_27  and  C_24 
REMARK   14  A    between atoms: C_24  and  N_41 
REMARK   15  A    between atoms: C_30  and  C_25 
REMARK   16  A    between atoms: C_25  and  N_43 
REMARK   17  A    between atoms: O_46  and  C_26 
REMARK   18  A    between atoms: O_47  and  C_27 
REMARK   19  A    between atoms: C_28  and  O_48 
REMARK   20  A    between atoms: C_29  and  O_49 
REMARK   21  A    between atoms: C_30  and  O_50 
REMARK   22  A    between atoms: P_57  and  C_31 
REMARK   23  A    between atoms: P_58  and  C_32 
REMARK   24  A    between atoms: P_57  and  O_51 
REMARK   25  A    between atoms: P_58  and  O_54 
REMARK   26  A    between atoms: P_58  and  O_55 
ROOT
HETATM    1  O   UNK N   1      36.163  13.018   9.230  0.00  0.00    -0.325 OA
HETATM    2  O   UNK N   1      36.977  13.051  11.687  0.00  0.00    -0.649 OA
HETATM    3  P   UNK N   1      36.514  14.043  10.590  0.00  0.00     0.315 P 
HETATM    4  H   UNK N   1      35.932  12.429   8.495  0.00  0.00     0.220 HD
ENDROOT
BRANCH   3   5
HETATM    5  C   UNK N   1      35.053  15.061  11.182  0.00  0.00     0.364 C 
HETATM    6  F   UNK N   1      35.479  16.071  12.023  0.00  0.00    -0.187 F 
HETATM    7  F   UNK N   1      34.233  14.202  11.895  0.00  0.00    -0.187 F 
BRANCH   5   8
HETATM    8  C   UNK N   1      34.224  15.592  10.045  0.00  0.00     0.025 C 
HETATM    9  C   UNK N   1      32.970  15.033   9.765  0.00  0.00     0.014 C 
HETATM   10  C   UNK N   1      32.024  15.750   9.055  0.00  0.00     0.008 C 
HETATM   11  C   UNK N   1      32.332  17.021   8.596  0.00  0.00    -0.056 C 
HETATM   12  C   UNK N   1      33.635  17.525   8.724  0.00  0.00     0.008 C 
HETATM   13  C   UNK N   1      34.582  16.812   9.456  0.00  0.00     0.014 C 
BRANCH  11  14
HETATM   14  C   UNK N   1      31.191  17.927   8.313  0.00  0.00     0.072 C 
BRANCH  14  15
HETATM   15  C   UNK N   1      29.939  17.151   7.835  0.00  0.00     0.161 C 
BRANCH  15  16
HETATM   16  C   UNK N   1      28.554  17.630   8.274  0.00  0.00     0.132 C 
HETATM   17  N   UNK N   1      27.511  17.187   7.673  0.00  0.00    -0.382 N 
HETATM   18  H   UNK N   1      26.612  17.245   8.071  0.00  0.00     0.158 HD
ATOM     19  HN  UNK N   1      27.616  16.761   6.752  1.00  0.00     0.158 HD
BRANCH  16  20
HETATM   20  O   UNK N   1      28.398  18.488   9.300  0.00  0.00    -0.348 OA
HETATM   21  H   UNK N   1      28.387  18.203  10.193  0.00  0.00     0.219 HD
ENDBRANCH  16  20
ENDBRANCH  15  16
BRANCH  15  22
HETATM   22  N   UNK N   1      30.095  17.007   6.410  0.00  0.00    -0.360 N 
HETATM   23  C   UNK N   1      30.266  15.958   5.676  0.00  0.00     0.135 C 
ATOM     24  HN  UNK N   1      30.065  17.885   5.891  1.00  0.00     0.162 HD
BRANCH  23  25
HETATM   25  C   UNK N   1      30.410  16.192   4.217  0.00  0.00     0.162 C 
BRANCH  25  26
HETATM   26  C   UNK N   1      31.159  17.490   3.757  0.00  0.00     0.072 C 
BRANCH  26  27
HETATM   27  C   UNK N   1      32.597  17.096   3.790  0.00  0.00    -0.056 C 
HETATM   28  C   UNK N   1      32.929  15.905   3.132  0.00  0.00     0.008 C 
HETATM   29  C   UNK N   1      33.832  15.022   3.711  0.00  0.00     0.014 C 
HETATM   30  C   UNK N   1      34.399  15.324   4.955  0.00  0.00     0.025 C 
HETATM   31  C   UNK N   1      34.187  16.581   5.531  0.00  0.00     0.014 C 
HETATM   32  C   UNK N   1      33.285  17.463   4.953  0.00  0.00     0.008 C 
BRANCH  30  33
HETATM   33  C   UNK N   1      35.104  14.258   5.729  0.00  0.00     0.364 C 
HETATM   34  F   UNK N   1      35.514  14.789   6.942  0.00  0.00    -0.187 F 
HETATM   35  F   UNK N   1      36.225  13.816   5.047  0.00  0.00    -0.187 F 
BRANCH  33  36
HETATM   36  P   UNK N   1      33.980  12.828   6.038  0.00  0.00     0.315 P 
HETATM   37  O   UNK N   1      32.628  13.331   6.609  0.00  0.00    -0.649 OA
BRANCH  36  38
HETATM   38  O   UNK N   1      33.550  11.918   4.624  0.00  0.00    -0.325 OA
HETATM   39  H   UNK N   1      33.300  10.985   4.556  0.00  0.00     0.220 HD
ENDBRANCH  36  38
BRANCH  36  40
HETATM   40  O   UNK N   1      34.573  11.712   7.224  0.00  0.00    -0.325 OA
HETATM   41  H   UNK N   1      35.365  11.689   7.784  0.00  0.00     0.220 HD
ENDBRANCH  36  40
ENDBRANCH  33  36
ENDBRANCH  30  33
ENDBRANCH  26  27
ENDBRANCH  25  26
BRANCH  25  42
HETATM   42  N   UNK N   1      29.143  15.975   3.558  0.00  0.00    -0.360 N 
HETATM   43  C   UNK N   1      28.672  14.830   3.212  0.00  0.00     0.135 C 
ATOM     44  HN  UNK N   1      28.576  16.798   3.350  1.00  0.00     0.162 HD
BRANCH  43  45
HETATM   45  C   UNK N   1      27.353  14.750   2.497  0.00  0.00     0.158 C 
BRANCH  45  46
HETATM   46  C   UNK N   1      26.503  13.547   2.947  0.00  0.00     0.044 C 
BRANCH  46  47
HETATM   47  C   UNK N   1      26.163  12.589   1.808  0.00  0.00     0.112 C 
BRANCH  47  48
HETATM   48  C   UNK N   1      27.086  11.406   1.781  0.00  0.00     0.139 C 
HETATM   49  O   UNK N   1      27.969  11.289   2.615  0.00  0.00    -0.650 OA
BRANCH  48  50
HETATM   50  O   UNK N   1      26.953  10.481   0.812  0.00  0.00    -0.776 OA
HETATM   51  H   UNK N   1      26.336   9.785   0.701  0.00  0.00     0.167 HD
ENDBRANCH  48  50
ENDBRANCH  47  48
ENDBRANCH  46  47
ENDBRANCH  45  46
BRANCH  45  52
HETATM   52  N   UNK N   1      26.669  16.017   2.665  0.00  0.00    -0.358 N 
HETATM   53  C   UNK N   1      26.309  16.514   3.797  0.00  0.00     0.146 C 
ATOM     54  HN  UNK N   1      26.457  16.553   1.824  1.00  0.00     0.162 HD
BRANCH  53  55
HETATM   55  C   UNK N   1      25.854  17.911   3.852  0.00  0.00     0.014 A 
HETATM   56  C   UNK N   1      24.479  18.198   3.813  0.00  0.00     0.016 A 
HETATM   57  C   UNK N   1      24.038  19.520   3.750  0.00  0.00     0.001 A 
HETATM   58  C   UNK N   1      24.966  20.563   3.703  0.00  0.00     0.000 A 
HETATM   59  C   UNK N   1      26.336  20.283   3.737  0.00  0.00     0.001 A 
HETATM   60  C   UNK N   1      26.778  18.960   3.812  0.00  0.00     0.016 A 
ENDBRANCH  53  55
BRANCH  53  61
HETATM   61  O   UNK N   1      26.486  15.823   4.952  0.00  0.00    -0.346 OA
HETATM   62  H   UNK N   1      26.468  16.080   5.853  0.00  0.00     0.219 HD
ENDBRANCH  53  61
ENDBRANCH  45  52
ENDBRANCH  43  45
BRANCH  43  63
HETATM   63  O   UNK N   1      29.350  13.693   3.474  0.00  0.00    -0.348 OA
HETATM   64  H   UNK N   1      29.353  12.766   3.610  0.00  0.00     0.219 HD
ENDBRANCH  43  63
ENDBRANCH  25  42
ENDBRANCH  23  25
BRANCH  23  65
HETATM   65  O   UNK N   1      30.345  14.714   6.193  0.00  0.00    -0.348 OA
HETATM   66  H   UNK N   1      29.845  14.399   6.922  0.00  0.00     0.219 HD
ENDBRANCH  23  65
ENDBRANCH  15  22
ENDBRANCH  14  15
ENDBRANCH  11  14
ENDBRANCH   5   8
ENDBRANCH   3   5
BRANCH   3  67
HETATM   67  O   UNK N   1      37.938  14.946  10.182  0.00  0.00    -0.325 OA
HETATM   68  H   UNK N   1      38.204  15.133   9.269  0.00  0.00     0.220 HD
ENDBRANCH   3  67
TORSDOF 26
ENDMDL
MODEL 9
REMARK VINA RESULT:      -7.1      3.829      9.850
REMARK  26 active torsions:
REMARK  status: ('A' for Active; 'I' for Inactive)
REMARK    1  A    between atoms: C_15  and  C_14 
REMARK    2  A    between atoms: C_23  and  C_14 
REMARK    3  A    between atoms: C_26  and  C_15 
REMARK    4  A    between atoms: C_18  and  C_16 
REMARK    5  A    between atoms: C_24  and  C_16 
REMARK    6  A    between atoms: C_19  and  C_17 
REMARK    7  A    between atoms: C_25  and  C_17 
REMARK    8  A    between atoms: C_28  and  C_20 
REMARK    9  A    between atoms: C_31  and  C_21 
REMARK   10  A    between atoms: C_32  and  C_22 
REMARK   11  A    between atoms: C_29  and  C_23 
REMARK   12  A    between atoms: C_23  and  N_39 
REMARK   13  A    between atoms: C_27  and  C_24 
REMARK   14  A    between atoms: C_24  and  N_41 
REMARK   15  A    between atoms: C_30  and  C_25 
REMARK   16  A    between atoms: C_25  and  N_43 
REMARK   17  A    between atoms: O_46  and  C_26 
REMARK   18  A    between atoms: O_47  and  C_27 
REMARK   19  A    between atoms: C_28  and  O_48 
REMARK   20  A    between atoms: C_29  and  O_49 
REMARK   21  A    between atoms: C_30  and  O_50 
REMARK   22  A    between atoms: P_57  and  C_31 
REMARK   23  A    between atoms: P_58  and  C_32 
REMARK   24  A    between atoms: P_57  and  O_51 
REMARK   25  A    between atoms: P_58  and  O_54 
REMARK   26  A    between atoms: P_58  and  O_55 
ROOT
HETATM    1  O   UNK N   1      20.713  18.696   7.505  0.00  0.00    -0.325 OA
HETATM    2  O   UNK N   1      22.241  16.742   6.765  0.00  0.00    -0.649 OA
HETATM    3  P   UNK N   1      20.963  17.478   6.290  0.00  0.00     0.315 P 
HETATM    4  H   UNK N   1      20.613  19.397   8.169  0.00  0.00     0.220 HD
ENDROOT
BRANCH   3   5
HETATM    5  C   UNK N   1      21.191  18.159   4.556  0.00  0.00     0.364 C 
HETATM    6  F   UNK N   1      21.117  19.539   4.566  0.00  0.00    -0.187 F 
HETATM    7  F   UNK N   1      20.147  17.662   3.793  0.00  0.00    -0.187 F 
BRANCH   5   8
HETATM    8  C   UNK N   1      22.458  17.672   3.908  0.00  0.00     0.025 C 
HETATM    9  C   UNK N   1      23.628  18.439   3.980  0.00  0.00     0.014 C 
HETATM   10  C   UNK N   1      24.866  17.849   3.801  0.00  0.00     0.008 C 
HETATM   11  C   UNK N   1      24.944  16.494   3.522  0.00  0.00    -0.056 C 
HETATM   12  C   UNK N   1      23.779  15.751   3.282  0.00  0.00     0.008 C 
HETATM   13  C   UNK N   1      22.532  16.339   3.483  0.00  0.00     0.014 C 
BRANCH  11  14
HETATM   14  C   UNK N   1      26.227  15.817   3.839  0.00  0.00     0.072 C 
BRANCH  14  15
HETATM   15  C   UNK N   1      27.174  16.725   4.661  0.00  0.00     0.161 C 
BRANCH  15  16
HETATM   16  C   UNK N   1      26.877  16.959   6.144  0.00  0.00     0.132 C 
HETATM   17  N   UNK N   1      27.397  17.969   6.742  0.00  0.00    -0.382 N 
HETATM   18  H   UNK N   1      27.041  18.314   7.592  0.00  0.00     0.158 HD
ATOM     19  HN  UNK N   1      28.205  18.428   6.322  1.00  0.00     0.158 HD
BRANCH  16  20
HETATM   20  O   UNK N   1      26.058  16.144   6.836  0.00  0.00    -0.348 OA
HETATM   21  H   UNK N   1      26.294  15.263   7.049  0.00  0.00     0.219 HD
ENDBRANCH  16  20
ENDBRANCH  15  16
BRANCH  15  22
HETATM   22  N   UNK N   1      28.504  16.243   4.389  0.00  0.00    -0.360 N 
HETATM   23  C   UNK N   1      29.633  16.866   4.308  0.00  0.00     0.135 C 
ATOM     24  HN  UNK N   1      28.565  15.237   4.232  1.00  0.00     0.162 HD
BRANCH  23  25
HETATM   25  C   UNK N   1      30.821  16.037   3.986  0.00  0.00     0.162 C 
BRANCH  25  26
HETATM   26  C   UNK N   1      31.923  16.666   3.067  0.00  0.00     0.072 C 
BRANCH  26  27
HETATM   27  C   UNK N   1      33.145  16.650   3.923  0.00  0.00    -0.056 C 
HETATM   28  C   UNK N   1      33.685  15.390   4.208  0.00  0.00     0.008 C 
HETATM   29  C   UNK N   1      34.149  15.109   5.487  0.00  0.00     0.014 C 
HETATM   30  C   UNK N   1      34.065  16.086   6.487  0.00  0.00     0.025 C 
HETATM   31  C   UNK N   1      33.674  17.388   6.159  0.00  0.00     0.014 C 
HETATM   32  C   UNK N   1      33.210  17.668   4.881  0.00  0.00     0.008 C 
BRANCH  30  33
HETATM   33  C   UNK N   1      34.252  15.702   7.919  0.00  0.00     0.364 C 
HETATM   34  F   UNK N   1      34.602  16.833   8.639  0.00  0.00    -0.187 F 
HETATM   35  F   UNK N   1      35.269  14.771   8.049  0.00  0.00    -0.187 F 
BRANCH  33  36
HETATM   36  P   UNK N   1      32.694  14.996   8.611  0.00  0.00     0.315 P 
HETATM   37  O   UNK N   1      31.466  15.711   7.988  0.00  0.00    -0.649 OA
BRANCH  36  38
HETATM   38  O   UNK N   1      32.441  13.313   8.272  0.00  0.00    -0.325 OA
HETATM   39  H   UNK N   1      31.865  12.682   8.730  0.00  0.00     0.220 HD
ENDBRANCH  36  38
BRANCH  36  40
HETATM   40  O   UNK N   1      32.519  15.223  10.320  0.00  0.00    -0.325 OA
HETATM   41  H   UNK N   1      32.966  14.847  11.094  0.00  0.00     0.220 HD
ENDBRANCH  36  40
ENDBRANCH  33  36
ENDBRANCH  30  33
ENDBRANCH  26  27
ENDBRANCH  25  26
BRANCH  25  42
HETATM   42  N   UNK N   1      30.401  14.714   3.584  0.00  0.00    -0.360 N 
HETATM   43  C   UNK N   1      30.404  13.673   4.337  0.00  0.00     0.135 C 
ATOM     44  HN  UNK N   1      30.076  14.597   2.623  1.00  0.00     0.162 HD
BRANCH  43  45
HETATM   45  C   UNK N   1      29.974  12.346   3.779  0.00  0.00     0.158 C 
BRANCH  45  46
HETATM   46  C   UNK N   1      30.588  11.153   4.537  0.00  0.00     0.044 C 
BRANCH  46  47
HETATM   47  C   UNK N   1      32.020  10.839   4.109  0.00  0.00     0.112 C 
BRANCH  47  48
HETATM   48  C   UNK N   1      32.987  10.992   5.246  0.00  0.00     0.139 C 
HETATM   49  O   UNK N   1      32.620  11.457   6.314  0.00  0.00    -0.650 OA
BRANCH  48  50
HETATM   50  O   UNK N   1      34.275  10.640   5.076  0.00  0.00    -0.776 OA
HETATM   51  H   UNK N   1      34.808  10.596   4.306  0.00  0.00     0.167 HD
ENDBRANCH  48  50
ENDBRANCH  47  48
ENDBRANCH  46  47
ENDBRANCH  45  46
BRANCH  45  52
HETATM   52  N   UNK N   1      28.526  12.312   3.755  0.00  0.00    -0.358 N 
HETATM   53  C   UNK N   1      27.798  12.690   2.762  0.00  0.00     0.146 C 
ATOM     54  HN  UNK N   1      28.048  11.964   4.586  1.00  0.00     0.162 HD
BRANCH  53  55
HETATM   55  C   UNK N   1      26.363  12.371   2.765  0.00  0.00     0.014 A 
HETATM   56  C   UNK N   1      25.627  12.454   1.570  0.00  0.00     0.016 A 
HETATM   57  C   UNK N   1      24.245  12.264   1.580  0.00  0.00     0.001 A 
HETATM   58  C   UNK N   1      23.585  12.014   2.785  0.00  0.00     0.000 A 
HETATM   59  C   UNK N   1      24.310  11.936   3.978  0.00  0.00     0.001 A 
HETATM   60  C   UNK N   1      25.696  12.113   3.967  0.00  0.00     0.016 A 
ENDBRANCH  53  55
BRANCH  53  61
HETATM   61  O   UNK N   1      28.358  13.238   1.654  0.00  0.00    -0.346 OA
HETATM   62  H   UNK N   1      27.991  13.586   0.865  0.00  0.00     0.219 HD
ENDBRANCH  53  61
ENDBRANCH  45  52
ENDBRANCH  43  45
BRANCH  43  63
HETATM   63  O   UNK N   1      30.795  13.751   5.627  0.00  0.00    -0.348 OA
HETATM   64  H   UNK N   1      30.808  13.390   6.491  0.00  0.00     0.219 HD
ENDBRANCH  43  63
ENDBRANCH  25  42
ENDBRANCH  23  25
BRANCH  23  65
HETATM   65  O   UNK N   1      29.739  18.201   4.472  0.00  0.00    -0.348 OA
HETATM   66  H   UNK N   1      30.501  18.711   4.275  0.00  0.00     0.219 HD
ENDBRANCH  23  65
ENDBRANCH  15  22
ENDBRANCH  14  15
ENDBRANCH  11  14
ENDBRANCH   5   8
ENDBRANCH   3   5
BRANCH   3  67
HETATM   67  O   UNK N   1      19.689  16.317   6.475  0.00  0.00    -0.325 OA
HETATM   68  H   UNK N   1      19.762  15.535   7.045  0.00  0.00     0.220 HD
ENDBRANCH   3  67
TORSDOF 26
ENDMDL
