REMARK  4 active torsions:
REMARK  status: ('A' for Active; 'I' for Inactive)
REMARK    1  A    between atoms: O_1  and  C_2 
REMARK    2  A    between atoms: C_2  and  C_3 
REMARK    3  A    between atoms: C_3  and  C_4 
REMARK    4  A    between atoms: C_4  and  O_5 
ROOT
HETATM    1  C   UNK N   1       1.948   0.800  -0.000  0.00  0.00     0.136 C 
ENDROOT
BRANCH   1   2
HETATM    2  C   UNK N   1       1.160   2.097   0.000  0.00  0.00     0.174 C 
BRANCH   2   3
HETATM    3  O   UNK N   1       2.054   3.166  -0.000  0.00  0.00    -0.400 OA
HETATM    4  H   UNK N   1       3.009   2.999  -0.000  0.00  0.00     0.209 HD
ENDBRANCH   2   3
ENDBRANCH   1   2
BRANCH   1   5
HETATM    5  C   UNK N   1       1.080  -0.422   0.000  0.00  0.00     0.141 C 
HETATM    6  O   UNK N   1      -0.137  -0.335  -0.000  0.00  0.00    -0.650 OA
BRANCH   5   7
HETATM    7  O   UNK N   1       1.662  -1.636   0.000  0.00  0.00    -0.776 OA
HETATM    8  H   UNK N   1       1.133  -2.409   0.000  0.00  0.00     0.167 HD
ENDBRANCH   5   7
ENDBRANCH   1   5
TORSDOF 4
