REMARK  8 active torsions:
REMARK  status: ('A' for Active; 'I' for Inactive)
REMARK    1  A    between atoms: C_3  and  O_4 
REMARK    2  A    between atoms: C_5  and  C_6 
REMARK    3  A    between atoms: C_8  and  C_9 
REMARK    4  A    between atoms: C_9  and  O_10 
REMARK    5  A    between atoms: O_10  and  P_11 
REMARK    6  A    between atoms: P_11  and  O_12 
REMARK    7  A    between atoms: P_11  and  O_13 
REMARK    8  A    between atoms: N_16  and  O_17 
ROOT
HETATM    1  C   UNK N   1       3.567   2.160  -0.734  0.00  0.00     0.074 C 
HETATM    2  C   UNK N   1       2.328   1.389  -0.397  0.00  0.00     0.070 A 
HETATM    3  C   UNK N   1       2.385  -0.008  -0.296  0.00  0.00     0.104 A 
HETATM    4  C   UNK N   1       1.226  -0.731   0.029  0.00  0.00     0.046 A 
HETATM    5  C   UNK N   1       0.027  -0.024   0.270  0.00  0.00     0.000 A 
HETATM    6  C   UNK N   1       0.018   1.367   0.146  0.00  0.00     0.133 A 
HETATM    7  N   UNK N   1       1.149   2.047  -0.190  0.00  0.00    -0.237 N 
ENDROOT
BRANCH   5   8
HETATM    8  C   UNK N   1      -1.214  -0.718   0.734  0.00  0.00     0.221 C 
BRANCH   8   9
HETATM    9  O   UNK N   1      -2.237  -0.663  -0.214  0.00  0.00    -0.292 OA
BRANCH   9  10
HETATM   10  P   UNK N   1      -3.611  -1.320   0.629  0.00  0.00     0.391 P 
HETATM   11  O   UNK N   1      -3.200  -2.513  -0.278  0.00  0.00    -0.632 OA
BRANCH  10  12
HETATM   12  O   UNK N   1      -5.079  -1.688  -0.218  0.00  0.00    -0.307 OA
HETATM   13  H   UNK N   1      -5.667  -1.080  -0.692  0.00  0.00     0.222 HD
ENDBRANCH  10  12
BRANCH  10  14
HETATM   14  O   UNK N   1      -4.103   0.024  -0.352  0.00  0.00    -0.307 OA
HETATM   15  H   UNK N   1      -3.590   0.638  -0.900  0.00  0.00     0.222 HD
ENDBRANCH  10  14
ENDBRANCH   9  10
ENDBRANCH   8   9
ENDBRANCH   5   8
BRANCH   4  16
HETATM   16  C   UNK N   1       1.318  -2.211   0.109  0.00  0.00     0.273 C 
HETATM   17  O   UNK N   1       0.335  -2.919   0.263  0.00  0.00    -0.301 OA
ENDBRANCH   4  16
BRANCH   3  18
HETATM   18  O   UNK N   1       3.549  -0.654  -0.505  0.00  0.00    -0.358 OA
HETATM   19  H   UNK N   1       3.565  -1.579  -0.651  0.00  0.00     0.217 HD
ENDBRANCH   3  18
BRANCH   7  20
HETATM   20  O   UNK N   1       1.094   3.370  -0.297  0.00  0.00    -0.283 OA
ATOM     21  HO  UNK N   1       1.884   3.844  -0.531  1.00  0.00     0.245 HD
ENDBRANCH   7  20
TORSDOF 8
