MODEL 1
REMARK VINA RESULT:      -7.0      0.000      0.000
REMARK  2 active torsions:
REMARK  status: ('A' for Active; 'I' for Inactive)
REMARK    1  A    between atoms: C_5  and  N_10 
REMARK    2  A    between atoms: C_6  and  N_7 
ROOT
HETATM    1  C   UNK N   1      35.341  16.908  10.085  0.00  0.00     0.070 A 
HETATM    2  C   UNK N   1      35.225  15.832  10.946  0.00  0.00     0.064 A 
HETATM    3  C   UNK N   1      34.262  14.850  10.705  0.00  0.00     0.064 A 
HETATM    4  C   UNK N   1      33.433  14.953   9.603  0.00  0.00     0.070 A 
HETATM    5  C   UNK N   1      33.518  16.025   8.698  0.00  0.00     0.138 A 
HETATM    6  C   UNK N   1      34.517  17.058   8.956  0.00  0.00     0.138 A 
HETATM    7  N   UNK N   1      34.144  13.797  11.553  0.00  0.00    -0.317 N 
HETATM    8  C   UNK N   1      34.962  13.683  12.645  0.00  0.00     0.314 A 
HETATM    9  O   UNK N   1      34.842  12.731  13.394  0.00  0.00    -0.262 OA
HETATM   10  C   UNK N   1      35.933  14.668  12.884  0.00  0.00     0.314 A 
HETATM   11  O   UNK N   1      36.675  14.591  13.846  0.00  0.00    -0.262 OA
HETATM   12  N   UNK N   1      36.042  15.728  12.023  0.00  0.00    -0.317 N 
HETATM   13  H   UNK N   1      33.462  13.108  11.381  0.00  0.00     0.169 HD
HETATM   14  H   UNK N   1      36.722  16.421  12.188  0.00  0.00     0.169 HD
ENDROOT
BRANCH   5  15
HETATM   15  N   UNK N   1      32.595  15.973   7.597  0.00  0.00    -0.113 N 
HETATM   16  O   UNK N   1      32.768  15.276   6.651  0.00  0.00    -0.532 OA
HETATM   17  O   UNK N   1      31.488  16.686   7.656  0.00  0.00    -0.532 OA
ENDBRANCH   5  15
BRANCH   6  18
HETATM   18  N   UNK N   1      34.757  18.241   8.175  0.00  0.00    -0.113 N 
HETATM   19  O   UNK N   1      35.257  19.217   8.631  0.00  0.00    -0.532 OA
HETATM   20  O   UNK N   1      34.460  18.232   6.890  0.00  0.00    -0.532 OA
ENDBRANCH   6  18
TORSDOF 2
ENDMDL
MODEL 2
REMARK VINA RESULT:      -6.9      0.043      2.860
REMARK  2 active torsions:
REMARK  status: ('A' for Active; 'I' for Inactive)
REMARK    1  A    between atoms: C_5  and  N_10 
REMARK    2  A    between atoms: C_6  and  N_7 
ROOT
HETATM    1  C   UNK N   1      33.404  14.972   9.619  0.00  0.00     0.070 A 
HETATM    2  C   UNK N   1      34.249  14.859  10.708  0.00  0.00     0.064 A 
HETATM    3  C   UNK N   1      35.230  15.827  10.930  0.00  0.00     0.064 A 
HETATM    4  C   UNK N   1      35.347  16.900  10.065  0.00  0.00     0.070 A 
HETATM    5  C   UNK N   1      34.507  17.060   8.949  0.00  0.00     0.138 A 
HETATM    6  C   UNK N   1      33.489  16.041   8.710  0.00  0.00     0.138 A 
HETATM    7  N   UNK N   1      36.063  15.714  11.994  0.00  0.00    -0.317 N 
HETATM    8  C   UNK N   1      35.953  14.658  12.859  0.00  0.00     0.314 A 
HETATM    9  O   UNK N   1      36.710  14.572  13.809  0.00  0.00    -0.262 OA
HETATM   10  C   UNK N   1      34.964  13.686  12.638  0.00  0.00     0.314 A 
HETATM   11  O   UNK N   1      34.843  12.738  13.392  0.00  0.00    -0.262 OA
HETATM   12  N   UNK N   1      34.130  13.810  11.559  0.00  0.00    -0.317 N 
HETATM   13  H   UNK N   1      36.755  16.398  12.146  0.00  0.00     0.169 HD
HETATM   14  H   UNK N   1      33.435  13.130  11.401  0.00  0.00     0.169 HD
ENDROOT
BRANCH   5  15
HETATM   15  N   UNK N   1      34.750  18.238   8.161  0.00  0.00    -0.113 N 
HETATM   16  O   UNK N   1      35.260  19.212   8.610  0.00  0.00    -0.532 OA
HETATM   17  O   UNK N   1      34.445  18.225   6.879  0.00  0.00    -0.532 OA
ENDBRANCH   5  15
BRANCH   6  18
HETATM   18  N   UNK N   1      32.547  16.000   7.625  0.00  0.00    -0.113 N 
HETATM   19  O   UNK N   1      31.540  16.629   7.629  0.00  0.00    -0.532 OA
HETATM   20  O   UNK N   1      32.830  15.277   6.559  0.00  0.00    -0.532 OA
ENDBRANCH   6  18
TORSDOF 2
ENDMDL
MODEL 3
REMARK VINA RESULT:      -6.8     13.800     15.368
REMARK  2 active torsions:
REMARK  status: ('A' for Active; 'I' for Inactive)
REMARK    1  A    between atoms: C_5  and  N_10 
REMARK    2  A    between atoms: C_6  and  N_7 
ROOT
HETATM    1  C   UNK N   1      22.226  18.621   4.204  0.00  0.00     0.070 A 
HETATM    2  C   UNK N   1      21.202  17.723   4.441  0.00  0.00     0.064 A 
HETATM    3  C   UNK N   1      20.084  17.707   3.606  0.00  0.00     0.064 A 
HETATM    4  C   UNK N   1      20.008  18.583   2.539  0.00  0.00     0.070 A 
HETATM    5  C   UNK N   1      21.027  19.510   2.255  0.00  0.00     0.138 A 
HETATM    6  C   UNK N   1      22.191  19.535   3.136  0.00  0.00     0.138 A 
HETATM    7  N   UNK N   1      19.076  16.830   3.842  0.00  0.00    -0.317 N 
HETATM    8  C   UNK N   1      19.142  15.955   4.893  0.00  0.00     0.314 A 
HETATM    9  O   UNK N   1      18.228  15.175   5.090  0.00  0.00    -0.262 OA
HETATM   10  C   UNK N   1      20.269  15.968   5.731  0.00  0.00     0.314 A 
HETATM   11  O   UNK N   1      20.355  15.200   6.671  0.00  0.00    -0.262 OA
HETATM   12  N   UNK N   1      21.279  16.859   5.484  0.00  0.00    -0.317 N 
HETATM   13  H   UNK N   1      18.288  16.823   3.251  0.00  0.00     0.169 HD
HETATM   14  H   UNK N   1      22.070  16.872   6.071  0.00  0.00     0.169 HD
ENDROOT
BRANCH   5  15
HETATM   15  N   UNK N   1      20.800  20.337   1.101  0.00  0.00    -0.113 N 
HETATM   16  O   UNK N   1      20.708  19.891   0.005  0.00  0.00    -0.532 OA
HETATM   17  O   UNK N   1      20.636  21.634   1.266  0.00  0.00    -0.532 OA
ENDBRANCH   5  15
BRANCH   6  18
HETATM   18  N   UNK N   1      23.328  20.410   3.040  0.00  0.00    -0.113 N 
HETATM   19  O   UNK N   1      23.222  21.592   3.006  0.00  0.00    -0.532 OA
HETATM   20  O   UNK N   1      24.539  19.888   3.039  0.00  0.00    -0.532 OA
ENDBRANCH   6  18
TORSDOF 2
ENDMDL
MODEL 4
REMARK VINA RESULT:      -6.6     13.784     15.510
REMARK  2 active torsions:
REMARK  status: ('A' for Active; 'I' for Inactive)
REMARK    1  A    between atoms: C_5  and  N_10 
REMARK    2  A    between atoms: C_6  and  N_7 
ROOT
HETATM    1  C   UNK N   1      19.992  18.635   2.615  0.00  0.00     0.070 A 
HETATM    2  C   UNK N   1      20.086  17.709   3.638  0.00  0.00     0.064 A 
HETATM    3  C   UNK N   1      21.233  17.665   4.433  0.00  0.00     0.064 A 
HETATM    4  C   UNK N   1      22.267  18.553   4.200  0.00  0.00     0.070 A 
HETATM    5  C   UNK N   1      22.214  19.515   3.176  0.00  0.00     0.138 A 
HETATM    6  C   UNK N   1      21.020  19.553   2.337  0.00  0.00     0.138 A 
HETATM    7  N   UNK N   1      21.327  16.754   5.433  0.00  0.00    -0.317 N 
HETATM    8  C   UNK N   1      20.308  15.872   5.675  0.00  0.00     0.314 A 
HETATM    9  O   UNK N   1      20.410  15.061   6.576  0.00  0.00    -0.262 OA
HETATM   10  C   UNK N   1      19.153  15.919   4.877  0.00  0.00     0.314 A 
HETATM   11  O   UNK N   1      18.230  15.149   5.072  0.00  0.00    -0.262 OA
HETATM   12  N   UNK N   1      19.069  16.842   3.870  0.00  0.00    -0.317 N 
HETATM   13  H   UNK N   1      22.139  16.725   5.991  0.00  0.00     0.169 HD
HETATM   14  H   UNK N   1      18.261  16.877   3.308  0.00  0.00     0.169 HD
ENDROOT
BRANCH   5  15
HETATM   15  N   UNK N   1      23.365  20.372   3.078  0.00  0.00    -0.113 N 
HETATM   16  O   UNK N   1      24.473  19.948   3.028  0.00  0.00    -0.532 OA
HETATM   17  O   UNK N   1      23.187  21.675   2.990  0.00  0.00    -0.532 OA
ENDBRANCH   5  15
BRANCH   6  18
HETATM   18  N   UNK N   1      20.771  20.436   1.229  0.00  0.00    -0.113 N 
HETATM   19  O   UNK N   1      20.616  21.605   1.367  0.00  0.00    -0.532 OA
HETATM   20  O   UNK N   1      20.763  19.943   0.007  0.00  0.00    -0.532 OA
ENDBRANCH   6  18
TORSDOF 2
ENDMDL
MODEL 5
REMARK VINA RESULT:      -6.5      1.726      5.957
REMARK  2 active torsions:
REMARK  status: ('A' for Active; 'I' for Inactive)
REMARK    1  A    between atoms: C_5  and  N_10 
REMARK    2  A    between atoms: C_6  and  N_7 
ROOT
HETATM    1  C   UNK N   1      34.743  13.991   9.123  0.00  0.00     0.070 A 
HETATM    2  C   UNK N   1      34.747  15.356   8.901  0.00  0.00     0.064 A 
HETATM    3  C   UNK N   1      34.970  16.233   9.964  0.00  0.00     0.064 A 
HETATM    4  C   UNK N   1      35.194  15.734  11.234  0.00  0.00     0.070 A 
HETATM    5  C   UNK N   1      35.206  14.354  11.506  0.00  0.00     0.138 A 
HETATM    6  C   UNK N   1      34.961  13.437  10.397  0.00  0.00     0.138 A 
HETATM    7  N   UNK N   1      34.967  17.572   9.748  0.00  0.00    -0.317 N 
HETATM    8  C   UNK N   1      34.749  18.078   8.494  0.00  0.00     0.314 A 
HETATM    9  O   UNK N   1      34.750  19.282   8.318  0.00  0.00    -0.262 OA
HETATM   10  C   UNK N   1      34.529  17.195   7.424  0.00  0.00     0.314 A 
HETATM   11  O   UNK N   1      34.335  17.617   6.299  0.00  0.00    -0.262 OA
HETATM   12  N   UNK N   1      34.532  15.846   7.655  0.00  0.00    -0.317 N 
HETATM   13  H   UNK N   1      35.123  18.188  10.501  0.00  0.00     0.169 HD
HETATM   14  H   UNK N   1      34.377  15.224   6.907  0.00  0.00     0.169 HD
ENDROOT
BRANCH   5  15
HETATM   15  N   UNK N   1      35.471  14.002  12.875  0.00  0.00    -0.113 N 
HETATM   16  O   UNK N   1      36.411  14.417  13.471  0.00  0.00    -0.532 OA
HETATM   17  O   UNK N   1      34.615  13.229  13.514  0.00  0.00    -0.532 OA
ENDBRANCH   5  15
BRANCH   6  18
HETATM   18  N   UNK N   1      34.909  12.002  10.459  0.00  0.00    -0.113 N 
HETATM   19  O   UNK N   1      33.934  11.386  10.178  0.00  0.00    -0.532 OA
HETATM   20  O   UNK N   1      35.997  11.336  10.791  0.00  0.00    -0.532 OA
ENDBRANCH   6  18
TORSDOF 2
ENDMDL
MODEL 6
REMARK VINA RESULT:      -6.5      1.714      5.483
REMARK  2 active torsions:
REMARK  status: ('A' for Active; 'I' for Inactive)
REMARK    1  A    between atoms: C_5  and  N_10 
REMARK    2  A    between atoms: C_6  and  N_7 
ROOT
HETATM    1  C   UNK N   1      35.191  15.720  11.236  0.00  0.00     0.070 A 
HETATM    2  C   UNK N   1      34.962  16.225   9.969  0.00  0.00     0.064 A 
HETATM    3  C   UNK N   1      34.711  15.354   8.907  0.00  0.00     0.064 A 
HETATM    4  C   UNK N   1      34.685  13.989   9.127  0.00  0.00     0.070 A 
HETATM    5  C   UNK N   1      34.906  13.430  10.398  0.00  0.00     0.138 A 
HETATM    6  C   UNK N   1      35.180  14.340  11.506  0.00  0.00     0.138 A 
HETATM    7  N   UNK N   1      34.492  15.850   7.664  0.00  0.00    -0.317 N 
HETATM    8  C   UNK N   1      34.512  17.200   7.435  0.00  0.00     0.314 A 
HETATM    9  O   UNK N   1      34.314  17.627   6.312  0.00  0.00    -0.262 OA
HETATM   10  C   UNK N   1      34.760  18.076   8.504  0.00  0.00     0.314 A 
HETATM   11  O   UNK N   1      34.782  19.281   8.329  0.00  0.00    -0.262 OA
HETATM   12  N   UNK N   1      34.982  17.565   9.754  0.00  0.00    -0.317 N 
HETATM   13  H   UNK N   1      34.318  15.232   6.917  0.00  0.00     0.169 HD
HETATM   14  H   UNK N   1      35.157  18.176  10.506  0.00  0.00     0.169 HD
ENDROOT
BRANCH   5  15
HETATM   15  N   UNK N   1      34.828  11.995  10.459  0.00  0.00    -0.113 N 
HETATM   16  O   UNK N   1      33.869  11.393  10.103  0.00  0.00    -0.532 OA
HETATM   17  O   UNK N   1      35.877  11.314  10.878  0.00  0.00    -0.532 OA
ENDBRANCH   5  15
BRANCH   6  18
HETATM   18  N   UNK N   1      35.453  13.981  12.871  0.00  0.00    -0.113 N 
HETATM   19  O   UNK N   1      36.398  14.389  13.462  0.00  0.00    -0.532 OA
HETATM   20  O   UNK N   1      34.598  13.209  13.513  0.00  0.00    -0.532 OA
ENDBRANCH   6  18
TORSDOF 2
ENDMDL
MODEL 7
REMARK VINA RESULT:      -6.5      3.999      6.275
REMARK  2 active torsions:
REMARK  status: ('A' for Active; 'I' for Inactive)
REMARK    1  A    between atoms: C_5  and  N_10 
REMARK    2  A    between atoms: C_6  and  N_7 
ROOT
HETATM    1  C   UNK N   1      31.749  16.637   6.266  0.00  0.00     0.070 A 
HETATM    2  C   UNK N   1      30.666  16.953   7.066  0.00  0.00     0.064 A 
HETATM    3  C   UNK N   1      30.868  17.597   8.288  0.00  0.00     0.064 A 
HETATM    4  C   UNK N   1      32.150  17.925   8.690  0.00  0.00     0.070 A 
HETATM    5  C   UNK N   1      33.281  17.629   7.908  0.00  0.00     0.138 A 
HETATM    6  C   UNK N   1      33.070  16.945   6.635  0.00  0.00     0.138 A 
HETATM    7  N   UNK N   1      29.807  17.901   9.075  0.00  0.00    -0.317 N 
HETATM    8  C   UNK N   1      28.533  17.585   8.685  0.00  0.00     0.314 A 
HETATM    9  O   UNK N   1      27.592  17.866   9.405  0.00  0.00    -0.262 OA
HETATM   10  C   UNK N   1      28.329  16.941   7.454  0.00  0.00     0.314 A 
HETATM   11  O   UNK N   1      27.207  16.650   7.082  0.00  0.00    -0.262 OA
HETATM   12  N   UNK N   1      29.408  16.637   6.668  0.00  0.00    -0.317 N 
HETATM   13  H   UNK N   1      29.954  18.354   9.938  0.00  0.00     0.169 HD
HETATM   14  H   UNK N   1      29.269  16.184   5.805  0.00  0.00     0.169 HD
ENDROOT
BRANCH   5  15
HETATM   15  N   UNK N   1      34.538  18.052   8.463  0.00  0.00    -0.113 N 
HETATM   16  O   UNK N   1      35.003  19.123   8.247  0.00  0.00    -0.532 OA
HETATM   17  O   UNK N   1      35.180  17.243   9.283  0.00  0.00    -0.532 OA
ENDBRANCH   5  15
BRANCH   6  18
HETATM   18  N   UNK N   1      34.081  16.533   5.699  0.00  0.00    -0.113 N 
HETATM   19  O   UNK N   1      35.171  16.208   6.038  0.00  0.00    -0.532 OA
HETATM   20  O   UNK N   1      33.776  16.465   4.418  0.00  0.00    -0.532 OA
ENDBRANCH   6  18
TORSDOF 2
ENDMDL
MODEL 8
REMARK VINA RESULT:      -6.3      3.938      5.884
REMARK  2 active torsions:
REMARK  status: ('A' for Active; 'I' for Inactive)
REMARK    1  A    between atoms: C_5  and  N_10 
REMARK    2  A    between atoms: C_6  and  N_7 
ROOT
HETATM    1  C   UNK N   1      32.230  17.868   8.700  0.00  0.00     0.070 A 
HETATM    2  C   UNK N   1      30.942  17.576   8.291  0.00  0.00     0.064 A 
HETATM    3  C   UNK N   1      30.729  16.925   7.074  0.00  0.00     0.064 A 
HETATM    4  C   UNK N   1      31.807  16.567   6.286  0.00  0.00     0.070 A 
HETATM    5  C   UNK N   1      33.134  16.838   6.663  0.00  0.00     0.138 A 
HETATM    6  C   UNK N   1      33.357  17.529   7.930  0.00  0.00     0.138 A 
HETATM    7  N   UNK N   1      29.465  16.644   6.670  0.00  0.00    -0.317 N 
HETATM    8  C   UNK N   1      28.390  16.990   7.445  0.00  0.00     0.314 A 
HETATM    9  O   UNK N   1      27.262  16.730   7.066  0.00  0.00    -0.262 OA
HETATM   10  C   UNK N   1      28.604  17.641   8.670  0.00  0.00     0.314 A 
HETATM   11  O   UNK N   1      27.667  17.959   9.379  0.00  0.00    -0.262 OA
HETATM   12  N   UNK N   1      29.884  17.922   9.067  0.00  0.00    -0.317 N 
HETATM   13  H   UNK N   1      29.318  16.186   5.811  0.00  0.00     0.169 HD
HETATM   14  H   UNK N   1      30.038  18.380   9.925  0.00  0.00     0.169 HD
ENDROOT
BRANCH   5  15
HETATM   15  N   UNK N   1      34.139  16.385   5.739  0.00  0.00    -0.113 N 
HETATM   16  O   UNK N   1      35.214  16.024   6.091  0.00  0.00    -0.532 OA
HETATM   17  O   UNK N   1      33.845  16.319   4.456  0.00  0.00    -0.532 OA
ENDBRANCH   5  15
BRANCH   6  18
HETATM   18  N   UNK N   1      34.622  17.919   8.490  0.00  0.00    -0.113 N 
HETATM   19  O   UNK N   1      35.180  17.275   9.317  0.00  0.00    -0.532 OA
HETATM   20  O   UNK N   1      35.216  19.005   8.036  0.00  0.00    -0.532 OA
ENDBRANCH   6  18
TORSDOF 2
ENDMDL
MODEL 9
REMARK VINA RESULT:      -6.2     15.767     17.078
REMARK  2 active torsions:
REMARK  status: ('A' for Active; 'I' for Inactive)
REMARK    1  A    between atoms: C_5  and  N_10 
REMARK    2  A    between atoms: C_6  and  N_7 
ROOT
HETATM    1  C   UNK N   1      19.943  16.888   3.996  0.00  0.00     0.070 A 
HETATM    2  C   UNK N   1      20.230  17.889   3.086  0.00  0.00     0.064 A 
HETATM    3  C   UNK N   1      20.225  17.607   1.719  0.00  0.00     0.064 A 
HETATM    4  C   UNK N   1      19.924  16.331   1.279  0.00  0.00     0.070 A 
HETATM    5  C   UNK N   1      19.619  15.284   2.166  0.00  0.00     0.138 A 
HETATM    6  C   UNK N   1      19.637  15.576   3.597  0.00  0.00     0.138 A 
HETATM    7  N   UNK N   1      20.513  18.587   0.826  0.00  0.00    -0.317 N 
HETATM    8  C   UNK N   1      20.808  19.855   1.250  0.00  0.00     0.314 A 
HETATM    9  O   UNK N   1      21.064  20.722   0.434  0.00  0.00    -0.262 OA
HETATM   10  C   UNK N   1      20.810  20.139   2.625  0.00  0.00     0.314 A 
HETATM   11  O   UNK N   1      21.068  21.258   3.030  0.00  0.00    -0.262 OA
HETATM   12  N   UNK N   1      20.520  19.142   3.517  0.00  0.00    -0.317 N 
HETATM   13  H   UNK N   1      20.509  18.384  -0.138  0.00  0.00     0.169 HD
HETATM   14  H   UNK N   1      20.521  19.337   4.483  0.00  0.00     0.169 HD
ENDROOT
BRANCH   5  15
HETATM   15  N   UNK N   1      19.313  14.024   1.546  0.00  0.00    -0.113 N 
HETATM   16  O   UNK N   1      18.328  13.410   1.799  0.00  0.00    -0.532 OA
HETATM   17  O   UNK N   1      20.127  13.550   0.623  0.00  0.00    -0.532 OA
ENDBRANCH   5  15
BRANCH   6  18
HETATM   18  N   UNK N   1      19.378  14.653   4.669  0.00  0.00    -0.113 N 
HETATM   19  O   UNK N   1      20.248  14.117   5.274  0.00  0.00    -0.532 OA
HETATM   20  O   UNK N   1      18.131  14.426   5.032  0.00  0.00    -0.532 OA
ENDBRANCH   6  18
TORSDOF 2
ENDMDL
