MODEL 1
REMARK VINA RESULT:      -8.6      0.000      0.000
REMARK  16 active torsions:
REMARK  status: ('A' for Active; 'I' for Inactive)
REMARK    1  A    between atoms: C_22  and  C_19 
REMARK    2  A    between atoms: C_28  and  C_19 
REMARK    3  A    between atoms: C_23  and  C_20 
REMARK    4  A    between atoms: N_38  and  C_20 
REMARK    5  A    between atoms: N_34  and  C_21 
REMARK    6  A    between atoms: O_39  and  C_21 
REMARK    7  A    between atoms: C_25  and  C_24 
REMARK    8  A    between atoms: C_31  and  C_26 
REMARK    9  A    between atoms: C_27  and  N_36 
REMARK   10  A    between atoms: C_29  and  C_28 
REMARK   11  A    between atoms: C_28  and  N_34 
REMARK   12  A    between atoms: N_36  and  C_29 
REMARK   13  A    between atoms: C_29  and  O_40 
REMARK   14  A    between atoms: P_45  and  C_31 
REMARK   15  A    between atoms: P_45  and  O_42 
REMARK   16  A    between atoms: P_45  and  O_43 
ROOT
HETATM    1  C   UNK N   1      36.944  14.637  10.046  0.00  0.00     0.135 C 
ENDROOT
BRANCH   1   2
HETATM    2  C   UNK N   1      35.869  15.668  10.095  0.00  0.00     0.162 C 
BRANCH   2   3
HETATM    3  C   UNK N   1      34.963  15.176   8.962  0.00  0.00     0.072 C 
BRANCH   3   4
HETATM    4  C   UNK N   1      33.621  15.750   8.754  0.00  0.00    -0.056 A 
HETATM    5  C   UNK N   1      33.535  16.973   8.080  0.00  0.00     0.008 A 
HETATM    6  C   UNK N   1      32.289  17.514   7.773  0.00  0.00     0.014 A 
HETATM    7  C   UNK N   1      31.124  16.828   8.136  0.00  0.00     0.025 A 
HETATM    8  C   UNK N   1      31.222  15.614   8.832  0.00  0.00     0.014 A 
HETATM    9  C   UNK N   1      32.466  15.079   9.146  0.00  0.00     0.008 A 
BRANCH   7  10
HETATM   10  C   UNK N   1      29.778  17.327   7.713  0.00  0.00     0.364 C 
HETATM   11  F   UNK N   1      29.892  18.301   6.734  0.00  0.00    -0.187 F 
HETATM   12  F   UNK N   1      29.070  16.259   7.194  0.00  0.00    -0.187 F 
BRANCH  10  13
HETATM   13  P   UNK N   1      28.828  18.020   9.159  0.00  0.00     0.315 P 
HETATM   14  O   UNK N   1      28.067  16.886   9.897  0.00  0.00    -0.649 OA
BRANCH  13  15
HETATM   15  O   UNK N   1      27.574  19.130   8.710  0.00  0.00    -0.325 OA
HETATM   16  H   UNK N   1      26.725  19.197   9.173  0.00  0.00     0.220 HD
ENDBRANCH  13  15
BRANCH  13  17
HETATM   17  O   UNK N   1      29.773  18.780  10.400  0.00  0.00    -0.325 OA
HETATM   18  H   UNK N   1      30.044  19.578  10.880  0.00  0.00     0.220 HD
ENDBRANCH  13  17
ENDBRANCH  10  13
ENDBRANCH   7  10
ENDBRANCH   3   4
ENDBRANCH   2   3
BRANCH   2  19
HETATM   19  N   UNK N   1      35.165  15.664  11.366  0.00  0.00    -0.362 N 
ATOM     20  HN  UNK N   1      34.663  16.508  11.641  1.00  0.00     0.162 HD
BRANCH  19  21
HETATM   21  C   UNK N   1      35.140  14.653  12.165  0.00  0.00     0.107 C 
HETATM   22  C   UNK N   1      36.123  14.578  13.281  0.00  0.00     0.097 C 
BRANCH  21  23
HETATM   23  O   UNK N   1      34.240  13.663  12.005  0.00  0.00    -0.350 OA
HETATM   24  H   UNK N   1      33.522  13.477  11.432  0.00  0.00     0.219 HD
ENDBRANCH  21  23
ENDBRANCH  19  21
ENDBRANCH   2  19
ENDBRANCH   1   2
BRANCH   1  25
HETATM   25  N   UNK N   1      36.627  13.449   9.639  0.00  0.00    -0.359 N 
ATOM     26  HN  UNK N   1      35.857  13.370   8.974  1.00  0.00     0.162 HD
BRANCH  25  27
HETATM   27  C   UNK N   1      37.279  12.224  10.051  0.00  0.00     0.175 C 
HETATM   28  C   UNK N   1      38.293  11.733   8.998  0.00  0.00     0.035 C 
HETATM   29  C   UNK N   1      39.213  10.616   9.466  0.00  0.00     0.004 C 
HETATM   30  C   UNK N   1      38.438   9.355   9.771  0.00  0.00     0.020 C 
HETATM   31  C   UNK N   1      37.738   9.542  11.099  0.00  0.00     0.126 C 
HETATM   32  N   UNK N   1      36.373  10.012  10.914  0.00  0.00    -0.346 N 
HETATM   33  C   UNK N   1      36.146  11.242  10.391  0.00  0.00     0.242 C 
HETATM   34  O   UNK N   1      34.983  11.602  10.237  0.00  0.00    -0.271 OA
BRANCH  32  35
HETATM   35  C   UNK N   1      35.218   9.199  11.333  0.00  0.00     0.164 C 
BRANCH  35  36
HETATM   36  C   UNK N   1      34.883   9.418  12.760  0.00  0.00    -0.040 A 
HETATM   37  C   UNK N   1      33.830  10.278  13.077  0.00  0.00     0.009 A 
HETATM   38  C   UNK N   1      33.756  10.831  14.344  0.00  0.00     0.013 A 
HETATM   39  C   UNK N   1      34.708  10.495  15.315  0.00  0.00    -0.026 A 
HETATM   40  C   UNK N   1      35.680   9.522  15.029  0.00  0.00     0.013 A 
HETATM   41  C   UNK N   1      35.780   8.999  13.743  0.00  0.00     0.009 A 
BRANCH  39  42
HETATM   42  C   UNK N   1      34.825  11.314  16.530  0.00  0.00    -0.026 A 
HETATM   43  C   UNK N   1      35.118  10.726  17.768  0.00  0.00     0.012 A 
HETATM   44  C   UNK N   1      35.372  11.527  18.883  0.00  0.00     0.001 A 
HETATM   45  C   UNK N   1      35.375  12.919  18.759  0.00  0.00     0.000 A 
HETATM   46  C   UNK N   1      35.097  13.513  17.526  0.00  0.00     0.001 A 
HETATM   47  C   UNK N   1      34.818  12.715  16.419  0.00  0.00     0.012 A 
ENDBRANCH  39  42
ENDBRANCH  35  36
ENDBRANCH  32  35
ENDBRANCH  25  27
ENDBRANCH   1  25
BRANCH   1  48
HETATM   48  O   UNK N   1      38.230  15.030  10.162  0.00  0.00    -0.348 OA
HETATM   49  H   UNK N   1      39.006  15.443   9.836  0.00  0.00     0.219 HD
ENDBRANCH   1  48
TORSDOF 16
ENDMDL
MODEL 2
REMARK VINA RESULT:      -8.4      2.575      4.150
REMARK  16 active torsions:
REMARK  status: ('A' for Active; 'I' for Inactive)
REMARK    1  A    between atoms: C_22  and  C_19 
REMARK    2  A    between atoms: C_28  and  C_19 
REMARK    3  A    between atoms: C_23  and  C_20 
REMARK    4  A    between atoms: N_38  and  C_20 
REMARK    5  A    between atoms: N_34  and  C_21 
REMARK    6  A    between atoms: O_39  and  C_21 
REMARK    7  A    between atoms: C_25  and  C_24 
REMARK    8  A    between atoms: C_31  and  C_26 
REMARK    9  A    between atoms: C_27  and  N_36 
REMARK   10  A    between atoms: C_29  and  C_28 
REMARK   11  A    between atoms: C_28  and  N_34 
REMARK   12  A    between atoms: N_36  and  C_29 
REMARK   13  A    between atoms: C_29  and  O_40 
REMARK   14  A    between atoms: P_45  and  C_31 
REMARK   15  A    between atoms: P_45  and  O_42 
REMARK   16  A    between atoms: P_45  and  O_43 
ROOT
HETATM    1  C   UNK N   1      32.468  14.748   8.276  0.00  0.00     0.135 C 
ENDROOT
BRANCH   1   2
HETATM    2  C   UNK N   1      32.462  16.227   8.449  0.00  0.00     0.162 C 
BRANCH   2   3
HETATM    3  C   UNK N   1      31.031  16.441   8.951  0.00  0.00     0.072 C 
BRANCH   3   4
HETATM    4  C   UNK N   1      30.044  17.188   8.149  0.00  0.00    -0.056 A 
HETATM    5  C   UNK N   1      29.150  18.019   8.831  0.00  0.00     0.008 A 
HETATM    6  C   UNK N   1      28.259  18.819   8.120  0.00  0.00     0.014 A 
HETATM    7  C   UNK N   1      28.267  18.793   6.720  0.00  0.00     0.025 A 
HETATM    8  C   UNK N   1      29.153  17.939   6.047  0.00  0.00     0.014 A 
HETATM    9  C   UNK N   1      30.035  17.134   6.758  0.00  0.00     0.008 A 
BRANCH   7  10
HETATM   10  C   UNK N   1      27.407  19.730   5.931  0.00  0.00     0.364 C 
HETATM   11  F   UNK N   1      26.747  20.621   6.763  0.00  0.00    -0.187 F 
HETATM   12  F   UNK N   1      28.225  20.445   5.077  0.00  0.00    -0.187 F 
BRANCH  10  13
HETATM   13  P   UNK N   1      26.153  18.801   4.912  0.00  0.00     0.315 P 
HETATM   14  O   UNK N   1      26.803  18.281   3.601  0.00  0.00    -0.649 OA
BRANCH  13  15
HETATM   15  O   UNK N   1      24.834  19.780   4.355  0.00  0.00    -0.325 OA
HETATM   16  H   UNK N   1      24.286  20.325   4.940  0.00  0.00     0.220 HD
ENDBRANCH  13  15
BRANCH  13  17
HETATM   17  O   UNK N   1      25.473  17.383   5.644  0.00  0.00    -0.325 OA
HETATM   18  H   UNK N   1      24.769  16.716   5.692  0.00  0.00     0.220 HD
ENDBRANCH  13  17
ENDBRANCH  10  13
ENDBRANCH   7  10
ENDBRANCH   3   4
ENDBRANCH   2   3
BRANCH   2  19
HETATM   19  N   UNK N   1      33.433  16.667   9.435  0.00  0.00    -0.362 N 
ATOM     20  HN  UNK N   1      33.332  16.334  10.394  1.00  0.00     0.162 HD
BRANCH  19  21
HETATM   21  C   UNK N   1      34.417  17.456   9.166  0.00  0.00     0.107 C 
HETATM   22  C   UNK N   1      34.368  18.290   7.934  0.00  0.00     0.097 C 
BRANCH  21  23
HETATM   23  O   UNK N   1      35.487  17.536   9.981  0.00  0.00    -0.350 OA
HETATM   24  H   UNK N   1      36.194  18.134  10.124  0.00  0.00     0.219 HD
ENDBRANCH  21  23
ENDBRANCH  19  21
ENDBRANCH   2  19
ENDBRANCH   1   2
BRANCH   1  25
HETATM   25  N   UNK N   1      32.753  14.017   9.308  0.00  0.00    -0.359 N 
ATOM     26  HN  UNK N   1      32.179  14.140  10.142  1.00  0.00     0.162 HD
BRANCH  25  27
HETATM   27  C   UNK N   1      33.819  13.040   9.370  0.00  0.00     0.175 C 
HETATM   28  C   UNK N   1      33.272  11.599   9.425  0.00  0.00     0.035 C 
HETATM   29  C   UNK N   1      34.314  10.510   9.217  0.00  0.00     0.004 C 
HETATM   30  C   UNK N   1      35.335  10.504  10.330  0.00  0.00     0.020 C 
HETATM   31  C   UNK N   1      36.281  11.664  10.108  0.00  0.00     0.126 C 
HETATM   32  N   UNK N   1      35.866  12.836  10.863  0.00  0.00    -0.346 N 
HETATM   33  C   UNK N   1      34.703  13.462  10.556  0.00  0.00     0.242 C 
HETATM   34  O   UNK N   1      34.377  14.440  11.220  0.00  0.00    -0.271 OA
BRANCH  32  35
HETATM   35  C   UNK N   1      36.709  13.399  11.931  0.00  0.00     0.164 C 
BRANCH  35  36
HETATM   36  C   UNK N   1      36.053  13.300  13.257  0.00  0.00    -0.040 A 
HETATM   37  C   UNK N   1      36.417  14.207  14.253  0.00  0.00     0.009 A 
HETATM   38  C   UNK N   1      36.166  13.903  15.580  0.00  0.00     0.013 A 
HETATM   39  C   UNK N   1      35.510  12.712  15.916  0.00  0.00    -0.026 A 
HETATM   40  C   UNK N   1      35.023  11.874  14.899  0.00  0.00     0.013 A 
HETATM   41  C   UNK N   1      35.314  12.159  13.568  0.00  0.00     0.009 A 
BRANCH  39  42
HETATM   42  C   UNK N   1      35.536  12.238  17.307  0.00  0.00    -0.026 A 
HETATM   43  C   UNK N   1      35.274  13.113  18.370  0.00  0.00     0.012 A 
HETATM   44  C   UNK N   1      35.155  12.621  19.672  0.00  0.00     0.001 A 
HETATM   45  C   UNK N   1      35.256  11.248  19.913  0.00  0.00     0.000 A 
HETATM   46  C   UNK N   1      35.504  10.368  18.859  0.00  0.00     0.001 A 
HETATM   47  C   UNK N   1      35.648  10.860  17.563  0.00  0.00     0.012 A 
ENDBRANCH  39  42
ENDBRANCH  35  36
ENDBRANCH  32  35
ENDBRANCH  25  27
ENDBRANCH   1  25
BRANCH   1  48
HETATM   48  O   UNK N   1      31.928  14.219   7.158  0.00  0.00    -0.348 OA
HETATM   49  H   UNK N   1      31.944  13.642   6.420  0.00  0.00     0.219 HD
ENDBRANCH   1  48
TORSDOF 16
ENDMDL
MODEL 3
REMARK VINA RESULT:      -8.3      5.656      9.088
REMARK  16 active torsions:
REMARK  status: ('A' for Active; 'I' for Inactive)
REMARK    1  A    between atoms: C_22  and  C_19 
REMARK    2  A    between atoms: C_28  and  C_19 
REMARK    3  A    between atoms: C_23  and  C_20 
REMARK    4  A    between atoms: N_38  and  C_20 
REMARK    5  A    between atoms: N_34  and  C_21 
REMARK    6  A    between atoms: O_39  and  C_21 
REMARK    7  A    between atoms: C_25  and  C_24 
REMARK    8  A    between atoms: C_31  and  C_26 
REMARK    9  A    between atoms: C_27  and  N_36 
REMARK   10  A    between atoms: C_29  and  C_28 
REMARK   11  A    between atoms: C_28  and  N_34 
REMARK   12  A    between atoms: N_36  and  C_29 
REMARK   13  A    between atoms: C_29  and  O_40 
REMARK   14  A    between atoms: P_45  and  C_31 
REMARK   15  A    between atoms: P_45  and  O_42 
REMARK   16  A    between atoms: P_45  and  O_43 
ROOT
HETATM    1  C   UNK N   1      28.784  17.553   4.364  0.00  0.00     0.135 C 
ENDROOT
BRANCH   1   2
HETATM    2  C   UNK N   1      27.817  18.492   4.998  0.00  0.00     0.162 C 
BRANCH   2   3
HETATM    3  C   UNK N   1      26.563  17.613   5.036  0.00  0.00     0.072 C 
BRANCH   3   4
HETATM    4  C   UNK N   1      25.240  18.153   4.676  0.00  0.00    -0.056 A 
HETATM    5  C   UNK N   1      25.199  19.217   3.769  0.00  0.00     0.008 A 
HETATM    6  C   UNK N   1      23.974  19.706   3.320  0.00  0.00     0.014 A 
HETATM    7  C   UNK N   1      22.785  19.124   3.776  0.00  0.00     0.025 A 
HETATM    8  C   UNK N   1      22.838  18.072   4.702  0.00  0.00     0.014 A 
HETATM    9  C   UNK N   1      24.060  17.592   5.156  0.00  0.00     0.008 A 
BRANCH   7  10
HETATM   10  C   UNK N   1      21.462  19.548   3.218  0.00  0.00     0.364 C 
HETATM   11  F   UNK N   1      20.688  20.168   4.186  0.00  0.00    -0.187 F 
HETATM   12  F   UNK N   1      21.698  20.450   2.197  0.00  0.00    -0.187 F 
BRANCH  10  13
HETATM   13  P   UNK N   1      20.524  18.096   2.521  0.00  0.00     0.315 P 
HETATM   14  O   UNK N   1      21.444  16.848   2.444  0.00  0.00    -0.649 OA
BRANCH  13  15
HETATM   15  O   UNK N   1      19.998  18.319   0.884  0.00  0.00    -0.325 OA
HETATM   16  H   UNK N   1      19.918  19.187   0.459  0.00  0.00     0.220 HD
ENDBRANCH  13  15
BRANCH  13  17
HETATM   17  O   UNK N   1      19.152  17.562   3.439  0.00  0.00    -0.325 OA
HETATM   18  H   UNK N   1      18.621  17.589   4.250  0.00  0.00     0.220 HD
ENDBRANCH  13  17
ENDBRANCH  10  13
ENDBRANCH   7  10
ENDBRANCH   3   4
ENDBRANCH   2   3
BRANCH   2  19
HETATM   19  N   UNK N   1      28.226  18.878   6.337  0.00  0.00    -0.362 N 
ATOM     20  HN  UNK N   1      29.047  18.426   6.739  1.00  0.00     0.162 HD
BRANCH  19  21
HETATM   21  C   UNK N   1      27.608  19.760   7.045  0.00  0.00     0.107 C 
HETATM   22  C   UNK N   1      27.194  21.044   6.414  0.00  0.00     0.097 C 
BRANCH  21  23
HETATM   23  O   UNK N   1      27.333  19.539   8.346  0.00  0.00    -0.350 OA
HETATM   24  H   UNK N   1      26.593  19.263   8.851  0.00  0.00     0.219 HD
ENDBRANCH  21  23
ENDBRANCH  19  21
ENDBRANCH   2  19
ENDBRANCH   1   2
BRANCH   1  25
HETATM   25  N   UNK N   1      29.578  16.884   5.139  0.00  0.00    -0.359 N 
ATOM     26  HN  UNK N   1      29.152  16.216   5.782  1.00  0.00     0.162 HD
BRANCH  25  27
HETATM   27  C   UNK N   1      31.020  17.008   5.165  0.00  0.00     0.175 C 
HETATM   28  C   UNK N   1      31.708  15.835   4.437  0.00  0.00     0.035 C 
HETATM   29  C   UNK N   1      33.195  16.025   4.180  0.00  0.00     0.004 C 
HETATM   30  C   UNK N   1      33.974  16.096   5.474  0.00  0.00     0.020 C 
HETATM   31  C   UNK N   1      33.749  17.462   6.084  0.00  0.00     0.126 C 
HETATM   32  N   UNK N   1      32.665  17.435   7.054  0.00  0.00    -0.346 N 
HETATM   33  C   UNK N   1      31.397  17.186   6.645  0.00  0.00     0.242 C 
HETATM   34  O   UNK N   1      30.508  17.158   7.490  0.00  0.00    -0.271 OA
BRANCH  32  35
HETATM   35  C   UNK N   1      32.902  17.726   8.478  0.00  0.00     0.164 C 
BRANCH  35  36
HETATM   36  C   UNK N   1      33.795  16.721   9.102  0.00  0.00    -0.040 A 
HETATM   37  C   UNK N   1      33.335  15.411   9.242  0.00  0.00     0.009 A 
HETATM   38  C   UNK N   1      33.931  14.571  10.167  0.00  0.00     0.013 A 
HETATM   39  C   UNK N   1      35.020  15.020  10.925  0.00  0.00    -0.026 A 
HETATM   40  C   UNK N   1      35.564  16.291  10.676  0.00  0.00     0.013 A 
HETATM   41  C   UNK N   1      34.937  17.150   9.778  0.00  0.00     0.009 A 
BRANCH  39  42
HETATM   42  C   UNK N   1      35.436  14.264  12.115  0.00  0.00    -0.026 A 
HETATM   43  C   UNK N   1      36.175  14.878  13.135  0.00  0.00     0.012 A 
HETATM   44  C   UNK N   1      36.435  14.192  14.323  0.00  0.00     0.001 A 
HETATM   45  C   UNK N   1      35.926  12.905  14.515  0.00  0.00     0.000 A 
HETATM   46  C   UNK N   1      35.178  12.291  13.509  0.00  0.00     0.001 A 
HETATM   47  C   UNK N   1      34.938  12.964  12.313  0.00  0.00     0.012 A 
ENDBRANCH  39  42
ENDBRANCH  35  36
ENDBRANCH  32  35
ENDBRANCH  25  27
ENDBRANCH   1  25
BRANCH   1  48
HETATM   48  O   UNK N   1      28.625  17.233   3.062  0.00  0.00    -0.348 OA
HETATM   49  H   UNK N   1      28.932  16.881   2.249  0.00  0.00     0.219 HD
ENDBRANCH   1  48
TORSDOF 16
ENDMDL
MODEL 4
REMARK VINA RESULT:      -8.3      2.656      3.971
REMARK  16 active torsions:
REMARK  status: ('A' for Active; 'I' for Inactive)
REMARK    1  A    between atoms: C_22  and  C_19 
REMARK    2  A    between atoms: C_28  and  C_19 
REMARK    3  A    between atoms: C_23  and  C_20 
REMARK    4  A    between atoms: N_38  and  C_20 
REMARK    5  A    between atoms: N_34  and  C_21 
REMARK    6  A    between atoms: O_39  and  C_21 
REMARK    7  A    between atoms: C_25  and  C_24 
REMARK    8  A    between atoms: C_31  and  C_26 
REMARK    9  A    between atoms: C_27  and  N_36 
REMARK   10  A    between atoms: C_29  and  C_28 
REMARK   11  A    between atoms: C_28  and  N_34 
REMARK   12  A    between atoms: N_36  and  C_29 
REMARK   13  A    between atoms: C_29  and  O_40 
REMARK   14  A    between atoms: P_45  and  C_31 
REMARK   15  A    between atoms: P_45  and  O_42 
REMARK   16  A    between atoms: P_45  and  O_43 
ROOT
HETATM    1  C   UNK N   1      32.524  14.952   8.832  0.00  0.00     0.135 C 
ENDROOT
BRANCH   1   2
HETATM    2  C   UNK N   1      32.562  15.695   7.542  0.00  0.00     0.162 C 
BRANCH   2   3
HETATM    3  C   UNK N   1      31.147  15.421   7.023  0.00  0.00     0.072 C 
BRANCH   3   4
HETATM    4  C   UNK N   1      30.254  16.523   6.622  0.00  0.00    -0.056 A 
HETATM    5  C   UNK N   1      30.122  16.787   5.255  0.00  0.00     0.008 A 
HETATM    6  C   UNK N   1      29.222  17.753   4.814  0.00  0.00     0.014 A 
HETATM    7  C   UNK N   1      28.443  18.454   5.744  0.00  0.00     0.025 A 
HETATM    8  C   UNK N   1      28.599  18.196   7.113  0.00  0.00     0.014 A 
HETATM    9  C   UNK N   1      29.505  17.238   7.553  0.00  0.00     0.008 A 
BRANCH   7  10
HETATM   10  C   UNK N   1      27.383  19.408   5.290  0.00  0.00     0.364 C 
HETATM   11  F   UNK N   1      26.988  20.244   6.323  0.00  0.00    -0.187 F 
HETATM   12  F   UNK N   1      27.911  20.182   4.273  0.00  0.00    -0.187 F 
BRANCH  10  13
HETATM   13  P   UNK N   1      25.893  18.503   4.632  0.00  0.00     0.315 P 
HETATM   14  O   UNK N   1      24.693  19.476   4.486  0.00  0.00    -0.649 OA
BRANCH  13  15
HETATM   15  O   UNK N   1      25.294  17.269   5.694  0.00  0.00    -0.325 OA
HETATM   16  H   UNK N   1      25.658  16.372   5.733  0.00  0.00     0.220 HD
ENDBRANCH  13  15
BRANCH  13  17
HETATM   17  O   UNK N   1      26.064  17.793   3.058  0.00  0.00    -0.325 OA
HETATM   18  H   UNK N   1      26.235  17.887   2.107  0.00  0.00     0.220 HD
ENDBRANCH  13  17
ENDBRANCH  10  13
ENDBRANCH   7  10
ENDBRANCH   3   4
ENDBRANCH   2   3
BRANCH   2  19
HETATM   19  N   UNK N   1      32.781  17.118   7.735  0.00  0.00    -0.362 N 
ATOM     20  HN  UNK N   1      32.051  17.659   8.199  1.00  0.00     0.162 HD
BRANCH  19  21
HETATM   21  C   UNK N   1      33.847  17.734   7.354  0.00  0.00     0.107 C 
HETATM   22  C   UNK N   1      34.680  18.446   8.361  0.00  0.00     0.097 C 
BRANCH  21  23
HETATM   23  O   UNK N   1      34.218  17.743   6.058  0.00  0.00    -0.350 OA
HETATM   24  H   UNK N   1      34.854  18.187   5.532  0.00  0.00     0.219 HD
ENDBRANCH  21  23
ENDBRANCH  19  21
ENDBRANCH   2  19
ENDBRANCH   1   2
BRANCH   1  25
HETATM   25  N   UNK N   1      33.315  13.935   8.971  0.00  0.00    -0.359 N 
ATOM     26  HN  UNK N   1      33.115  13.106   8.410  1.00  0.00     0.162 HD
BRANCH  25  27
HETATM   27  C   UNK N   1      34.458  13.881   9.857  0.00  0.00     0.175 C 
HETATM   28  C   UNK N   1      35.698  14.554   9.233  0.00  0.00     0.035 C 
HETATM   29  C   UNK N   1      36.854  14.785  10.194  0.00  0.00     0.004 C 
HETATM   30  C   UNK N   1      37.422  13.478  10.696  0.00  0.00     0.020 C 
HETATM   31  C   UNK N   1      36.472  12.918  11.731  0.00  0.00     0.126 C 
HETATM   32  N   UNK N   1      35.541  11.972  11.137  0.00  0.00    -0.346 N 
HETATM   33  C   UNK N   1      34.625  12.400  10.234  0.00  0.00     0.242 C 
HETATM   34  O   UNK N   1      33.863  11.574   9.743  0.00  0.00    -0.271 OA
BRANCH  32  35
HETATM   35  C   UNK N   1      35.530  10.553  11.533  0.00  0.00     0.164 C 
BRANCH  35  36
HETATM   36  C   UNK N   1      35.259  10.390  12.981  0.00  0.00    -0.040 A 
HETATM   37  C   UNK N   1      34.062  10.885  13.498  0.00  0.00     0.009 A 
HETATM   38  C   UNK N   1      33.953  11.135  14.855  0.00  0.00     0.013 A 
HETATM   39  C   UNK N   1      35.026  10.850  15.710  0.00  0.00    -0.026 A 
HETATM   40  C   UNK N   1      36.174  10.221  15.201  0.00  0.00     0.013 A 
HETATM   41  C   UNK N   1      36.299  10.010  13.830  0.00  0.00     0.009 A 
BRANCH  39  42
HETATM   42  C   UNK N   1      35.038  11.409  17.070  0.00  0.00    -0.026 A 
HETATM   43  C   UNK N   1      35.258  10.586  18.183  0.00  0.00     0.012 A 
HETATM   44  C   UNK N   1      35.414  11.149  19.452  0.00  0.00     0.001 A 
HETATM   45  C   UNK N   1      35.392  12.537  19.609  0.00  0.00     0.000 A 
HETATM   46  C   UNK N   1      35.188  13.364  18.503  0.00  0.00     0.001 A 
HETATM   47  C   UNK N   1      35.006  12.803  17.241  0.00  0.00     0.012 A 
ENDBRANCH  39  42
ENDBRANCH  35  36
ENDBRANCH  32  35
ENDBRANCH  25  27
ENDBRANCH   1  25
BRANCH   1  48
HETATM   48  O   UNK N   1      31.887  15.506   9.886  0.00  0.00    -0.348 OA
HETATM   49  H   UNK N   1      31.622  15.517  10.785  0.00  0.00     0.219 HD
ENDBRANCH   1  48
TORSDOF 16
ENDMDL
MODEL 5
REMARK VINA RESULT:      -8.2      2.946      4.720
REMARK  16 active torsions:
REMARK  status: ('A' for Active; 'I' for Inactive)
REMARK    1  A    between atoms: C_22  and  C_19 
REMARK    2  A    between atoms: C_28  and  C_19 
REMARK    3  A    between atoms: C_23  and  C_20 
REMARK    4  A    between atoms: N_38  and  C_20 
REMARK    5  A    between atoms: N_34  and  C_21 
REMARK    6  A    between atoms: O_39  and  C_21 
REMARK    7  A    between atoms: C_25  and  C_24 
REMARK    8  A    between atoms: C_31  and  C_26 
REMARK    9  A    between atoms: C_27  and  N_36 
REMARK   10  A    between atoms: C_29  and  C_28 
REMARK   11  A    between atoms: C_28  and  N_34 
REMARK   12  A    between atoms: N_36  and  C_29 
REMARK   13  A    between atoms: C_29  and  O_40 
REMARK   14  A    between atoms: P_45  and  C_31 
REMARK   15  A    between atoms: P_45  and  O_42 
REMARK   16  A    between atoms: P_45  and  O_43 
ROOT
HETATM    1  C   UNK N   1      35.256  14.526   5.997  0.00  0.00     0.135 C 
ENDROOT
BRANCH   1   2
HETATM    2  C   UNK N   1      34.196  14.477   4.953  0.00  0.00     0.162 C 
BRANCH   2   3
HETATM    3  C   UNK N   1      33.678  15.917   5.015  0.00  0.00     0.072 C 
BRANCH   3   4
HETATM    4  C   UNK N   1      32.270  16.209   5.337  0.00  0.00    -0.056 A 
HETATM    5  C   UNK N   1      31.663  15.449   6.343  0.00  0.00     0.008 A 
HETATM    6  C   UNK N   1      30.365  15.743   6.753  0.00  0.00     0.014 A 
HETATM    7  C   UNK N   1      29.673  16.806   6.161  0.00  0.00     0.025 A 
HETATM    8  C   UNK N   1      30.283  17.547   5.138  0.00  0.00     0.014 A 
HETATM    9  C   UNK N   1      31.574  17.247   4.723  0.00  0.00     0.008 A 
BRANCH   7  10
HETATM   10  C   UNK N   1      28.326  17.219   6.666  0.00  0.00     0.364 C 
HETATM   11  F   UNK N   1      27.689  18.057   5.764  0.00  0.00    -0.187 F 
HETATM   12  F   UNK N   1      27.561  16.079   6.826  0.00  0.00    -0.187 F 
BRANCH  10  13
HETATM   13  P   UNK N   1      28.456  18.080   8.314  0.00  0.00     0.315 P 
HETATM   14  O   UNK N   1      27.974  17.141   9.452  0.00  0.00    -0.649 OA
BRANCH  13  15
HETATM   15  O   UNK N   1      27.428  19.468   8.466  0.00  0.00    -0.325 OA
HETATM   16  H   UNK N   1      27.190  20.044   7.723  0.00  0.00     0.220 HD
ENDBRANCH  13  15
BRANCH  13  17
HETATM   17  O   UNK N   1      30.051  18.560   8.801  0.00  0.00    -0.325 OA
HETATM   18  H   UNK N   1      30.939  18.877   8.575  0.00  0.00     0.220 HD
ENDBRANCH  13  17
ENDBRANCH  10  13
ENDBRANCH   7  10
ENDBRANCH   3   4
ENDBRANCH   2   3
BRANCH   2  19
HETATM   19  N   UNK N   1      34.735  14.172   3.639  0.00  0.00    -0.362 N 
ATOM     20  HN  UNK N   1      35.709  13.878   3.574  1.00  0.00     0.162 HD
BRANCH  19  21
HETATM   21  C   UNK N   1      34.049  14.252   2.550  0.00  0.00     0.107 C 
HETATM   22  C   UNK N   1      32.837  13.403   2.386  0.00  0.00     0.097 C 
BRANCH  21  23
HETATM   23  O   UNK N   1      34.412  15.092   1.561  0.00  0.00    -0.350 OA
HETATM   24  H   UNK N   1      34.055  15.851   1.143  0.00  0.00     0.219 HD
ENDBRANCH  21  23
ENDBRANCH  19  21
ENDBRANCH   2  19
ENDBRANCH   1   2
BRANCH   1  25
HETATM   25  N   UNK N   1      35.042  13.899   7.110  0.00  0.00    -0.359 N 
ATOM     26  HN  UNK N   1      35.073  12.879   7.088  1.00  0.00     0.162 HD
BRANCH  25  27
HETATM   27  C   UNK N   1      34.762  14.528   8.384  0.00  0.00     0.175 C 
HETATM   28  C   UNK N   1      34.981  16.054   8.328  0.00  0.00     0.035 C 
HETATM   29  C   UNK N   1      34.452  16.822   9.529  0.00  0.00     0.004 C 
HETATM   30  C   UNK N   1      35.187  16.443  10.793  0.00  0.00     0.020 C 
HETATM   31  C   UNK N   1      34.682  15.089  11.243  0.00  0.00     0.126 C 
HETATM   32  N   UNK N   1      35.534  14.018  10.750  0.00  0.00    -0.346 N 
HETATM   33  C   UNK N   1      35.610  13.772   9.419  0.00  0.00     0.242 C 
HETATM   34  O   UNK N   1      36.347  12.869   9.036  0.00  0.00    -0.271 OA
BRANCH  32  35
HETATM   35  C   UNK N   1      36.284  13.148  11.672  0.00  0.00     0.164 C 
BRANCH  35  36
HETATM   36  C   UNK N   1      35.779  13.256  13.061  0.00  0.00    -0.040 A 
HETATM   37  C   UNK N   1      36.472  14.064  13.965  0.00  0.00     0.009 A 
HETATM   38  C   UNK N   1      36.304  13.870  15.325  0.00  0.00     0.013 A 
HETATM   39  C   UNK N   1      35.409  12.898  15.791  0.00  0.00    -0.026 A 
HETATM   40  C   UNK N   1      34.613  12.189  14.876  0.00  0.00     0.013 A 
HETATM   41  C   UNK N   1      34.814  12.354  13.508  0.00  0.00     0.009 A 
BRANCH  39  42
HETATM   42  C   UNK N   1      35.470  12.470  17.196  0.00  0.00    -0.026 A 
HETATM   43  C   UNK N   1      35.198  13.370  18.234  0.00  0.00     0.012 A 
HETATM   44  C   UNK N   1      35.114  12.917  19.553  0.00  0.00     0.001 A 
HETATM   45  C   UNK N   1      35.261  11.556  19.835  0.00  0.00     0.000 A 
HETATM   46  C   UNK N   1      35.519  10.650  18.805  0.00  0.00     0.001 A 
HETATM   47  C   UNK N   1      35.628  11.105  17.492  0.00  0.00     0.012 A 
ENDBRANCH  39  42
ENDBRANCH  35  36
ENDBRANCH  32  35
ENDBRANCH  25  27
ENDBRANCH   1  25
BRANCH   1  48
HETATM   48  O   UNK N   1      36.483  14.979   5.661  0.00  0.00    -0.348 OA
HETATM   49  H   UNK N   1      37.171  15.615   5.689  0.00  0.00     0.219 HD
ENDBRANCH   1  48
TORSDOF 16
ENDMDL
MODEL 6
REMARK VINA RESULT:      -8.1      2.416      3.478
REMARK  16 active torsions:
REMARK  status: ('A' for Active; 'I' for Inactive)
REMARK    1  A    between atoms: C_22  and  C_19 
REMARK    2  A    between atoms: C_28  and  C_19 
REMARK    3  A    between atoms: C_23  and  C_20 
REMARK    4  A    between atoms: N_38  and  C_20 
REMARK    5  A    between atoms: N_34  and  C_21 
REMARK    6  A    between atoms: O_39  and  C_21 
REMARK    7  A    between atoms: C_25  and  C_24 
REMARK    8  A    between atoms: C_31  and  C_26 
REMARK    9  A    between atoms: C_27  and  N_36 
REMARK   10  A    between atoms: C_29  and  C_28 
REMARK   11  A    between atoms: C_28  and  N_34 
REMARK   12  A    between atoms: N_36  and  C_29 
REMARK   13  A    between atoms: C_29  and  O_40 
REMARK   14  A    between atoms: P_45  and  C_31 
REMARK   15  A    between atoms: P_45  and  O_42 
REMARK   16  A    between atoms: P_45  and  O_43 
ROOT
HETATM    1  C   UNK N   1      35.732  14.863   6.495  0.00  0.00     0.135 C 
ENDROOT
BRANCH   1   2
HETATM    2  C   UNK N   1      34.753  15.975   6.340  0.00  0.00     0.162 C 
BRANCH   2   3
HETATM    3  C   UNK N   1      33.644  15.260   5.562  0.00  0.00     0.072 C 
BRANCH   3   4
HETATM    4  C   UNK N   1      32.319  15.880   5.379  0.00  0.00    -0.056 A 
HETATM    5  C   UNK N   1      31.227  15.277   6.012  0.00  0.00     0.008 A 
HETATM    6  C   UNK N   1      29.969  15.871   5.952  0.00  0.00     0.014 A 
HETATM    7  C   UNK N   1      29.803  17.077   5.260  0.00  0.00     0.025 A 
HETATM    8  C   UNK N   1      30.900  17.661   4.610  0.00  0.00     0.014 A 
HETATM    9  C   UNK N   1      32.153  17.062   4.663  0.00  0.00     0.008 A 
BRANCH   7  10
HETATM   10  C   UNK N   1      28.491  17.797   5.281  0.00  0.00     0.364 C 
HETATM   11  F   UNK N   1      28.541  18.949   4.511  0.00  0.00    -0.187 F 
HETATM   12  F   UNK N   1      27.532  16.954   4.752  0.00  0.00    -0.187 F 
BRANCH  10  13
HETATM   13  P   UNK N   1      27.993  18.245   7.020  0.00  0.00     0.315 P 
HETATM   14  O   UNK N   1      29.250  18.552   7.878  0.00  0.00    -0.649 OA
BRANCH  13  15
HETATM   15  O   UNK N   1      27.213  16.958   7.882  0.00  0.00    -0.325 OA
HETATM   16  H   UNK N   1      27.538  16.045   7.893  0.00  0.00     0.220 HD
ENDBRANCH  13  15
BRANCH  13  17
HETATM   17  O   UNK N   1      27.002  19.659   7.191  0.00  0.00    -0.325 OA
HETATM   18  H   UNK N   1      26.168  20.126   7.024  0.00  0.00     0.220 HD
ENDBRANCH  13  17
ENDBRANCH  10  13
ENDBRANCH   7  10
ENDBRANCH   3   4
ENDBRANCH   2   3
BRANCH   2  19
HETATM   19  N   UNK N   1      34.266  16.457   7.621  0.00  0.00    -0.362 N 
ATOM     20  HN  UNK N   1      34.113  15.777   8.365  1.00  0.00     0.162 HD
BRANCH  19  21
HETATM   21  C   UNK N   1      34.017  17.698   7.867  0.00  0.00     0.107 C 
HETATM   22  C   UNK N   1      32.654  18.094   8.316  0.00  0.00     0.097 C 
BRANCH  21  23
HETATM   23  O   UNK N   1      34.970  18.640   7.725  0.00  0.00    -0.350 OA
HETATM   24  H   UNK N   1      35.199  19.450   8.138  0.00  0.00     0.219 HD
ENDBRANCH  21  23
ENDBRANCH  19  21
ENDBRANCH   2  19
ENDBRANCH   1   2
BRANCH   1  25
HETATM   25  N   UNK N   1      36.096  14.537   7.695  0.00  0.00    -0.359 N 
ATOM     26  HN  UNK N   1      36.493  15.271   8.281  1.00  0.00     0.162 HD
BRANCH  25  27
HETATM   27  C   UNK N   1      35.984  13.213   8.271  0.00  0.00     0.175 C 
HETATM   28  C   UNK N   1      34.522  12.722   8.295  0.00  0.00     0.035 C 
HETATM   29  C   UNK N   1      34.346  11.248   8.627  0.00  0.00     0.004 C 
HETATM   30  C   UNK N   1      34.807  10.940  10.032  0.00  0.00     0.020 C 
HETATM   31  C   UNK N   1      36.320  10.919  10.037  0.00  0.00     0.126 C 
HETATM   32  N   UNK N   1      36.865  12.208  10.432  0.00  0.00    -0.346 N 
HETATM   33  C   UNK N   1      36.682  13.292   9.639  0.00  0.00     0.242 C 
HETATM   34  O   UNK N   1      37.144  14.367  10.007  0.00  0.00    -0.271 OA
BRANCH  32  35
HETATM   35  C   UNK N   1      37.665  12.360  11.659  0.00  0.00     0.164 C 
BRANCH  35  36
HETATM   36  C   UNK N   1      36.896  11.977  12.867  0.00  0.00    -0.040 A 
HETATM   37  C   UNK N   1      35.726  12.676  13.166  0.00  0.00     0.009 A 
HETATM   38  C   UNK N   1      35.223  12.650  14.455  0.00  0.00     0.013 A 
HETATM   39  C   UNK N   1      35.861  11.889  15.443  0.00  0.00    -0.026 A 
HETATM   40  C   UNK N   1      36.955  11.078  15.099  0.00  0.00     0.013 A 
HETATM   41  C   UNK N   1      37.486  11.139  13.813  0.00  0.00     0.009 A 
BRANCH  39  42
HETATM   42  C   UNK N   1      35.532  12.115  16.858  0.00  0.00    -0.026 A 
HETATM   43  C   UNK N   1      35.639  11.079  17.795  0.00  0.00     0.012 A 
HETATM   44  C   UNK N   1      35.468  11.343  19.156  0.00  0.00     0.001 A 
HETATM   45  C   UNK N   1      35.229  12.649  19.591  0.00  0.00     0.000 A 
HETATM   46  C   UNK N   1      35.135  13.689  18.665  0.00  0.00     0.001 A 
HETATM   47  C   UNK N   1      35.280  13.423  17.305  0.00  0.00     0.012 A 
ENDBRANCH  39  42
ENDBRANCH  35  36
ENDBRANCH  32  35
ENDBRANCH  25  27
ENDBRANCH   1  25
BRANCH   1  48
HETATM   48  O   UNK N   1      35.995  14.072   5.433  0.00  0.00    -0.348 OA
HETATM   49  H   UNK N   1      35.819  13.755   4.569  0.00  0.00     0.219 HD
ENDBRANCH   1  48
TORSDOF 16
ENDMDL
MODEL 7
REMARK VINA RESULT:      -8.0     18.512     23.136
REMARK  16 active torsions:
REMARK  status: ('A' for Active; 'I' for Inactive)
REMARK    1  A    between atoms: C_22  and  C_19 
REMARK    2  A    between atoms: C_28  and  C_19 
REMARK    3  A    between atoms: C_23  and  C_20 
REMARK    4  A    between atoms: N_38  and  C_20 
REMARK    5  A    between atoms: N_34  and  C_21 
REMARK    6  A    between atoms: O_39  and  C_21 
REMARK    7  A    between atoms: C_25  and  C_24 
REMARK    8  A    between atoms: C_31  and  C_26 
REMARK    9  A    between atoms: C_27  and  N_36 
REMARK   10  A    between atoms: C_29  and  C_28 
REMARK   11  A    between atoms: C_28  and  N_34 
REMARK   12  A    between atoms: N_36  and  C_29 
REMARK   13  A    between atoms: C_29  and  O_40 
REMARK   14  A    between atoms: P_45  and  C_31 
REMARK   15  A    between atoms: P_45  and  O_42 
REMARK   16  A    between atoms: P_45  and  O_43 
ROOT
HETATM    1  C   UNK N   1      25.698  24.785  -5.834  0.00  0.00     0.135 C 
ENDROOT
BRANCH   1   2
HETATM    2  C   UNK N   1      25.743  23.933  -7.055  0.00  0.00     0.162 C 
BRANCH   2   3
HETATM    3  C   UNK N   1      27.230  24.034  -7.408  0.00  0.00     0.072 C 
BRANCH   3   4
HETATM    4  C   UNK N   1      28.242  23.244  -6.682  0.00  0.00    -0.056 A 
HETATM    5  C   UNK N   1      28.795  23.804  -5.526  0.00  0.00     0.008 A 
HETATM    6  C   UNK N   1      29.685  23.066  -4.750  0.00  0.00     0.014 A 
HETATM    7  C   UNK N   1      30.017  21.760  -5.127  0.00  0.00     0.025 A 
HETATM    8  C   UNK N   1      29.474  21.216  -6.300  0.00  0.00     0.014 A 
HETATM    9  C   UNK N   1      28.594  21.957  -7.079  0.00  0.00     0.008 A 
BRANCH   7  10
HETATM   10  C   UNK N   1      30.874  20.904  -4.247  0.00  0.00     0.364 C 
HETATM   11  F   UNK N   1      30.106  20.010  -3.518  0.00  0.00    -0.187 F 
HETATM   12  F   UNK N   1      31.736  20.187  -5.057  0.00  0.00    -0.187 F 
BRANCH  10  13
HETATM   13  P   UNK N   1      31.887  21.939  -3.075  0.00  0.00     0.315 P 
HETATM   14  O   UNK N   1      32.785  22.927  -3.867  0.00  0.00    -0.649 OA
BRANCH  13  15
HETATM   15  O   UNK N   1      33.018  21.027  -2.128  0.00  0.00    -0.325 OA
HETATM   16  H   UNK N   1      33.618  20.363  -2.501  0.00  0.00     0.220 HD
ENDBRANCH  13  15
BRANCH  13  17
HETATM   17  O   UNK N   1      30.996  22.952  -1.984  0.00  0.00    -0.325 OA
HETATM   18  H   UNK N   1      30.320  23.631  -1.829  0.00  0.00     0.220 HD
ENDBRANCH  13  17
ENDBRANCH  10  13
ENDBRANCH   7  10
ENDBRANCH   3   4
ENDBRANCH   2   3
BRANCH   2  19
HETATM   19  N   UNK N   1      25.363  22.559  -6.778  0.00  0.00    -0.362 N 
ATOM     20  HN  UNK N   1      25.568  22.179  -5.854  1.00  0.00     0.162 HD
BRANCH  19  21
HETATM   21  C   UNK N   1      24.781  21.793  -7.636  0.00  0.00     0.107 C 
HETATM   22  C   UNK N   1      25.489  20.582  -8.135  0.00  0.00     0.097 C 
BRANCH  21  23
HETATM   23  O   UNK N   1      23.542  22.072  -8.089  0.00  0.00    -0.350 OA
HETATM   24  H   UNK N   1      22.715  21.634  -8.132  0.00  0.00     0.219 HD
ENDBRANCH  21  23
ENDBRANCH  19  21
ENDBRANCH   2  19
ENDBRANCH   1   2
BRANCH   1  25
HETATM   25  N   UNK N   1      25.482  26.053  -5.986  0.00  0.00    -0.359 N 
ATOM     26  HN  UNK N   1      24.683  26.328  -6.557  1.00  0.00     0.162 HD
BRANCH  25  27
HETATM   27  C   UNK N   1      26.284  27.112  -5.410  0.00  0.00     0.175 C 
HETATM   28  C   UNK N   1      25.416  28.148  -4.667  0.00  0.00     0.035 C 
HETATM   29  C   UNK N   1      26.191  29.135  -3.807  0.00  0.00     0.004 C 
HETATM   30  C   UNK N   1      27.086  30.015  -4.648  0.00  0.00     0.020 C 
HETATM   31  C   UNK N   1      28.289  29.200  -5.066  0.00  0.00     0.126 C 
HETATM   32  N   UNK N   1      28.095  28.607  -6.380  0.00  0.00    -0.346 N 
HETATM   33  C   UNK N   1      27.139  27.663  -6.562  0.00  0.00     0.242 C 
HETATM   34  O   UNK N   1      26.993  27.193  -7.686  0.00  0.00    -0.271 OA
BRANCH  32  35
HETATM   35  C   UNK N   1      28.953  28.971  -7.521  0.00  0.00     0.164 C 
BRANCH  35  36
HETATM   36  C   UNK N   1      29.947  27.912  -7.818  0.00  0.00    -0.040 A 
HETATM   37  C   UNK N   1      29.898  27.276  -9.059  0.00  0.00     0.009 A 
HETATM   38  C   UNK N   1      30.499  26.039  -9.219  0.00  0.00     0.013 A 
HETATM   39  C   UNK N   1      31.190  25.451  -8.152  0.00  0.00    -0.026 A 
HETATM   40  C   UNK N   1      31.354  26.162  -6.952  0.00  0.00     0.013 A 
HETATM   41  C   UNK N   1      30.713  27.386  -6.778  0.00  0.00     0.009 A 
BRANCH  39  42
HETATM   42  C   UNK N   1      31.539  24.024  -8.212  0.00  0.00    -0.026 A 
HETATM   43  C   UNK N   1      31.102  23.222  -9.275  0.00  0.00     0.012 A 
HETATM   44  C   UNK N   1      31.561  21.909  -9.398  0.00  0.00     0.001 A 
HETATM   45  C   UNK N   1      32.490  21.403  -8.485  0.00  0.00     0.000 A 
HETATM   46  C   UNK N   1      32.941  22.200  -7.431  0.00  0.00     0.001 A 
HETATM   47  C   UNK N   1      32.464  23.502  -7.292  0.00  0.00     0.012 A 
ENDBRANCH  39  42
ENDBRANCH  35  36
ENDBRANCH  32  35
ENDBRANCH  25  27
ENDBRANCH   1  25
BRANCH   1  48
HETATM   48  O   UNK N   1      25.614  24.189  -4.625  0.00  0.00    -0.348 OA
HETATM   49  H   UNK N   1      25.788  24.148  -3.705  0.00  0.00     0.219 HD
ENDBRANCH   1  48
TORSDOF 16
ENDMDL
MODEL 8
REMARK VINA RESULT:      -7.9      2.579      3.788
REMARK  16 active torsions:
REMARK  status: ('A' for Active; 'I' for Inactive)
REMARK    1  A    between atoms: C_22  and  C_19 
REMARK    2  A    between atoms: C_28  and  C_19 
REMARK    3  A    between atoms: C_23  and  C_20 
REMARK    4  A    between atoms: N_38  and  C_20 
REMARK    5  A    between atoms: N_34  and  C_21 
REMARK    6  A    between atoms: O_39  and  C_21 
REMARK    7  A    between atoms: C_25  and  C_24 
REMARK    8  A    between atoms: C_31  and  C_26 
REMARK    9  A    between atoms: C_27  and  N_36 
REMARK   10  A    between atoms: C_29  and  C_28 
REMARK   11  A    between atoms: C_28  and  N_34 
REMARK   12  A    between atoms: N_36  and  C_29 
REMARK   13  A    between atoms: C_29  and  O_40 
REMARK   14  A    between atoms: P_45  and  C_31 
REMARK   15  A    between atoms: P_45  and  O_42 
REMARK   16  A    between atoms: P_45  and  O_43 
ROOT
HETATM    1  C   UNK N   1      35.353  15.152   6.604  0.00  0.00     0.135 C 
ENDROOT
BRANCH   1   2
HETATM    2  C   UNK N   1      34.351  16.246   6.472  0.00  0.00     0.162 C 
BRANCH   2   3
HETATM    3  C   UNK N   1      33.512  15.712   5.307  0.00  0.00     0.072 C 
BRANCH   3   4
HETATM    4  C   UNK N   1      32.071  16.008   5.206  0.00  0.00    -0.056 A 
HETATM    5  C   UNK N   1      31.699  17.279   4.757  0.00  0.00     0.008 A 
HETATM    6  C   UNK N   1      30.355  17.582   4.552  0.00  0.00     0.014 A 
HETATM    7  C   UNK N   1      29.379  16.607   4.792  0.00  0.00     0.025 A 
HETATM    8  C   UNK N   1      29.762  15.343   5.264  0.00  0.00     0.014 A 
HETATM    9  C   UNK N   1      31.102  15.045   5.477  0.00  0.00     0.008 A 
BRANCH   7  10
HETATM   10  C   UNK N   1      27.941  16.867   4.466  0.00  0.00     0.364 C 
HETATM   11  F   UNK N   1      27.694  16.681   3.115  0.00  0.00    -0.187 F 
HETATM   12  F   UNK N   1      27.171  15.970   5.183  0.00  0.00    -0.187 F 
BRANCH  10  13
HETATM   13  P   UNK N   1      27.439  18.595   4.948  0.00  0.00     0.315 P 
HETATM   14  O   UNK N   1      25.892  18.718   4.979  0.00  0.00    -0.649 OA
BRANCH  13  15
HETATM   15  O   UNK N   1      27.924  19.812   3.812  0.00  0.00    -0.325 OA
HETATM   16  H   UNK N   1      28.849  20.023   3.613  0.00  0.00     0.220 HD
ENDBRANCH  13  15
BRANCH  13  17
HETATM   17  O   UNK N   1      27.942  19.126   6.522  0.00  0.00    -0.325 OA
HETATM   18  H   UNK N   1      27.740  19.302   7.454  0.00  0.00     0.220 HD
ENDBRANCH  13  17
ENDBRANCH  10  13
ENDBRANCH   7  10
ENDBRANCH   3   4
ENDBRANCH   2   3
BRANCH   2  19
HETATM   19  N   UNK N   1      33.545  16.398   7.670  0.00  0.00    -0.362 N 
ATOM     20  HN  UNK N   1      33.044  15.582   8.020  1.00  0.00     0.162 HD
BRANCH  19  21
HETATM   21  C   UNK N   1      33.430  17.508   8.315  0.00  0.00     0.107 C 
HETATM   22  C   UNK N   1      34.560  18.477   8.312  0.00  0.00     0.097 C 
BRANCH  21  23
HETATM   23  O   UNK N   1      32.302  17.805   8.992  0.00  0.00    -0.350 OA
HETATM   24  H   UNK N   1      31.756  18.557   9.115  0.00  0.00     0.219 HD
ENDBRANCH  21  23
ENDBRANCH  19  21
ENDBRANCH   2  19
ENDBRANCH   1   2
BRANCH   1  25
HETATM   25  N   UNK N   1      35.135  14.233   7.491  0.00  0.00    -0.359 N 
ATOM     26  HN  UNK N   1      34.232  13.758   7.463  1.00  0.00     0.162 HD
BRANCH  25  27
HETATM   27  C   UNK N   1      36.069  13.825   8.519  0.00  0.00     0.175 C 
HETATM   28  C   UNK N   1      36.511  12.358   8.342  0.00  0.00     0.035 C 
HETATM   29  C   UNK N   1      37.689  11.935   9.206  0.00  0.00     0.004 C 
HETATM   30  C   UNK N   1      37.342  11.986  10.675  0.00  0.00     0.020 C 
HETATM   31  C   UNK N   1      37.347  13.435  11.110  0.00  0.00     0.126 C 
HETATM   32  N   UNK N   1      36.012  14.008  11.053  0.00  0.00    -0.346 N 
HETATM   33  C   UNK N   1      35.390  14.159   9.857  0.00  0.00     0.242 C 
HETATM   34  O   UNK N   1      34.260  14.634   9.846  0.00  0.00    -0.271 OA
BRANCH  32  35
HETATM   35  C   UNK N   1      35.328  14.484  12.268  0.00  0.00     0.164 C 
BRANCH  35  36
HETATM   36  C   UNK N   1      35.658  13.647  13.446  0.00  0.00    -0.040 A 
HETATM   37  C   UNK N   1      34.938  12.470  13.654  0.00  0.00     0.009 A 
HETATM   38  C   UNK N   1      34.910  11.898  14.914  0.00  0.00     0.013 A 
HETATM   39  C   UNK N   1      35.636  12.475  15.964  0.00  0.00    -0.026 A 
HETATM   40  C   UNK N   1      36.468  13.578  15.711  0.00  0.00     0.013 A 
HETATM   41  C   UNK N   1      36.462  14.178  14.454  0.00  0.00     0.009 A 
BRANCH  39  42
HETATM   42  C   UNK N   1      35.352  12.073  17.349  0.00  0.00    -0.026 A 
HETATM   43  C   UNK N   1      35.295  10.720  17.707  0.00  0.00     0.012 A 
HETATM   44  C   UNK N   1      35.172  10.354  19.050  0.00  0.00     0.001 A 
HETATM   45  C   UNK N   1      35.147  11.335  20.044  0.00  0.00     0.000 A 
HETATM   46  C   UNK N   1      35.216  12.686  19.696  0.00  0.00     0.001 A 
HETATM   47  C   UNK N   1      35.313  13.054  18.356  0.00  0.00     0.012 A 
ENDBRANCH  39  42
ENDBRANCH  35  36
ENDBRANCH  32  35
ENDBRANCH  25  27
ENDBRANCH   1  25
BRANCH   1  48
HETATM   48  O   UNK N   1      36.289  15.003   5.643  0.00  0.00    -0.348 OA
HETATM   49  H   UNK N   1      36.609  14.627   4.846  0.00  0.00     0.219 HD
ENDBRANCH   1  48
TORSDOF 16
ENDMDL
MODEL 9
REMARK VINA RESULT:      -7.9      6.634     11.405
REMARK  16 active torsions:
REMARK  status: ('A' for Active; 'I' for Inactive)
REMARK    1  A    between atoms: C_22  and  C_19 
REMARK    2  A    between atoms: C_28  and  C_19 
REMARK    3  A    between atoms: C_23  and  C_20 
REMARK    4  A    between atoms: N_38  and  C_20 
REMARK    5  A    between atoms: N_34  and  C_21 
REMARK    6  A    between atoms: O_39  and  C_21 
REMARK    7  A    between atoms: C_25  and  C_24 
REMARK    8  A    between atoms: C_31  and  C_26 
REMARK    9  A    between atoms: C_27  and  N_36 
REMARK   10  A    between atoms: C_29  and  C_28 
REMARK   11  A    between atoms: C_28  and  N_34 
REMARK   12  A    between atoms: N_36  and  C_29 
REMARK   13  A    between atoms: C_29  and  O_40 
REMARK   14  A    between atoms: P_45  and  C_31 
REMARK   15  A    between atoms: P_45  and  O_42 
REMARK   16  A    between atoms: P_45  and  O_43 
ROOT
HETATM    1  C   UNK N   1      27.258  18.155   5.698  0.00  0.00     0.135 C 
ENDROOT
BRANCH   1   2
HETATM    2  C   UNK N   1      28.299  17.648   6.635  0.00  0.00     0.162 C 
BRANCH   2   3
HETATM    3  C   UNK N   1      29.418  17.306   5.647  0.00  0.00     0.072 C 
BRANCH   3   4
HETATM    4  C   UNK N   1      30.684  16.706   6.105  0.00  0.00    -0.056 A 
HETATM    5  C   UNK N   1      31.798  17.546   6.216  0.00  0.00     0.008 A 
HETATM    6  C   UNK N   1      32.994  17.054   6.733  0.00  0.00     0.014 A 
HETATM    7  C   UNK N   1      33.076  15.719   7.146  0.00  0.00     0.025 A 
HETATM    8  C   UNK N   1      31.960  14.880   7.009  0.00  0.00     0.014 A 
HETATM    9  C   UNK N   1      30.770  15.369   6.484  0.00  0.00     0.008 A 
BRANCH   7  10
HETATM   10  C   UNK N   1      34.309  15.199   7.816  0.00  0.00     0.364 C 
HETATM   11  F   UNK N   1      34.411  13.824   7.677  0.00  0.00    -0.187 F 
HETATM   12  F   UNK N   1      35.404  15.786   7.210  0.00  0.00    -0.187 F 
BRANCH  10  13
HETATM   13  P   UNK N   1      34.330  15.634   9.628  0.00  0.00     0.315 P 
HETATM   14  O   UNK N   1      34.561  17.158   9.813  0.00  0.00    -0.649 OA
BRANCH  13  15
HETATM   15  O   UNK N   1      35.637  14.912  10.510  0.00  0.00    -0.325 OA
HETATM   16  H   UNK N   1      36.163  15.385  11.173  0.00  0.00     0.220 HD
ENDBRANCH  13  15
BRANCH  13  17
HETATM   17  O   UNK N   1      32.870  15.312  10.508  0.00  0.00    -0.325 OA
HETATM   18  H   UNK N   1      31.973  15.572  10.772  0.00  0.00     0.220 HD
ENDBRANCH  13  17
ENDBRANCH  10  13
ENDBRANCH   7  10
ENDBRANCH   3   4
ENDBRANCH   2   3
BRANCH   2  19
HETATM   19  N   UNK N   1      28.728  18.666   7.579  0.00  0.00    -0.362 N 
ATOM     20  HN  UNK N   1      29.132  19.526   7.209  1.00  0.00     0.162 HD
BRANCH  19  21
HETATM   21  C   UNK N   1      28.626  18.541   8.858  0.00  0.00     0.107 C 
HETATM   22  C   UNK N   1      29.841  18.688   9.706  0.00  0.00     0.097 C 
BRANCH  21  23
HETATM   23  O   UNK N   1      27.438  18.279   9.438  0.00  0.00    -0.350 OA
HETATM   24  H   UNK N   1      27.065  17.592   9.954  0.00  0.00     0.219 HD
ENDBRANCH  21  23
ENDBRANCH  19  21
ENDBRANCH   2  19
ENDBRANCH   1   2
BRANCH   1  25
HETATM   25  N   UNK N   1      26.061  17.669   5.800  0.00  0.00    -0.359 N 
ATOM     26  HN  UNK N   1      25.612  17.716   6.715  1.00  0.00     0.162 HD
BRANCH  25  27
HETATM   27  C   UNK N   1      25.309  17.066   4.720  0.00  0.00     0.175 C 
HETATM   28  C   UNK N   1      23.798  17.347   4.848  0.00  0.00     0.035 C 
HETATM   29  C   UNK N   1      22.974  16.988   3.621  0.00  0.00     0.004 C 
HETATM   30  C   UNK N   1      22.998  15.501   3.356  0.00  0.00     0.020 C 
HETATM   31  C   UNK N   1      24.338  15.153   2.747  0.00  0.00     0.126 C 
HETATM   32  N   UNK N   1      25.282  14.713   3.762  0.00  0.00    -0.346 N 
HETATM   33  C   UNK N   1      25.711  15.582   4.710  0.00  0.00     0.242 C 
HETATM   34  O   UNK N   1      26.497  15.175   5.558  0.00  0.00    -0.271 OA
BRANCH  32  35
HETATM   35  C   UNK N   1      25.831  13.346   3.759  0.00  0.00     0.164 C 
BRANCH  35  36
HETATM   36  C   UNK N   1      27.246  13.325   3.320  0.00  0.00    -0.040 A 
HETATM   37  C   UNK N   1      28.192  12.704   4.137  0.00  0.00     0.009 A 
HETATM   38  C   UNK N   1      29.533  13.018   3.994  0.00  0.00     0.013 A 
HETATM   39  C   UNK N   1      29.941  13.921   3.004  0.00  0.00    -0.026 A 
HETATM   40  C   UNK N   1      28.998  14.432   2.097  0.00  0.00     0.013 A 
HETATM   41  C   UNK N   1      27.645  14.150   2.269  0.00  0.00     0.009 A 
BRANCH  39  42
HETATM   42  C   UNK N   1      31.291  14.499   3.062  0.00  0.00    -0.026 A 
HETATM   43  C   UNK N   1      31.498  15.867   2.841  0.00  0.00     0.012 A 
HETATM   44  C   UNK N   1      32.761  16.428   3.044  0.00  0.00     0.001 A 
HETATM   45  C   UNK N   1      33.813  15.634   3.508  0.00  0.00     0.000 A 
HETATM   46  C   UNK N   1      33.612  14.272   3.744  0.00  0.00     0.001 A 
HETATM   47  C   UNK N   1      32.359  13.706   3.517  0.00  0.00     0.012 A 
ENDBRANCH  39  42
ENDBRANCH  35  36
ENDBRANCH  32  35
ENDBRANCH  25  27
ENDBRANCH   1  25
BRANCH   1  48
HETATM   48  O   UNK N   1      27.515  19.265   4.975  0.00  0.00    -0.348 OA
HETATM   49  H   UNK N   1      28.037  20.013   4.757  0.00  0.00     0.219 HD
ENDBRANCH   1  48
TORSDOF 16
ENDMDL
