MODEL 1
REMARK VINA RESULT:      -6.2      0.000      0.000
REMARK  17 active torsions:
REMARK  status: ('A' for Active; 'I' for Inactive)
REMARK    1  A    between atoms: C_7  and  C_6 
REMARK    2  A    between atoms: C_12  and  C_6 
REMARK    3  A    between atoms: C_14  and  C_7 
REMARK    4  A    between atoms: C_15  and  C_8 
REMARK    5  A    between atoms: N_19  and  C_8 
REMARK    6  A    between atoms: C_11  and  C_9 
REMARK    7  A    between atoms: S_29  and  C_9 
REMARK    8  A    between atoms: C_13  and  C_10 
REMARK    9  A    between atoms: S_29  and  C_10 
REMARK   10  A    between atoms: C_17  and  C_12 
REMARK   11  A    between atoms: C_12  and  N_18 
REMARK   12  A    between atoms: C_16  and  C_13 
REMARK   13  A    between atoms: C_13  and  N_21 
REMARK   14  A    between atoms: C_14  and  O_23 
REMARK   15  A    between atoms: O_25  and  C_15 
REMARK   16  A    between atoms: O_26  and  C_16 
REMARK   17  A    between atoms: O_28  and  C_17 
ROOT
HETATM    1  C   UNK N   1      34.743  15.819   9.505  0.00  0.00     0.167 C 
ENDROOT
BRANCH   1   2
HETATM    2  C   UNK N   1      35.330  15.012   8.355  0.00  0.00     0.107 C 
BRANCH   2   3
HETATM    3  S   UNK N   1      34.064  14.177   7.350  0.00  0.00    -0.162 SA
BRANCH   3   4
HETATM    4  C   UNK N   1      34.458  15.226   5.911  0.00  0.00     0.112 C 
BRANCH   4   5
HETATM    5  C   UNK N   1      33.243  15.854   5.303  0.00  0.00    -0.049 A 
HETATM    6  C   UNK N   1      32.016  15.176   5.296  0.00  0.00     0.008 A 
HETATM    7  C   UNK N   1      30.876  15.782   4.763  0.00  0.00     0.001 A 
HETATM    8  C   UNK N   1      30.954  17.076   4.246  0.00  0.00     0.000 A 
HETATM    9  C   UNK N   1      32.173  17.762   4.258  0.00  0.00     0.001 A 
HETATM   10  C   UNK N   1      33.316  17.152   4.787  0.00  0.00     0.008 A 
ENDBRANCH   4   5
ENDBRANCH   3   4
ENDBRANCH   2   3
ENDBRANCH   1   2
BRANCH   1  11
HETATM   11  C   UNK N   1      34.419  14.879  10.656  0.00  0.00     0.136 C 
HETATM   12  N   UNK N   1      35.321  14.065  11.086  0.00  0.00    -0.363 N 
ATOM     13  HN  UNK N   1      36.242  14.079  10.648  1.00  0.00     0.161 HD
BRANCH  12  14
HETATM   14  C   UNK N   1      35.079  13.137  12.164  0.00  0.00     0.231 C 
BRANCH  14  15
HETATM   15  C   UNK N   1      35.617  13.672  13.459  0.00  0.00     0.158 C 
HETATM   16  O   UNK N   1      35.007  13.510  14.504  0.00  0.00    -0.649 OA
BRANCH  15  17
HETATM   17  O   UNK N   1      36.792  14.325  13.468  0.00  0.00    -0.775 OA
HETATM   18  H   UNK N   1      37.300  14.413  12.684  0.00  0.00     0.167 HD
ENDBRANCH  15  17
ENDBRANCH  14  15
ENDBRANCH  12  14
BRANCH  11  19
HETATM   19  O   UNK N   1      33.190  14.883  11.217  0.00  0.00    -0.348 OA
HETATM   20  H   UNK N   1      32.496  14.254  11.212  0.00  0.00     0.219 HD
ENDBRANCH  11  19
ENDBRANCH   1  11
BRANCH   1  21
HETATM   21  N   UNK N   1      33.550  16.489   9.014  0.00  0.00    -0.362 N 
HETATM   22  C   UNK N   1      33.532  17.709   8.588  0.00  0.00     0.111 C 
ATOM     23  HN  UNK N   1      32.675  15.965   9.004  1.00  0.00     0.162 HD
BRANCH  22  24
HETATM   24  C   UNK N   1      32.238  18.323   8.161  0.00  0.00     0.086 C 
BRANCH  24  25
HETATM   25  C   UNK N   1      31.106  17.331   8.404  0.00  0.00     0.043 C 
BRANCH  25  26
HETATM   26  C   UNK N   1      29.718  17.914   8.117  0.00  0.00     0.173 C 
BRANCH  26  27
HETATM   27  C   UNK N   1      28.946  18.321   9.352  0.00  0.00     0.163 C 
HETATM   28  O   UNK N   1      29.547  18.757  10.321  0.00  0.00    -0.648 OA
BRANCH  27  29
HETATM   29  O   UNK N   1      27.604  18.209   9.406  0.00  0.00    -0.775 OA
HETATM   30  H   UNK N   1      27.167  18.214  10.234  0.00  0.00     0.167 HD
ENDBRANCH  27  29
ENDBRANCH  26  27
BRANCH  26  31
HETATM   31  N   UNK N   1      28.938  16.962   7.343  0.00  0.00    -0.418 N 
HETATM   32  H   UNK N   1      28.740  16.685   6.382  0.00  0.00     0.150 HD
HETATM   33  H   UNK N   1      28.407  16.368   7.980  0.00  0.00     0.150 HD
ENDBRANCH  26  31
ENDBRANCH  25  26
ENDBRANCH  24  25
ENDBRANCH  22  24
BRANCH  22  34
HETATM   34  O   UNK N   1      34.666  18.439   8.528  0.00  0.00    -0.350 OA
HETATM   35  H   UNK N   1      35.216  18.956   9.083  0.00  0.00     0.219 HD
ENDBRANCH  22  34
ENDBRANCH   1  21
TORSDOF 17
ENDMDL
MODEL 2
REMARK VINA RESULT:      -6.2     13.694     16.942
REMARK  17 active torsions:
REMARK  status: ('A' for Active; 'I' for Inactive)
REMARK    1  A    between atoms: C_7  and  C_6 
REMARK    2  A    between atoms: C_12  and  C_6 
REMARK    3  A    between atoms: C_14  and  C_7 
REMARK    4  A    between atoms: C_15  and  C_8 
REMARK    5  A    between atoms: N_19  and  C_8 
REMARK    6  A    between atoms: C_11  and  C_9 
REMARK    7  A    between atoms: S_29  and  C_9 
REMARK    8  A    between atoms: C_13  and  C_10 
REMARK    9  A    between atoms: S_29  and  C_10 
REMARK   10  A    between atoms: C_17  and  C_12 
REMARK   11  A    between atoms: C_12  and  N_18 
REMARK   12  A    between atoms: C_16  and  C_13 
REMARK   13  A    between atoms: C_13  and  N_21 
REMARK   14  A    between atoms: C_14  and  O_23 
REMARK   15  A    between atoms: O_25  and  C_15 
REMARK   16  A    between atoms: O_26  and  C_16 
REMARK   17  A    between atoms: O_28  and  C_17 
ROOT
HETATM    1  C   UNK N   1      29.454  24.518  -3.113  0.00  0.00     0.167 C 
ENDROOT
BRANCH   1   2
HETATM    2  C   UNK N   1      30.465  25.506  -3.678  0.00  0.00     0.107 C 
BRANCH   2   3
HETATM    3  S   UNK N   1      30.122  25.969  -5.404  0.00  0.00    -0.162 SA
BRANCH   3   4
HETATM    4  C   UNK N   1      29.475  27.593  -4.881  0.00  0.00     0.112 C 
BRANCH   4   5
HETATM    5  C   UNK N   1      27.979  27.641  -4.863  0.00  0.00    -0.049 A 
HETATM    6  C   UNK N   1      27.244  27.436  -6.039  0.00  0.00     0.008 A 
HETATM    7  C   UNK N   1      25.848  27.443  -6.010  0.00  0.00     0.001 A 
HETATM    8  C   UNK N   1      25.178  27.641  -4.801  0.00  0.00     0.000 A 
HETATM    9  C   UNK N   1      25.906  27.837  -3.622  0.00  0.00     0.001 A 
HETATM   10  C   UNK N   1      27.305  27.836  -3.654  0.00  0.00     0.008 A 
ENDBRANCH   4   5
ENDBRANCH   3   4
ENDBRANCH   2   3
ENDBRANCH   1   2
BRANCH   1  11
HETATM   11  C   UNK N   1      30.165  23.213  -2.789  0.00  0.00     0.136 C 
HETATM   12  N   UNK N   1      30.428  22.380  -3.736  0.00  0.00    -0.363 N 
ATOM     13  HN  UNK N   1      30.161  22.622  -4.690  1.00  0.00     0.161 HD
BRANCH  12  14
HETATM   14  C   UNK N   1      31.086  21.117  -3.500  0.00  0.00     0.231 C 
BRANCH  14  15
HETATM   15  C   UNK N   1      32.545  21.322  -3.215  0.00  0.00     0.158 C 
HETATM   16  O   UNK N   1      33.312  21.673  -4.097  0.00  0.00    -0.649 OA
BRANCH  15  17
HETATM   17  O   UNK N   1      33.009  21.129  -1.968  0.00  0.00    -0.775 OA
HETATM   18  H   UNK N   1      32.489  21.355  -1.221  0.00  0.00     0.167 HD
ENDBRANCH  15  17
ENDBRANCH  14  15
ENDBRANCH  12  14
BRANCH  11  19
HETATM   19  O   UNK N   1      30.506  22.918  -1.516  0.00  0.00    -0.348 OA
HETATM   20  H   UNK N   1      30.799  23.453  -0.805  0.00  0.00     0.219 HD
ENDBRANCH  11  19
ENDBRANCH   1  11
BRANCH   1  21
HETATM   21  N   UNK N   1      28.416  24.325  -4.111  0.00  0.00    -0.362 N 
HETATM   22  C   UNK N   1      27.159  24.216  -3.832  0.00  0.00     0.111 C 
ATOM     23  HN  UNK N   1      28.696  24.273  -5.091  1.00  0.00     0.162 HD
BRANCH  22  24
HETATM   24  C   UNK N   1      26.179  23.959  -4.931  0.00  0.00     0.086 C 
BRANCH  24  25
HETATM   25  C   UNK N   1      26.934  23.692  -6.228  0.00  0.00     0.043 C 
BRANCH  25  26
HETATM   26  C   UNK N   1      26.086  22.983  -7.288  0.00  0.00     0.173 C 
BRANCH  26  27
HETATM   27  C   UNK N   1      25.516  23.900  -8.346  0.00  0.00     0.163 C 
HETATM   28  O   UNK N   1      24.477  23.595  -8.911  0.00  0.00    -0.648 OA
BRANCH  27  29
HETATM   29  O   UNK N   1      26.135  25.048  -8.683  0.00  0.00    -0.775 OA
HETATM   30  H   UNK N   1      26.402  25.649  -8.016  0.00  0.00     0.167 HD
ENDBRANCH  27  29
ENDBRANCH  26  27
BRANCH  26  31
HETATM   31  N   UNK N   1      25.008  22.250  -6.642  0.00  0.00    -0.418 N 
HETATM   32  H   UNK N   1      24.166  21.716  -6.853  0.00  0.00     0.150 HD
HETATM   33  H   UNK N   1      25.141  22.283  -5.630  0.00  0.00     0.150 HD
ENDBRANCH  26  31
ENDBRANCH  25  26
ENDBRANCH  24  25
ENDBRANCH  22  24
BRANCH  22  34
HETATM   34  O   UNK N   1      26.719  24.327  -2.561  0.00  0.00    -0.350 OA
HETATM   35  H   UNK N   1      27.042  24.279  -1.683  0.00  0.00     0.219 HD
ENDBRANCH  22  34
ENDBRANCH   1  21
TORSDOF 17
ENDMDL
MODEL 3
REMARK VINA RESULT:      -6.1     10.747     13.152
REMARK  17 active torsions:
REMARK  status: ('A' for Active; 'I' for Inactive)
REMARK    1  A    between atoms: C_7  and  C_6 
REMARK    2  A    between atoms: C_12  and  C_6 
REMARK    3  A    between atoms: C_14  and  C_7 
REMARK    4  A    between atoms: C_15  and  C_8 
REMARK    5  A    between atoms: N_19  and  C_8 
REMARK    6  A    between atoms: C_11  and  C_9 
REMARK    7  A    between atoms: S_29  and  C_9 
REMARK    8  A    between atoms: C_13  and  C_10 
REMARK    9  A    between atoms: S_29  and  C_10 
REMARK   10  A    between atoms: C_17  and  C_12 
REMARK   11  A    between atoms: C_12  and  N_18 
REMARK   12  A    between atoms: C_16  and  C_13 
REMARK   13  A    between atoms: C_13  and  N_21 
REMARK   14  A    between atoms: C_14  and  O_23 
REMARK   15  A    between atoms: O_25  and  C_15 
REMARK   16  A    between atoms: O_26  and  C_16 
REMARK   17  A    between atoms: O_28  and  C_17 
ROOT
HETATM    1  C   UNK N   1      21.678  16.186   6.888  0.00  0.00     0.167 C 
ENDROOT
BRANCH   1   2
HETATM    2  C   UNK N   1      21.855  14.745   6.429  0.00  0.00     0.107 C 
BRANCH   2   3
HETATM    3  S   UNK N   1      23.504  14.074   6.800  0.00  0.00    -0.162 SA
BRANCH   3   4
HETATM    4  C   UNK N   1      22.777  12.506   7.384  0.00  0.00     0.112 C 
BRANCH   4   5
HETATM    5  C   UNK N   1      22.762  12.396   8.877  0.00  0.00    -0.049 A 
HETATM    6  C   UNK N   1      21.561  12.513   9.590  0.00  0.00     0.008 A 
HETATM    7  C   UNK N   1      21.547  12.370  10.979  0.00  0.00     0.001 A 
HETATM    8  C   UNK N   1      22.733  12.094  11.662  0.00  0.00     0.000 A 
HETATM    9  C   UNK N   1      23.933  11.965  10.956  0.00  0.00     0.001 A 
HETATM   10  C   UNK N   1      23.948  12.115   9.565  0.00  0.00     0.008 A 
ENDBRANCH   4   5
ENDBRANCH   3   4
ENDBRANCH   2   3
ENDBRANCH   1   2
BRANCH   1  11
HETATM   11  C   UNK N   1      20.418  16.287   7.734  0.00  0.00     0.136 C 
HETATM   12  N   UNK N   1      20.003  17.444   8.123  0.00  0.00    -0.363 N 
ATOM     13  HN  UNK N   1      20.529  18.271   7.844  1.00  0.00     0.161 HD
BRANCH  12  14
HETATM   14  C   UNK N   1      18.825  17.612   8.938  0.00  0.00     0.231 C 
BRANCH  14  15
HETATM   15  C   UNK N   1      19.029  18.701   9.951  0.00  0.00     0.158 C 
HETATM   16  O   UNK N   1      18.182  18.934  10.799  0.00  0.00    -0.649 OA
BRANCH  15  17
HETATM   17  O   UNK N   1      20.167  19.418   9.931  0.00  0.00    -0.775 OA
HETATM   18  H   UNK N   1      20.638  19.594  10.723  0.00  0.00     0.167 HD
ENDBRANCH  15  17
ENDBRANCH  14  15
ENDBRANCH  12  14
BRANCH  11  19
HETATM   19  O   UNK N   1      19.742  15.172   8.088  0.00  0.00    -0.348 OA
HETATM   20  H   UNK N   1      19.772  14.292   7.769  0.00  0.00     0.219 HD
ENDBRANCH  11  19
ENDBRANCH   1  11
BRANCH   1  21
HETATM   21  N   UNK N   1      21.592  17.023   5.703  0.00  0.00    -0.362 N 
HETATM   22  C   UNK N   1      22.595  17.662   5.197  0.00  0.00     0.111 C 
ATOM     23  HN  UNK N   1      20.686  17.110   5.242  1.00  0.00     0.162 HD
BRANCH  22  24
HETATM   24  C   UNK N   1      22.384  18.544   4.009  0.00  0.00     0.086 C 
BRANCH  24  25
HETATM   25  C   UNK N   1      20.894  18.827   3.849  0.00  0.00     0.043 C 
BRANCH  25  26
HETATM   26  C   UNK N   1      20.415  18.747   2.396  0.00  0.00     0.173 C 
BRANCH  26  27
HETATM   27  C   UNK N   1      20.682  19.994   1.583  0.00  0.00     0.163 C 
HETATM   28  O   UNK N   1      20.867  21.057   2.154  0.00  0.00    -0.648 OA
BRANCH  27  29
HETATM   29  O   UNK N   1      20.714  19.957   0.236  0.00  0.00    -0.775 OA
HETATM   30  H   UNK N   1      20.889  20.738  -0.250  0.00  0.00     0.167 HD
ENDBRANCH  27  29
ENDBRANCH  26  27
BRANCH  26  31
HETATM   31  N   UNK N   1      18.996  18.436   2.365  0.00  0.00    -0.418 N 
HETATM   32  H   UNK N   1      18.271  18.067   1.750  0.00  0.00     0.150 HD
HETATM   33  H   UNK N   1      18.583  18.665   3.270  0.00  0.00     0.150 HD
ENDBRANCH  26  31
ENDBRANCH  25  26
ENDBRANCH  24  25
ENDBRANCH  22  24
BRANCH  22  34
HETATM   34  O   UNK N   1      23.829  17.549   5.730  0.00  0.00    -0.350 OA
HETATM   35  H   UNK N   1      24.429  16.888   6.018  0.00  0.00     0.219 HD
ENDBRANCH  22  34
ENDBRANCH   1  21
TORSDOF 17
ENDMDL
MODEL 4
REMARK VINA RESULT:      -6.1     13.571     16.731
REMARK  17 active torsions:
REMARK  status: ('A' for Active; 'I' for Inactive)
REMARK    1  A    between atoms: C_7  and  C_6 
REMARK    2  A    between atoms: C_12  and  C_6 
REMARK    3  A    between atoms: C_14  and  C_7 
REMARK    4  A    between atoms: C_15  and  C_8 
REMARK    5  A    between atoms: N_19  and  C_8 
REMARK    6  A    between atoms: C_11  and  C_9 
REMARK    7  A    between atoms: S_29  and  C_9 
REMARK    8  A    between atoms: C_13  and  C_10 
REMARK    9  A    between atoms: S_29  and  C_10 
REMARK   10  A    between atoms: C_17  and  C_12 
REMARK   11  A    between atoms: C_12  and  N_18 
REMARK   12  A    between atoms: C_16  and  C_13 
REMARK   13  A    between atoms: C_13  and  N_21 
REMARK   14  A    between atoms: C_14  and  O_23 
REMARK   15  A    between atoms: O_25  and  C_15 
REMARK   16  A    between atoms: O_26  and  C_16 
REMARK   17  A    between atoms: O_28  and  C_17 
ROOT
HETATM    1  C   UNK N   1      29.393  24.520  -3.186  0.00  0.00     0.167 C 
ENDROOT
BRANCH   1   2
HETATM    2  C   UNK N   1      30.401  25.515  -3.744  0.00  0.00     0.107 C 
BRANCH   2   3
HETATM    3  S   UNK N   1      30.096  25.941  -5.485  0.00  0.00    -0.162 SA
BRANCH   3   4
HETATM    4  C   UNK N   1      29.513  27.605  -5.017  0.00  0.00     0.112 C 
BRANCH   4   5
HETATM    5  C   UNK N   1      28.023  27.681  -4.886  0.00  0.00    -0.049 A 
HETATM    6  C   UNK N   1      27.199  27.523  -6.009  0.00  0.00     0.008 A 
HETATM    7  C   UNK N   1      25.809  27.555  -5.875  0.00  0.00     0.001 A 
HETATM    8  C   UNK N   1      25.235  27.731  -4.614  0.00  0.00     0.000 A 
HETATM    9  C   UNK N   1      26.053  27.879  -3.489  0.00  0.00     0.001 A 
HETATM   10  C   UNK N   1      27.445  27.853  -3.625  0.00  0.00     0.008 A 
ENDBRANCH   4   5
ENDBRANCH   3   4
ENDBRANCH   2   3
ENDBRANCH   1   2
BRANCH   1  11
HETATM   11  C   UNK N   1      30.113  23.227  -2.835  0.00  0.00     0.136 C 
HETATM   12  N   UNK N   1      30.390  22.379  -3.765  0.00  0.00    -0.363 N 
ATOM     13  HN  UNK N   1      30.125  22.601  -4.725  1.00  0.00     0.161 HD
BRANCH  12  14
HETATM   14  C   UNK N   1      31.058  21.128  -3.502  0.00  0.00     0.231 C 
BRANCH  14  15
HETATM   15  C   UNK N   1      32.511  21.352  -3.205  0.00  0.00     0.158 C 
HETATM   16  O   UNK N   1      33.276  21.741  -4.074  0.00  0.00    -0.649 OA
BRANCH  15  17
HETATM   17  O   UNK N   1      32.973  21.135  -1.960  0.00  0.00    -0.775 OA
HETATM   18  H   UNK N   1      33.515  21.769  -1.531  0.00  0.00     0.167 HD
ENDBRANCH  15  17
ENDBRANCH  14  15
ENDBRANCH  12  14
BRANCH  11  19
HETATM   19  O   UNK N   1      30.451  22.959  -1.554  0.00  0.00    -0.348 OA
HETATM   20  H   UNK N   1      30.322  22.202  -1.017  0.00  0.00     0.219 HD
ENDBRANCH  11  19
ENDBRANCH   1  11
BRANCH   1  21
HETATM   21  N   UNK N   1      28.376  24.303  -4.202  0.00  0.00    -0.362 N 
HETATM   22  C   UNK N   1      27.112  24.207  -3.948  0.00  0.00     0.111 C 
ATOM     23  HN  UNK N   1      28.677  24.221  -5.173  1.00  0.00     0.162 HD
BRANCH  22  24
HETATM   24  C   UNK N   1      26.156  23.922  -5.061  0.00  0.00     0.086 C 
BRANCH  24  25
HETATM   25  C   UNK N   1      26.904  23.955  -6.389  0.00  0.00     0.043 C 
BRANCH  25  26
HETATM   26  C   UNK N   1      26.911  22.605  -7.113  0.00  0.00     0.173 C 
BRANCH  26  27
HETATM   27  C   UNK N   1      28.261  21.924  -7.148  0.00  0.00     0.163 C 
HETATM   28  O   UNK N   1      29.112  22.234  -6.330  0.00  0.00    -0.648 OA
BRANCH  27  29
HETATM   29  O   UNK N   1      28.544  20.981  -8.069  0.00  0.00    -0.775 OA
HETATM   30  H   UNK N   1      27.895  20.728  -8.695  0.00  0.00     0.167 HD
ENDBRANCH  27  29
ENDBRANCH  26  27
BRANCH  26  31
HETATM   31  N   UNK N   1      26.413  22.775  -8.469  0.00  0.00    -0.418 N 
HETATM   32  H   UNK N   1      26.573  23.317  -9.318  0.00  0.00     0.150 HD
HETATM   33  H   UNK N   1      25.636  22.131  -8.623  0.00  0.00     0.150 HD
ENDBRANCH  26  31
ENDBRANCH  25  26
ENDBRANCH  24  25
ENDBRANCH  22  24
BRANCH  22  34
HETATM   34  O   UNK N   1      26.645  24.356  -2.691  0.00  0.00    -0.350 OA
HETATM   35  H   UNK N   1      26.477  25.031  -2.063  0.00  0.00     0.219 HD
ENDBRANCH  22  34
ENDBRANCH   1  21
TORSDOF 17
ENDMDL
MODEL 5
REMARK VINA RESULT:      -6.0     11.747     14.283
REMARK  17 active torsions:
REMARK  status: ('A' for Active; 'I' for Inactive)
REMARK    1  A    between atoms: C_7  and  C_6 
REMARK    2  A    between atoms: C_12  and  C_6 
REMARK    3  A    between atoms: C_14  and  C_7 
REMARK    4  A    between atoms: C_15  and  C_8 
REMARK    5  A    between atoms: N_19  and  C_8 
REMARK    6  A    between atoms: C_11  and  C_9 
REMARK    7  A    between atoms: S_29  and  C_9 
REMARK    8  A    between atoms: C_13  and  C_10 
REMARK    9  A    between atoms: S_29  and  C_10 
REMARK   10  A    between atoms: C_17  and  C_12 
REMARK   11  A    between atoms: C_12  and  N_18 
REMARK   12  A    between atoms: C_16  and  C_13 
REMARK   13  A    between atoms: C_13  and  N_21 
REMARK   14  A    between atoms: C_14  and  O_23 
REMARK   15  A    between atoms: O_25  and  C_15 
REMARK   16  A    between atoms: O_26  and  C_16 
REMARK   17  A    between atoms: O_28  and  C_17 
ROOT
HETATM    1  C   UNK N   1      21.995  17.725   4.933  0.00  0.00     0.167 C 
ENDROOT
BRANCH   1   2
HETATM    2  C   UNK N   1      21.349  17.713   6.312  0.00  0.00     0.107 C 
BRANCH   2   3
HETATM    3  S   UNK N   1      20.178  16.340   6.539  0.00  0.00    -0.162 SA
BRANCH   3   4
HETATM    4  C   UNK N   1      20.605  16.216   8.308  0.00  0.00     0.112 C 
BRANCH   4   5
HETATM    5  C   UNK N   1      21.095  14.855   8.692  0.00  0.00    -0.049 A 
HETATM    6  C   UNK N   1      22.140  14.246   7.983  0.00  0.00     0.008 A 
HETATM    7  C   UNK N   1      22.620  12.993   8.369  0.00  0.00     0.001 A 
HETATM    8  C   UNK N   1      22.066  12.347   9.477  0.00  0.00     0.000 A 
HETATM    9  C   UNK N   1      21.030  12.954  10.194  0.00  0.00     0.001 A 
HETATM   10  C   UNK N   1      20.546  14.207   9.803  0.00  0.00     0.008 A 
ENDBRANCH   4   5
ENDBRANCH   3   4
ENDBRANCH   2   3
ENDBRANCH   1   2
BRANCH   1  11
HETATM   11  C   UNK N   1      21.657  19.035   4.238  0.00  0.00     0.136 C 
HETATM   12  N   UNK N   1      22.360  19.421   3.229  0.00  0.00    -0.363 N 
ATOM     13  HN  UNK N   1      23.127  18.829   2.913  1.00  0.00     0.161 HD
BRANCH  12  14
HETATM   14  C   UNK N   1      22.105  20.658   2.532  0.00  0.00     0.231 C 
BRANCH  14  15
HETATM   15  C   UNK N   1      21.097  20.454   1.439  0.00  0.00     0.158 C 
HETATM   16  O   UNK N   1      21.412  20.576   0.266  0.00  0.00    -0.649 OA
BRANCH  15  17
HETATM   17  O   UNK N   1      19.834  20.120   1.758  0.00  0.00    -0.775 OA
HETATM   18  H   UNK N   1      19.108  20.467   1.276  0.00  0.00     0.167 HD
ENDBRANCH  15  17
ENDBRANCH  14  15
ENDBRANCH  12  14
BRANCH  11  19
HETATM   19  O   UNK N   1      20.634  19.799   4.680  0.00  0.00    -0.348 OA
HETATM   20  H   UNK N   1      19.999  20.320   4.229  0.00  0.00     0.219 HD
ENDBRANCH  11  19
ENDBRANCH   1  11
BRANCH   1  21
HETATM   21  N   UNK N   1      21.485  16.583   4.194  0.00  0.00    -0.362 N 
HETATM   22  C   UNK N   1      22.235  15.723   3.588  0.00  0.00     0.111 C 
ATOM     23  HN  UNK N   1      20.474  16.452   4.151  1.00  0.00     0.162 HD
BRANCH  22  24
HETATM   24  C   UNK N   1      21.605  14.617   2.804  0.00  0.00     0.086 C 
BRANCH  24  25
HETATM   25  C   UNK N   1      21.630  14.973   1.321  0.00  0.00     0.043 C 
BRANCH  25  26
HETATM   26  C   UNK N   1      20.268  15.419   0.782  0.00  0.00     0.173 C 
BRANCH  26  27
HETATM   27  C   UNK N   1      20.032  16.911   0.841  0.00  0.00     0.163 C 
HETATM   28  O   UNK N   1      19.625  17.416   1.875  0.00  0.00    -0.648 OA
BRANCH  27  29
HETATM   29  O   UNK N   1      20.260  17.698  -0.230  0.00  0.00    -0.775 OA
HETATM   30  H   UNK N   1      20.938  17.478  -0.837  0.00  0.00     0.167 HD
ENDBRANCH  27  29
ENDBRANCH  26  27
BRANCH  26  31
HETATM   31  N   UNK N   1      19.208  14.727   1.498  0.00  0.00    -0.418 N 
HETATM   32  H   UNK N   1      18.981  14.344   2.415  0.00  0.00     0.150 HD
HETATM   33  H   UNK N   1      18.424  14.569   0.864  0.00  0.00     0.150 HD
ENDBRANCH  26  31
ENDBRANCH  25  26
ENDBRANCH  24  25
ENDBRANCH  22  24
BRANCH  22  34
HETATM   34  O   UNK N   1      23.580  15.812   3.649  0.00  0.00    -0.350 OA
HETATM   35  H   UNK N   1      24.295  15.522   4.181  0.00  0.00     0.219 HD
ENDBRANCH  22  34
ENDBRANCH   1  21
TORSDOF 17
ENDMDL
MODEL 6
REMARK VINA RESULT:      -5.9      2.853      7.201
REMARK  17 active torsions:
REMARK  status: ('A' for Active; 'I' for Inactive)
REMARK    1  A    between atoms: C_7  and  C_6 
REMARK    2  A    between atoms: C_12  and  C_6 
REMARK    3  A    between atoms: C_14  and  C_7 
REMARK    4  A    between atoms: C_15  and  C_8 
REMARK    5  A    between atoms: N_19  and  C_8 
REMARK    6  A    between atoms: C_11  and  C_9 
REMARK    7  A    between atoms: S_29  and  C_9 
REMARK    8  A    between atoms: C_13  and  C_10 
REMARK    9  A    between atoms: S_29  and  C_10 
REMARK   10  A    between atoms: C_17  and  C_12 
REMARK   11  A    between atoms: C_12  and  N_18 
REMARK   12  A    between atoms: C_16  and  C_13 
REMARK   13  A    between atoms: C_13  and  N_21 
REMARK   14  A    between atoms: C_14  and  O_23 
REMARK   15  A    between atoms: O_25  and  C_15 
REMARK   16  A    between atoms: O_26  and  C_16 
REMARK   17  A    between atoms: O_28  and  C_17 
ROOT
HETATM    1  C   UNK N   1      32.886  17.306   8.640  0.00  0.00     0.167 C 
ENDROOT
BRANCH   1   2
HETATM    2  C   UNK N   1      31.440  16.834   8.573  0.00  0.00     0.107 C 
BRANCH   2   3
HETATM    3  S   UNK N   1      30.238  18.187   8.756  0.00  0.00    -0.162 SA
BRANCH   3   4
HETATM    4  C   UNK N   1      29.221  17.520   7.397  0.00  0.00     0.112 C 
BRANCH   4   5
HETATM    5  C   UNK N   1      28.494  18.588   6.641  0.00  0.00    -0.049 A 
HETATM    6  C   UNK N   1      27.861  19.639   7.319  0.00  0.00     0.008 A 
HETATM    7  C   UNK N   1      27.218  20.654   6.608  0.00  0.00     0.001 A 
HETATM    8  C   UNK N   1      27.217  20.631   5.211  0.00  0.00     0.000 A 
HETATM    9  C   UNK N   1      27.856  19.591   4.528  0.00  0.00     0.001 A 
HETATM   10  C   UNK N   1      28.494  18.572   5.242  0.00  0.00     0.008 A 
ENDBRANCH   4   5
ENDBRANCH   3   4
ENDBRANCH   2   3
ENDBRANCH   1   2
BRANCH   1  11
HETATM   11  C   UNK N   1      33.369  17.629   7.235  0.00  0.00     0.136 C 
HETATM   12  N   UNK N   1      32.683  17.230   6.219  0.00  0.00    -0.363 N 
ATOM     13  HN  UNK N   1      31.821  16.712   6.383  1.00  0.00     0.161 HD
BRANCH  12  14
HETATM   14  C   UNK N   1      33.089  17.488   4.858  0.00  0.00     0.231 C 
BRANCH  14  15
HETATM   15  C   UNK N   1      32.068  16.965   3.890  0.00  0.00     0.158 C 
HETATM   16  O   UNK N   1      32.193  17.146   2.689  0.00  0.00    -0.649 OA
BRANCH  15  17
HETATM   17  O   UNK N   1      31.009  16.276   4.352  0.00  0.00    -0.775 OA
HETATM   18  H   UNK N   1      30.170  16.685   4.438  0.00  0.00     0.167 HD
ENDBRANCH  15  17
ENDBRANCH  14  15
ENDBRANCH  12  14
BRANCH  11  19
HETATM   19  O   UNK N   1      34.516  18.317   7.047  0.00  0.00    -0.348 OA
HETATM   20  H   UNK N   1      35.240  18.183   6.467  0.00  0.00     0.219 HD
ENDBRANCH  11  19
ENDBRANCH   1  11
BRANCH   1  21
HETATM   21  N   UNK N   1      33.673  16.241   9.241  0.00  0.00    -0.362 N 
HETATM   22  C   UNK N   1      34.813  16.426   9.821  0.00  0.00     0.111 C 
ATOM     23  HN  UNK N   1      33.302  15.291   9.204  1.00  0.00     0.162 HD
BRANCH  22  24
HETATM   24  C   UNK N   1      35.569  15.252  10.353  0.00  0.00     0.086 C 
BRANCH  24  25
HETATM   25  C   UNK N   1      35.803  15.439  11.848  0.00  0.00     0.043 C 
BRANCH  25  26
HETATM   26  C   UNK N   1      36.136  14.133  12.576  0.00  0.00     0.173 C 
BRANCH  26  27
HETATM   27  C   UNK N   1      36.306  14.279  14.072  0.00  0.00     0.163 C 
HETATM   28  O   UNK N   1      35.675  13.553  14.823  0.00  0.00    -0.648 OA
BRANCH  27  29
HETATM   29  O   UNK N   1      37.140  15.201  14.594  0.00  0.00    -0.775 OA
HETATM   30  H   UNK N   1      38.065  15.116  14.476  0.00  0.00     0.167 HD
ENDBRANCH  27  29
ENDBRANCH  26  27
BRANCH  26  31
HETATM   31  N   UNK N   1      37.336  13.545  12.002  0.00  0.00    -0.418 N 
HETATM   32  H   UNK N   1      37.641  12.789  11.389  0.00  0.00     0.150 HD
HETATM   33  H   UNK N   1      38.151  14.068  12.322  0.00  0.00     0.150 HD
ENDBRANCH  26  31
ENDBRANCH  25  26
ENDBRANCH  24  25
ENDBRANCH  22  24
BRANCH  22  34
HETATM   34  O   UNK N   1      35.333  17.665   9.947  0.00  0.00    -0.350 OA
HETATM   35  H   UNK N   1      35.308  18.398  10.531  0.00  0.00     0.219 HD
ENDBRANCH  22  34
ENDBRANCH   1  21
TORSDOF 17
ENDMDL
MODEL 7
REMARK VINA RESULT:      -5.7      9.712     12.923
REMARK  17 active torsions:
REMARK  status: ('A' for Active; 'I' for Inactive)
REMARK    1  A    between atoms: C_7  and  C_6 
REMARK    2  A    between atoms: C_12  and  C_6 
REMARK    3  A    between atoms: C_14  and  C_7 
REMARK    4  A    between atoms: C_15  and  C_8 
REMARK    5  A    between atoms: N_19  and  C_8 
REMARK    6  A    between atoms: C_11  and  C_9 
REMARK    7  A    between atoms: S_29  and  C_9 
REMARK    8  A    between atoms: C_13  and  C_10 
REMARK    9  A    between atoms: S_29  and  C_10 
REMARK   10  A    between atoms: C_17  and  C_12 
REMARK   11  A    between atoms: C_12  and  N_18 
REMARK   12  A    between atoms: C_16  and  C_13 
REMARK   13  A    between atoms: C_13  and  N_21 
REMARK   14  A    between atoms: C_14  and  O_23 
REMARK   15  A    between atoms: O_25  and  C_15 
REMARK   16  A    between atoms: O_26  and  C_16 
REMARK   17  A    between atoms: O_28  and  C_17 
ROOT
HETATM    1  C   UNK N   1      21.574  16.769   4.618  0.00  0.00     0.167 C 
ENDROOT
BRANCH   1   2
HETATM    2  C   UNK N   1      22.772  17.613   5.033  0.00  0.00     0.107 C 
BRANCH   2   3
HETATM    3  S   UNK N   1      24.298  17.169   4.148  0.00  0.00    -0.162 SA
BRANCH   3   4
HETATM    4  C   UNK N   1      24.554  18.902   3.641  0.00  0.00     0.112 C 
BRANCH   4   5
HETATM    5  C   UNK N   1      25.741  19.530   4.303  0.00  0.00    -0.049 A 
HETATM    6  C   UNK N   1      25.572  20.510   5.291  0.00  0.00     0.008 A 
HETATM    7  C   UNK N   1      26.682  21.064   5.933  0.00  0.00     0.001 A 
HETATM    8  C   UNK N   1      27.967  20.629   5.602  0.00  0.00     0.000 A 
HETATM    9  C   UNK N   1      28.141  19.644   4.624  0.00  0.00     0.001 A 
HETATM   10  C   UNK N   1      27.030  19.095   3.976  0.00  0.00     0.008 A 
ENDBRANCH   4   5
ENDBRANCH   3   4
ENDBRANCH   2   3
ENDBRANCH   1   2
BRANCH   1  11
HETATM   11  C   UNK N   1      20.656  17.608   3.743  0.00  0.00     0.136 C 
HETATM   12  N   UNK N   1      21.001  18.809   3.426  0.00  0.00    -0.363 N 
ATOM     13  HN  UNK N   1      21.894  19.167   3.764  1.00  0.00     0.161 HD
BRANCH  12  14
HETATM   14  C   UNK N   1      20.173  19.666   2.612  0.00  0.00     0.231 C 
BRANCH  14  15
HETATM   15  C   UNK N   1      21.007  20.685   1.893  0.00  0.00     0.158 C 
HETATM   16  O   UNK N   1      21.226  20.584   0.696  0.00  0.00    -0.649 OA
BRANCH  15  17
HETATM   17  O   UNK N   1      21.508  21.731   2.574  0.00  0.00    -0.775 OA
HETATM   18  H   UNK N   1      21.054  22.084   3.315  0.00  0.00     0.167 HD
ENDBRANCH  15  17
ENDBRANCH  14  15
ENDBRANCH  12  14
BRANCH  11  19
HETATM   19  O   UNK N   1      19.478  17.108   3.310  0.00  0.00    -0.348 OA
HETATM   20  H   UNK N   1      18.592  17.278   3.565  0.00  0.00     0.219 HD
ENDBRANCH  11  19
ENDBRANCH   1  11
BRANCH   1  21
HETATM   21  N   UNK N   1      20.900  16.330   5.829  0.00  0.00    -0.362 N 
HETATM   22  C   UNK N   1      21.091  15.179   6.383  0.00  0.00     0.111 C 
ATOM     23  HN  UNK N   1      20.237  16.970   6.268  1.00  0.00     0.162 HD
BRANCH  22  24
HETATM   24  C   UNK N   1      20.300  14.802   7.594  0.00  0.00     0.086 C 
BRANCH  24  25
HETATM   25  C   UNK N   1      20.430  15.901   8.643  0.00  0.00     0.043 C 
BRANCH  25  26
HETATM   26  C   UNK N   1      19.365  16.994   8.510  0.00  0.00     0.173 C 
BRANCH  26  27
HETATM   27  C   UNK N   1      19.889  18.401   8.688  0.00  0.00     0.163 C 
HETATM   28  O   UNK N   1      20.584  18.899   7.817  0.00  0.00    -0.648 OA
BRANCH  27  29
HETATM   29  O   UNK N   1      19.607  19.118   9.794  0.00  0.00    -0.775 OA
HETATM   30  H   UNK N   1      19.106  18.733  10.486  0.00  0.00     0.167 HD
ENDBRANCH  27  29
ENDBRANCH  26  27
BRANCH  26  31
HETATM   31  N   UNK N   1      18.291  16.747   9.459  0.00  0.00    -0.418 N 
HETATM   32  H   UNK N   1      17.661  16.012   9.780  0.00  0.00     0.150 HD
HETATM   33  H   UNK N   1      18.103  17.603   9.982  0.00  0.00     0.150 HD
ENDBRANCH  26  31
ENDBRANCH  25  26
ENDBRANCH  24  25
ENDBRANCH  22  24
BRANCH  22  34
HETATM   34  O   UNK N   1      21.991  14.308   5.880  0.00  0.00    -0.350 OA
HETATM   35  H   UNK N   1      22.289  13.429   6.009  0.00  0.00     0.219 HD
ENDBRANCH  22  34
ENDBRANCH   1  21
TORSDOF 17
ENDMDL
MODEL 8
REMARK VINA RESULT:      -5.6      7.878     12.644
REMARK  17 active torsions:
REMARK  status: ('A' for Active; 'I' for Inactive)
REMARK    1  A    between atoms: C_7  and  C_6 
REMARK    2  A    between atoms: C_12  and  C_6 
REMARK    3  A    between atoms: C_14  and  C_7 
REMARK    4  A    between atoms: C_15  and  C_8 
REMARK    5  A    between atoms: N_19  and  C_8 
REMARK    6  A    between atoms: C_11  and  C_9 
REMARK    7  A    between atoms: S_29  and  C_9 
REMARK    8  A    between atoms: C_13  and  C_10 
REMARK    9  A    between atoms: S_29  and  C_10 
REMARK   10  A    between atoms: C_17  and  C_12 
REMARK   11  A    between atoms: C_12  and  N_18 
REMARK   12  A    between atoms: C_16  and  C_13 
REMARK   13  A    between atoms: C_13  and  N_21 
REMARK   14  A    between atoms: C_14  and  O_23 
REMARK   15  A    between atoms: O_25  and  C_15 
REMARK   16  A    between atoms: O_26  and  C_16 
REMARK   17  A    between atoms: O_28  and  C_17 
ROOT
HETATM    1  C   UNK N   1      22.218  17.886   5.641  0.00  0.00     0.167 C 
ENDROOT
BRANCH   1   2
HETATM    2  C   UNK N   1      21.337  16.928   6.432  0.00  0.00     0.107 C 
BRANCH   2   3
HETATM    3  S   UNK N   1      22.182  15.378   6.871  0.00  0.00    -0.162 SA
BRANCH   3   4
HETATM    4  C   UNK N   1      21.118  15.168   8.338  0.00  0.00     0.112 C 
BRANCH   4   5
HETATM    5  C   UNK N   1      21.554  14.032   9.210  0.00  0.00    -0.049 A 
HETATM    6  C   UNK N   1      22.870  13.553   9.154  0.00  0.00     0.008 A 
HETATM    7  C   UNK N   1      23.282  12.519   9.999  0.00  0.00     0.001 A 
HETATM    8  C   UNK N   1      22.383  11.970  10.915  0.00  0.00     0.000 A 
HETATM    9  C   UNK N   1      21.071  12.450  10.982  0.00  0.00     0.001 A 
HETATM   10  C   UNK N   1      20.658  13.481  10.132  0.00  0.00     0.008 A 
ENDBRANCH   4   5
ENDBRANCH   3   4
ENDBRANCH   2   3
ENDBRANCH   1   2
BRANCH   1  11
HETATM   11  C   UNK N   1      21.536  18.212   4.321  0.00  0.00     0.136 C 
HETATM   12  N   UNK N   1      21.068  19.397   4.122  0.00  0.00    -0.363 N 
ATOM     13  HN  UNK N   1      21.176  20.096   4.857  1.00  0.00     0.161 HD
BRANCH  12  14
HETATM   14  C   UNK N   1      20.397  19.772   2.901  0.00  0.00     0.231 C 
BRANCH  14  15
HETATM   15  C   UNK N   1      21.255  20.691   2.083  0.00  0.00     0.158 C 
HETATM   16  O   UNK N   1      21.339  20.557   0.872  0.00  0.00    -0.649 OA
BRANCH  15  17
HETATM   17  O   UNK N   1      21.927  21.685   2.691  0.00  0.00    -0.775 OA
HETATM   18  H   UNK N   1      21.594  22.084   3.471  0.00  0.00     0.167 HD
ENDBRANCH  15  17
ENDBRANCH  14  15
ENDBRANCH  12  14
BRANCH  11  19
HETATM   19  O   UNK N   1      21.406  17.265   3.366  0.00  0.00    -0.348 OA
HETATM   20  H   UNK N   1      21.998  16.614   3.044  0.00  0.00     0.219 HD
ENDBRANCH  11  19
ENDBRANCH   1  11
BRANCH   1  21
HETATM   21  N   UNK N   1      23.501  17.237   5.431  0.00  0.00    -0.362 N 
HETATM   22  C   UNK N   1      24.611  17.875   5.255  0.00  0.00     0.111 C 
ATOM     23  HN  UNK N   1      23.528  16.217   5.422  1.00  0.00     0.162 HD
BRANCH  22  24
HETATM   24  C   UNK N   1      25.867  17.110   4.985  0.00  0.00     0.086 C 
BRANCH  24  25
HETATM   25  C   UNK N   1      26.791  17.950   4.111  0.00  0.00     0.043 C 
BRANCH  25  26
HETATM   26  C   UNK N   1      28.075  18.382   4.828  0.00  0.00     0.173 C 
BRANCH  26  27
HETATM   27  C   UNK N   1      27.923  18.568   6.321  0.00  0.00     0.163 C 
HETATM   28  O   UNK N   1      28.452  17.774   7.083  0.00  0.00    -0.648 OA
BRANCH  27  29
HETATM   29  O   UNK N   1      27.211  19.593   6.829  0.00  0.00    -0.775 OA
HETATM   30  H   UNK N   1      27.431  19.945   7.668  0.00  0.00     0.167 HD
ENDBRANCH  27  29
ENDBRANCH  26  27
BRANCH  26  31
HETATM   31  N   UNK N   1      28.580  19.607   4.230  0.00  0.00    -0.418 N 
HETATM   32  H   UNK N   1      28.729  20.595   4.435  0.00  0.00     0.150 HD
HETATM   33  H   UNK N   1      28.891  19.411   3.278  0.00  0.00     0.150 HD
ENDBRANCH  26  31
ENDBRANCH  25  26
ENDBRANCH  24  25
ENDBRANCH  22  24
BRANCH  22  34
HETATM   34  O   UNK N   1      24.652  19.223   5.305  0.00  0.00    -0.350 OA
HETATM   35  H   UNK N   1      24.515  19.923   5.913  0.00  0.00     0.219 HD
ENDBRANCH  22  34
ENDBRANCH   1  21
TORSDOF 17
ENDMDL
MODEL 9
REMARK VINA RESULT:      -5.6      3.691      8.375
REMARK  17 active torsions:
REMARK  status: ('A' for Active; 'I' for Inactive)
REMARK    1  A    between atoms: C_7  and  C_6 
REMARK    2  A    between atoms: C_12  and  C_6 
REMARK    3  A    between atoms: C_14  and  C_7 
REMARK    4  A    between atoms: C_15  and  C_8 
REMARK    5  A    between atoms: N_19  and  C_8 
REMARK    6  A    between atoms: C_11  and  C_9 
REMARK    7  A    between atoms: S_29  and  C_9 
REMARK    8  A    between atoms: C_13  and  C_10 
REMARK    9  A    between atoms: S_29  and  C_10 
REMARK   10  A    between atoms: C_17  and  C_12 
REMARK   11  A    between atoms: C_12  and  N_18 
REMARK   12  A    between atoms: C_16  and  C_13 
REMARK   13  A    between atoms: C_13  and  N_21 
REMARK   14  A    between atoms: C_14  and  O_23 
REMARK   15  A    between atoms: O_25  and  C_15 
REMARK   16  A    between atoms: O_26  and  C_16 
REMARK   17  A    between atoms: O_28  and  C_17 
ROOT
HETATM    1  C   UNK N   1      35.581  14.098  10.632  0.00  0.00     0.167 C 
ENDROOT
BRANCH   1   2
HETATM    2  C   UNK N   1      36.757  14.222   9.673  0.00  0.00     0.107 C 
BRANCH   2   3
HETATM    3  S   UNK N   1      37.540  12.625   9.292  0.00  0.00    -0.162 SA
BRANCH   3   4
HETATM    4  C   UNK N   1      35.992  11.734   9.658  0.00  0.00     0.112 C 
BRANCH   4   5
HETATM    5  C   UNK N   1      36.140  10.751  10.776  0.00  0.00    -0.049 A 
HETATM    6  C   UNK N   1      37.317  10.706  11.537  0.00  0.00     0.008 A 
HETATM    7  C   UNK N   1      37.435   9.814  12.605  0.00  0.00     0.001 A 
HETATM    8  C   UNK N   1      36.370   8.970  12.927  0.00  0.00     0.000 A 
HETATM    9  C   UNK N   1      35.189   9.016  12.178  0.00  0.00     0.001 A 
HETATM   10  C   UNK N   1      35.074   9.906  11.105  0.00  0.00     0.008 A 
ENDBRANCH   4   5
ENDBRANCH   3   4
ENDBRANCH   2   3
ENDBRANCH   1   2
BRANCH   1  11
HETATM   11  C   UNK N   1      34.589  15.215  10.347  0.00  0.00     0.136 C 
HETATM   12  N   UNK N   1      34.890  16.131   9.492  0.00  0.00    -0.363 N 
ATOM     13  HN  UNK N   1      35.790  16.079   9.015  1.00  0.00     0.161 HD
BRANCH  12  14
HETATM   14  C   UNK N   1      34.005  17.228   9.184  0.00  0.00     0.231 C 
BRANCH  14  15
HETATM   15  C   UNK N   1      34.642  18.168   8.202  0.00  0.00     0.158 C 
HETATM   16  O   UNK N   1      35.295  19.125   8.585  0.00  0.00    -0.649 OA
BRANCH  15  17
HETATM   17  O   UNK N   1      34.502  17.942   6.884  0.00  0.00    -0.775 OA
HETATM   18  H   UNK N   1      35.144  18.246   6.273  0.00  0.00     0.167 HD
ENDBRANCH  15  17
ENDBRANCH  14  15
ENDBRANCH  12  14
BRANCH  11  19
HETATM   19  O   UNK N   1      33.404  15.260  10.995  0.00  0.00    -0.348 OA
HETATM   20  H   UNK N   1      32.868  15.976  11.273  0.00  0.00     0.219 HD
ENDBRANCH  11  19
ENDBRANCH   1  11
BRANCH   1  21
HETATM   21  N   UNK N   1      36.101  14.180  11.986  0.00  0.00    -0.362 N 
HETATM   22  C   UNK N   1      35.526  13.648  13.013  0.00  0.00     0.111 C 
ATOM     23  HN  UNK N   1      36.973  14.688  12.135  1.00  0.00     0.162 HD
BRANCH  22  24
HETATM   24  C   UNK N   1      36.114  13.844  14.373  0.00  0.00     0.086 C 
BRANCH  24  25
HETATM   25  C   UNK N   1      36.409  12.484  14.996  0.00  0.00     0.043 C 
BRANCH  25  26
HETATM   26  C   UNK N   1      35.353  12.043  16.014  0.00  0.00     0.173 C 
BRANCH  26  27
HETATM   27  C   UNK N   1      34.582  10.805  15.616  0.00  0.00     0.163 C 
HETATM   28  O   UNK N   1      34.905   9.721  16.075  0.00  0.00    -0.648 OA
BRANCH  27  29
HETATM   29  O   UNK N   1      33.545  10.873  14.758  0.00  0.00    -0.775 OA
HETATM   30  H   UNK N   1      32.677  11.010  15.083  0.00  0.00     0.167 HD
ENDBRANCH  27  29
ENDBRANCH  26  27
BRANCH  26  31
HETATM   31  N   UNK N   1      34.429  13.137  16.265  0.00  0.00    -0.418 N 
HETATM   32  H   UNK N   1      33.432  13.354  16.283  0.00  0.00     0.150 HD
HETATM   33  H   UNK N   1      34.959  13.974  16.506  0.00  0.00     0.150 HD
ENDBRANCH  26  31
ENDBRANCH  25  26
ENDBRANCH  24  25
ENDBRANCH  22  24
BRANCH  22  34
HETATM   34  O   UNK N   1      34.397  12.921  12.876  0.00  0.00    -0.350 OA
HETATM   35  H   UNK N   1      33.511  12.906  13.180  0.00  0.00     0.219 HD
ENDBRANCH  22  34
ENDBRANCH   1  21
TORSDOF 17
ENDMDL
