MODEL 1
REMARK VINA RESULT:      -7.8      0.000      0.000
REMARK  16 active torsions:
REMARK  status: ('A' for Active; 'I' for Inactive)
REMARK    1  A    between atoms: C_1  and  N_2 
REMARK    2  A    between atoms: C_7  and  C_12 
REMARK    3  A    between atoms: C_8  and  O_13 
REMARK    4  A    between atoms: C_12  and  O_16 
REMARK    5  A    between atoms: O_16  and  P_18 
REMARK    6  A    between atoms: P_18  and  O_19 
REMARK    7  A    between atoms: P_18  and  O_20 
REMARK    8  A    between atoms: O_19  and  P_22 
REMARK    9  A    between atoms: P_22  and  O_23 
REMARK   10  A    between atoms: P_22  and  O_24 
REMARK   11  A    between atoms: C_26  and  O_23 
REMARK   12  A    between atoms: C_28  and  O_31 
REMARK   13  A    between atoms: C_29  and  C_33 
REMARK   14  A    between atoms: C_30  and  O_34 
REMARK   15  A    between atoms: C_32  and  O_35 
REMARK   16  A    between atoms: C_33  and  O_36 
ROOT
HETATM    1  P   UNK N   1      20.335  15.878   7.830  0.00  0.00     0.401 P 
HETATM    2  O   UNK N   1      20.580  16.777   9.076  0.00  0.00    -0.631 OA
ENDROOT
BRANCH   1   3
HETATM    3  O   UNK N   1      20.302  14.207   8.345  0.00  0.00    -0.294 OA
BRANCH   3   4
HETATM    4  C   UNK N   1      21.048  14.116   9.526  0.00  0.00     0.215 C 
BRANCH   4   5
HETATM    5  C   UNK N   1      21.409  12.660   9.831  0.00  0.00     0.177 C 
HETATM    6  O   UNK N   1      21.837  12.002   8.659  0.00  0.00    -0.356 OA
HETATM    7  C   UNK N   1      23.240  12.194   8.577  0.00  0.00     0.235 C 
HETATM    8  C   UNK N   1      23.725  12.782   9.899  0.00  0.00     0.088 C 
HETATM    9  C   UNK N   1      22.554  12.594  10.811  0.00  0.00     0.153 C 
BRANCH   7  10
HETATM   10  N   UNK N   1      23.642  13.057   7.440  0.00  0.00    -0.282 N 
HETATM   11  C   UNK N   1      22.990  13.066   6.212  0.00  0.00     0.331 A 
HETATM   12  N   UNK N   1      23.409  13.913   5.220  0.00  0.00    -0.275 N 
HETATM   13  O   UNK N   1      22.056  12.322   5.990  0.00  0.00    -0.246 OA
HETATM   14  C   UNK N   1      24.468  14.752   5.406  0.00  0.00     0.256 A 
HETATM   15  H   UNK N   1      22.936  13.917   4.356  0.00  0.00     0.173 HD
HETATM   16  O   UNK N   1      24.812  15.501   4.508  0.00  0.00    -0.267 OA
HETATM   17  C   UNK N   1      25.151  14.738   6.622  0.00  0.00     0.022 A 
HETATM   18  C   UNK N   1      24.718  13.875   7.626  0.00  0.00     0.110 A 
HETATM   19  C   UNK N   1      26.321  15.630   6.869  0.00  0.00     0.056 C 
ENDBRANCH   7  10
BRANCH   9  20
HETATM   20  O   UNK N   1      22.612  11.315  11.366  0.00  0.00    -0.393 OA
HETATM   21  H   UNK N   1      23.274  10.814  11.867  0.00  0.00     0.210 HD
ENDBRANCH   9  20
ENDBRANCH   4   5
ENDBRANCH   3   4
ENDBRANCH   1   3
BRANCH   1  22
HETATM   22  O   UNK N   1      21.662  16.126   6.724  0.00  0.00    -0.195 OA
BRANCH  22  23
HETATM   23  P   UNK N   1      21.307  17.479   5.684  0.00  0.00     0.404 P 
HETATM   24  O   UNK N   1      21.138  18.855   6.384  0.00  0.00    -0.631 OA
BRANCH  23  25
HETATM   25  O   UNK N   1      21.432  17.522   3.948  0.00  0.00    -0.263 OA
BRANCH  25  26
HETATM   26  C   UNK N   1      20.143  17.313   3.459  0.00  0.00     0.303 C 
HETATM   27  O   UNK N   1      19.412  18.527   3.412  0.00  0.00    -0.348 OA
HETATM   28  C   UNK N   1      19.968  19.463   2.485  0.00  0.00     0.179 C 
HETATM   29  C   UNK N   1      20.656  18.853   1.253  0.00  0.00     0.180 C 
HETATM   30  C   UNK N   1      19.972  17.539   0.933  0.00  0.00     0.183 C 
HETATM   31  C   UNK N   1      20.183  16.582   2.106  0.00  0.00     0.205 C 
BRANCH  28  32
HETATM   32  C   UNK N   1      20.867  20.483   3.168  0.00  0.00     0.198 C 
BRANCH  32  33
HETATM   33  O   UNK N   1      21.008  21.610   2.360  0.00  0.00    -0.398 OA
HETATM   34  H   UNK N   1      20.366  22.114   1.834  0.00  0.00     0.209 HD
ENDBRANCH  32  33
ENDBRANCH  28  32
BRANCH  29  35
HETATM   35  O   UNK N   1      20.559  19.738   0.178  0.00  0.00    -0.390 OA
HETATM   36  H   UNK N   1      19.925  19.573  -0.538  0.00  0.00     0.210 HD
ENDBRANCH  29  35
BRANCH  30  37
HETATM   37  O   UNK N   1      20.488  16.975  -0.233  0.00  0.00    -0.390 OA
HETATM   38  H   UNK N   1      21.362  17.131  -0.625  0.00  0.00     0.210 HD
ENDBRANCH  30  37
BRANCH  31  39
HETATM   39  O   UNK N   1      19.217  15.577   2.066  0.00  0.00    -0.388 OA
HETATM   40  H   UNK N   1      19.130  14.624   2.219  0.00  0.00     0.210 HD
ENDBRANCH  31  39
ENDBRANCH  25  26
ENDBRANCH  23  25
BRANCH  23  41
HETATM   41  O   UNK N   1      23.018  17.727   5.673  0.00  0.00    -0.307 OA
HETATM   42  H   UNK N   1      23.988  17.684   5.660  0.00  0.00     0.222 HD
ENDBRANCH  23  41
ENDBRANCH  22  23
ENDBRANCH   1  22
BRANCH   1  43
HETATM   43  O   UNK N   1      18.782  16.339   7.205  0.00  0.00    -0.307 OA
HETATM   44  H   UNK N   1      17.962  15.845   7.053  0.00  0.00     0.222 HD
ENDBRANCH   1  43
TORSDOF 16
ENDMDL
MODEL 2
REMARK VINA RESULT:      -7.6      1.368      2.749
REMARK  16 active torsions:
REMARK  status: ('A' for Active; 'I' for Inactive)
REMARK    1  A    between atoms: C_1  and  N_2 
REMARK    2  A    between atoms: C_7  and  C_12 
REMARK    3  A    between atoms: C_8  and  O_13 
REMARK    4  A    between atoms: C_12  and  O_16 
REMARK    5  A    between atoms: O_16  and  P_18 
REMARK    6  A    between atoms: P_18  and  O_19 
REMARK    7  A    between atoms: P_18  and  O_20 
REMARK    8  A    between atoms: O_19  and  P_22 
REMARK    9  A    between atoms: P_22  and  O_23 
REMARK   10  A    between atoms: P_22  and  O_24 
REMARK   11  A    between atoms: C_26  and  O_23 
REMARK   12  A    between atoms: C_28  and  O_31 
REMARK   13  A    between atoms: C_29  and  C_33 
REMARK   14  A    between atoms: C_30  and  O_34 
REMARK   15  A    between atoms: C_32  and  O_35 
REMARK   16  A    between atoms: C_33  and  O_36 
ROOT
HETATM    1  P   UNK N   1      19.941  16.512   8.298  0.00  0.00     0.401 P 
HETATM    2  O   UNK N   1      21.277  16.473   7.502  0.00  0.00    -0.631 OA
ENDROOT
BRANCH   1   3
HETATM    3  O   UNK N   1      19.935  15.188   9.442  0.00  0.00    -0.294 OA
BRANCH   3   4
HETATM    4  C   UNK N   1      21.223  14.640   9.457  0.00  0.00     0.215 C 
BRANCH   4   5
HETATM    5  C   UNK N   1      21.179  13.160   9.848  0.00  0.00     0.177 C 
HETATM    6  O   UNK N   1      21.047  12.351   8.700  0.00  0.00    -0.356 OA
HETATM    7  C   UNK N   1      22.363  12.059   8.256  0.00  0.00     0.235 C 
HETATM    8  C   UNK N   1      23.345  12.503   9.337  0.00  0.00     0.088 C 
HETATM    9  C   UNK N   1      22.466  12.754  10.522  0.00  0.00     0.153 C 
BRANCH   7  10
HETATM   10  N   UNK N   1      22.690  12.692   6.957  0.00  0.00    -0.282 N 
HETATM   11  C   UNK N   1      22.205  12.240   5.735  0.00  0.00     0.331 A 
HETATM   12  N   UNK N   1      22.536  12.897   4.580  0.00  0.00    -0.275 N 
HETATM   13  O   UNK N   1      21.497  11.255   5.665  0.00  0.00    -0.246 OA
HETATM   14  C   UNK N   1      23.347  13.994   4.598  0.00  0.00     0.256 A 
HETATM   15  H   UNK N   1      22.181  12.573   3.721  0.00  0.00     0.173 HD
HETATM   16  O   UNK N   1      23.617  14.564   3.554  0.00  0.00    -0.267 OA
HETATM   17  C   UNK N   1      23.866  14.447   5.810  0.00  0.00     0.022 A 
HETATM   18  C   UNK N   1      23.523  13.774   6.980  0.00  0.00     0.110 A 
HETATM   19  C   UNK N   1      24.764  15.636   5.879  0.00  0.00     0.056 C 
ENDBRANCH   7  10
BRANCH   9  20
HETATM   20  O   UNK N   1      22.269  11.552  11.204  0.00  0.00    -0.393 OA
HETATM   21  H   UNK N   1      21.495  11.032  11.469  0.00  0.00     0.210 HD
ENDBRANCH   9  20
ENDBRANCH   4   5
ENDBRANCH   3   4
ENDBRANCH   1   3
BRANCH   1  22
HETATM   22  O   UNK N   1      18.635  16.310   7.160  0.00  0.00    -0.195 OA
BRANCH  22  23
HETATM   23  P   UNK N   1      19.285  15.903   5.594  0.00  0.00     0.404 P 
HETATM   24  O   UNK N   1      19.747  14.431   5.407  0.00  0.00    -0.631 OA
BRANCH  23  25
HETATM   25  O   UNK N   1      19.184  16.855   4.141  0.00  0.00    -0.263 OA
BRANCH  25  26
HETATM   26  C   UNK N   1      20.420  17.484   4.000  0.00  0.00     0.303 C 
HETATM   27  O   UNK N   1      21.317  16.682   3.249  0.00  0.00    -0.348 OA
HETATM   28  C   UNK N   1      20.886  16.498   1.899  0.00  0.00     0.179 C 
HETATM   29  C   UNK N   1      20.096  17.667   1.286  0.00  0.00     0.180 C 
HETATM   30  C   UNK N   1      20.577  18.951   1.930  0.00  0.00     0.183 C 
HETATM   31  C   UNK N   1      20.252  18.900   3.423  0.00  0.00     0.205 C 
BRANCH  28  32
HETATM   32  C   UNK N   1      20.155  15.179   1.704  0.00  0.00     0.198 C 
BRANCH  32  33
HETATM   33  O   UNK N   1      20.578  14.254   2.659  0.00  0.00    -0.398 OA
HETATM   34  H   UNK N   1      20.336  13.328   2.813  0.00  0.00     0.209 HD
ENDBRANCH  32  33
ENDBRANCH  28  32
BRANCH  29  35
HETATM   35  O   UNK N   1      20.299  17.695  -0.095  0.00  0.00    -0.390 OA
HETATM   36  H   UNK N   1      20.764  16.967  -0.536  0.00  0.00     0.210 HD
ENDBRANCH  29  35
BRANCH  30  37
HETATM   37  O   UNK N   1      19.965  20.063   1.352  0.00  0.00    -0.390 OA
HETATM   38  H   UNK N   1      20.129  20.432   0.470  0.00  0.00     0.210 HD
ENDBRANCH  30  37
BRANCH  31  39
HETATM   39  O   UNK N   1      21.062  19.805   4.106  0.00  0.00    -0.388 OA
HETATM   40  H   UNK N   1      21.526  20.645   3.962  0.00  0.00     0.210 HD
ENDBRANCH  31  39
ENDBRANCH  25  26
ENDBRANCH  23  25
BRANCH  23  41
HETATM   41  O   UNK N   1      17.670  15.412   5.217  0.00  0.00    -0.307 OA
HETATM   42  H   UNK N   1      16.772  15.268   4.878  0.00  0.00     0.222 HD
ENDBRANCH  23  41
ENDBRANCH  22  23
ENDBRANCH   1  22
BRANCH   1  43
HETATM   43  O   UNK N   1      19.932  18.029   9.143  0.00  0.00    -0.307 OA
HETATM   44  H   UNK N   1      19.982  18.949   8.842  0.00  0.00     0.222 HD
ENDBRANCH   1  43
TORSDOF 16
ENDMDL
MODEL 3
REMARK VINA RESULT:      -7.3      4.859      7.222
REMARK  16 active torsions:
REMARK  status: ('A' for Active; 'I' for Inactive)
REMARK    1  A    between atoms: C_1  and  N_2 
REMARK    2  A    between atoms: C_7  and  C_12 
REMARK    3  A    between atoms: C_8  and  O_13 
REMARK    4  A    between atoms: C_12  and  O_16 
REMARK    5  A    between atoms: O_16  and  P_18 
REMARK    6  A    between atoms: P_18  and  O_19 
REMARK    7  A    between atoms: P_18  and  O_20 
REMARK    8  A    between atoms: O_19  and  P_22 
REMARK    9  A    between atoms: P_22  and  O_23 
REMARK   10  A    between atoms: P_22  and  O_24 
REMARK   11  A    between atoms: C_26  and  O_23 
REMARK   12  A    between atoms: C_28  and  O_31 
REMARK   13  A    between atoms: C_29  and  C_33 
REMARK   14  A    between atoms: C_30  and  O_34 
REMARK   15  A    between atoms: C_32  and  O_35 
REMARK   16  A    between atoms: C_33  and  O_36 
ROOT
HETATM    1  P   UNK N   1      26.855  19.580   5.327  0.00  0.00     0.401 P 
HETATM    2  O   UNK N   1      27.608  20.863   5.779  0.00  0.00    -0.631 OA
ENDROOT
BRANCH   1   3
HETATM    3  O   UNK N   1      27.674  18.913   3.933  0.00  0.00    -0.294 OA
BRANCH   3   4
HETATM    4  C   UNK N   1      28.668  18.047   4.403  0.00  0.00     0.215 C 
BRANCH   4   5
HETATM    5  C   UNK N   1      28.607  16.702   3.674  0.00  0.00     0.177 C 
HETATM    6  O   UNK N   1      29.900  16.295   3.281  0.00  0.00    -0.356 OA
HETATM    7  C   UNK N   1      30.429  15.538   4.358  0.00  0.00     0.235 C 
HETATM    8  C   UNK N   1      29.303  15.257   5.349  0.00  0.00     0.088 C 
HETATM    9  C   UNK N   1      28.070  15.630   4.588  0.00  0.00     0.153 C 
BRANCH   7  10
HETATM   10  N   UNK N   1      31.569  16.206   5.032  0.00  0.00    -0.282 N 
HETATM   11  C   UNK N   1      32.817  16.377   4.446  0.00  0.00     0.331 A 
HETATM   12  N   UNK N   1      33.811  17.029   5.128  0.00  0.00    -0.275 N 
HETATM   13  O   UNK N   1      33.056  15.946   3.336  0.00  0.00    -0.246 OA
HETATM   14  C   UNK N   1      33.605  17.512   6.387  0.00  0.00     0.256 A 
HETATM   15  H   UNK N   1      34.690  17.152   4.701  0.00  0.00     0.173 HD
HETATM   16  O   UNK N   1      34.506  18.095   6.965  0.00  0.00    -0.267 OA
HETATM   17  C   UNK N   1      32.368  17.326   7.002  0.00  0.00     0.022 A 
HETATM   18  C   UNK N   1      31.363  16.664   6.301  0.00  0.00     0.110 A 
HETATM   19  C   UNK N   1      32.099  17.827   8.381  0.00  0.00     0.056 C 
ENDBRANCH   7  10
BRANCH   9  20
HETATM   20  O   UNK N   1      27.661  14.535   3.824  0.00  0.00    -0.393 OA
HETATM   21  H   UNK N   1      26.829  14.261   3.408  0.00  0.00     0.210 HD
ENDBRANCH   9  20
ENDBRANCH   4   5
ENDBRANCH   3   4
ENDBRANCH   1   3
BRANCH   1  22
HETATM   22  O   UNK N   1      25.230  20.040   4.890  0.00  0.00    -0.195 OA
BRANCH  22  23
HETATM   23  P   UNK N   1      24.386  18.657   4.249  0.00  0.00     0.404 P 
HETATM   24  O   UNK N   1      24.948  17.265   4.651  0.00  0.00    -0.631 OA
BRANCH  23  25
HETATM   25  O   UNK N   1      22.824  18.650   3.481  0.00  0.00    -0.263 OA
BRANCH  25  26
HETATM   26  C   UNK N   1      21.884  18.576   4.508  0.00  0.00     0.303 C 
HETATM   27  O   UNK N   1      21.026  19.705   4.498  0.00  0.00    -0.348 OA
HETATM   28  C   UNK N   1      20.220  19.766   3.319  0.00  0.00     0.179 C 
HETATM   29  C   UNK N   1      19.826  18.411   2.710  0.00  0.00     0.180 C 
HETATM   30  C   UNK N   1      19.737  17.396   3.832  0.00  0.00     0.183 C 
HETATM   31  C   UNK N   1      21.122  17.240   4.459  0.00  0.00     0.205 C 
BRANCH  28  32
HETATM   32  C   UNK N   1      20.811  20.691   2.267  0.00  0.00     0.198 C 
BRANCH  32  33
HETATM   33  O   UNK N   1      21.835  21.456   2.825  0.00  0.00    -0.398 OA
HETATM   34  H   UNK N   1      22.718  21.217   3.148  0.00  0.00     0.209 HD
ENDBRANCH  32  33
ENDBRANCH  28  32
BRANCH  29  35
HETATM   35  O   UNK N   1      18.601  18.533   2.051  0.00  0.00    -0.390 OA
HETATM   36  H   UNK N   1      18.167  19.397   1.981  0.00  0.00     0.210 HD
ENDBRANCH  29  35
BRANCH  30  37
HETATM   37  O   UNK N   1      19.293  16.162   3.359  0.00  0.00    -0.390 OA
HETATM   38  H   UNK N   1      19.690  15.624   2.656  0.00  0.00     0.210 HD
ENDBRANCH  30  37
BRANCH  31  39
HETATM   39  O   UNK N   1      20.996  16.703   5.738  0.00  0.00    -0.388 OA
HETATM   40  H   UNK N   1      21.185  15.884   6.223  0.00  0.00     0.210 HD
ENDBRANCH  31  39
ENDBRANCH  25  26
ENDBRANCH  23  25
BRANCH  23  41
HETATM   41  O   UNK N   1      23.500  18.697   5.733  0.00  0.00    -0.307 OA
HETATM   42  H   UNK N   1      22.881  18.817   6.471  0.00  0.00     0.222 HD
ENDBRANCH  23  41
ENDBRANCH  22  23
ENDBRANCH   1  22
BRANCH   1  43
HETATM   43  O   UNK N   1      26.955  18.472   6.661  0.00  0.00    -0.307 OA
HETATM   44  H   UNK N   1      27.645  17.858   6.956  0.00  0.00     0.222 HD
ENDBRANCH   1  43
TORSDOF 16
ENDMDL
MODEL 4
REMARK VINA RESULT:      -7.3      4.846      6.971
REMARK  16 active torsions:
REMARK  status: ('A' for Active; 'I' for Inactive)
REMARK    1  A    between atoms: C_1  and  N_2 
REMARK    2  A    between atoms: C_7  and  C_12 
REMARK    3  A    between atoms: C_8  and  O_13 
REMARK    4  A    between atoms: C_12  and  O_16 
REMARK    5  A    between atoms: O_16  and  P_18 
REMARK    6  A    between atoms: P_18  and  O_19 
REMARK    7  A    between atoms: P_18  and  O_20 
REMARK    8  A    between atoms: O_19  and  P_22 
REMARK    9  A    between atoms: P_22  and  O_23 
REMARK   10  A    between atoms: P_22  and  O_24 
REMARK   11  A    between atoms: C_26  and  O_23 
REMARK   12  A    between atoms: C_28  and  O_31 
REMARK   13  A    between atoms: C_29  and  C_33 
REMARK   14  A    between atoms: C_30  and  O_34 
REMARK   15  A    between atoms: C_32  and  O_35 
REMARK   16  A    between atoms: C_33  and  O_36 
ROOT
HETATM    1  P   UNK N   1      26.742  19.449   4.416  0.00  0.00     0.401 P 
HETATM    2  O   UNK N   1      27.030  18.078   3.740  0.00  0.00    -0.631 OA
ENDROOT
BRANCH   1   3
HETATM    3  O   UNK N   1      28.065  19.829   5.495  0.00  0.00    -0.294 OA
BRANCH   3   4
HETATM    4  C   UNK N   1      28.719  18.629   5.797  0.00  0.00     0.215 C 
BRANCH   4   5
HETATM    5  C   UNK N   1      28.095  17.963   7.027  0.00  0.00     0.177 C 
HETATM    6  O   UNK N   1      28.769  16.763   7.334  0.00  0.00    -0.356 OA
HETATM    7  C   UNK N   1      29.824  17.106   8.218  0.00  0.00     0.235 C 
HETATM    8  C   UNK N   1      29.622  18.550   8.671  0.00  0.00     0.088 C 
HETATM    9  C   UNK N   1      28.225  18.858   8.234  0.00  0.00     0.153 C 
BRANCH   7  10
HETATM   10  N   UNK N   1      31.167  16.927   7.617  0.00  0.00    -0.282 N 
HETATM   11  C   UNK N   1      31.439  16.028   6.593  0.00  0.00     0.331 A 
HETATM   12  N   UNK N   1      32.703  15.941   6.073  0.00  0.00    -0.275 N 
HETATM   13  O   UNK N   1      30.574  15.298   6.150  0.00  0.00    -0.246 OA
HETATM   14  C   UNK N   1      33.718  16.719   6.549  0.00  0.00     0.256 A 
HETATM   15  H   UNK N   1      32.884  15.306   5.342  0.00  0.00     0.173 HD
HETATM   16  O   UNK N   1      34.831  16.626   6.062  0.00  0.00    -0.267 OA
HETATM   17  C   UNK N   1      33.472  17.608   7.595  0.00  0.00     0.022 A 
HETATM   18  C   UNK N   1      32.182  17.691   8.115  0.00  0.00     0.110 A 
HETATM   19  C   UNK N   1      34.551  18.472   8.155  0.00  0.00     0.056 C 
ENDBRANCH   7  10
BRANCH   9  20
HETATM   20  O   UNK N   1      27.336  18.431   9.222  0.00  0.00    -0.393 OA
HETATM   21  H   UNK N   1      27.392  17.831   9.982  0.00  0.00     0.210 HD
ENDBRANCH   9  20
ENDBRANCH   4   5
ENDBRANCH   3   4
ENDBRANCH   1   3
BRANCH   1  22
HETATM   22  O   UNK N   1      25.264  19.294   5.329  0.00  0.00    -0.195 OA
BRANCH  22  23
HETATM   23  P   UNK N   1      24.215  18.141   4.547  0.00  0.00     0.404 P 
HETATM   24  O   UNK N   1      24.453  16.648   4.904  0.00  0.00    -0.631 OA
BRANCH  23  25
HETATM   25  O   UNK N   1      22.751  18.488   3.673  0.00  0.00    -0.263 OA
BRANCH  25  26
HETATM   26  C   UNK N   1      21.727  18.513   4.620  0.00  0.00     0.303 C 
HETATM   27  O   UNK N   1      20.901  19.653   4.449  0.00  0.00    -0.348 OA
HETATM   28  C   UNK N   1      20.197  19.635   3.205  0.00  0.00     0.179 C 
HETATM   29  C   UNK N   1      19.822  18.243   2.671  0.00  0.00     0.180 C 
HETATM   30  C   UNK N   1      19.615  17.323   3.857  0.00  0.00     0.183 C 
HETATM   31  C   UNK N   1      20.939  17.192   4.610  0.00  0.00     0.205 C 
BRANCH  28  32
HETATM   32  C   UNK N   1      20.897  20.463   2.138  0.00  0.00     0.198 C 
BRANCH  32  33
HETATM   33  O   UNK N   1      21.422  21.624   2.703  0.00  0.00    -0.398 OA
HETATM   34  H   UNK N   1      21.221  22.562   2.559  0.00  0.00     0.209 HD
ENDBRANCH  32  33
ENDBRANCH  28  32
BRANCH  29  35
HETATM   35  O   UNK N   1      18.659  18.335   1.904  0.00  0.00    -0.390 OA
HETATM   36  H   UNK N   1      18.036  17.592   1.869  0.00  0.00     0.210 HD
ENDBRANCH  29  35
BRANCH  30  37
HETATM   37  O   UNK N   1      19.181  16.063   3.446  0.00  0.00    -0.390 OA
HETATM   38  H   UNK N   1      19.543  15.523   2.725  0.00  0.00     0.210 HD
ENDBRANCH  30  37
BRANCH  31  39
HETATM   39  O   UNK N   1      20.694  16.760   5.912  0.00  0.00    -0.388 OA
HETATM   40  H   UNK N   1      20.838  17.041   6.828  0.00  0.00     0.210 HD
ENDBRANCH  31  39
ENDBRANCH  25  26
ENDBRANCH  23  25
BRANCH  23  41
HETATM   41  O   UNK N   1      23.238  18.295   5.966  0.00  0.00    -0.307 OA
HETATM   42  H   UNK N   1      22.584  18.487   6.657  0.00  0.00     0.222 HD
ENDBRANCH  23  41
ENDBRANCH  22  23
ENDBRANCH   1  22
BRANCH   1  43
HETATM   43  O   UNK N   1      26.673  20.612   3.128  0.00  0.00    -0.307 OA
HETATM   44  H   UNK N   1      27.356  21.024   2.577  0.00  0.00     0.222 HD
ENDBRANCH   1  43
TORSDOF 16
ENDMDL
MODEL 5
REMARK VINA RESULT:      -7.3      2.203      8.008
REMARK  16 active torsions:
REMARK  status: ('A' for Active; 'I' for Inactive)
REMARK    1  A    between atoms: C_1  and  N_2 
REMARK    2  A    between atoms: C_7  and  C_12 
REMARK    3  A    between atoms: C_8  and  O_13 
REMARK    4  A    between atoms: C_12  and  O_16 
REMARK    5  A    between atoms: O_16  and  P_18 
REMARK    6  A    between atoms: P_18  and  O_19 
REMARK    7  A    between atoms: P_18  and  O_20 
REMARK    8  A    between atoms: O_19  and  P_22 
REMARK    9  A    between atoms: P_22  and  O_23 
REMARK   10  A    between atoms: P_22  and  O_24 
REMARK   11  A    between atoms: C_26  and  O_23 
REMARK   12  A    between atoms: C_28  and  O_31 
REMARK   13  A    between atoms: C_29  and  C_33 
REMARK   14  A    between atoms: C_30  and  O_34 
REMARK   15  A    between atoms: C_32  and  O_35 
REMARK   16  A    between atoms: C_33  and  O_36 
ROOT
HETATM    1  P   UNK N   1      20.668  16.486   7.271  0.00  0.00     0.401 P 
HETATM    2  O   UNK N   1      21.070  17.979   7.100  0.00  0.00    -0.631 OA
ENDROOT
BRANCH   1   3
HETATM    3  O   UNK N   1      19.459  16.092   6.070  0.00  0.00    -0.294 OA
BRANCH   3   4
HETATM    4  C   UNK N   1      20.114  15.468   5.003  0.00  0.00     0.215 C 
BRANCH   4   5
HETATM    5  C   UNK N   1      19.460  15.840   3.670  0.00  0.00     0.177 C 
HETATM    6  O   UNK N   1      19.781  17.167   3.316  0.00  0.00    -0.356 OA
HETATM    7  C   UNK N   1      20.980  17.105   2.559  0.00  0.00     0.235 C 
HETATM    8  C   UNK N   1      21.261  15.643   2.221  0.00  0.00     0.088 C 
HETATM    9  C   UNK N   1      19.976  14.956   2.563  0.00  0.00     0.153 C 
BRANCH   7  10
HETATM   10  N   UNK N   1      22.138  17.715   3.255  0.00  0.00    -0.282 N 
HETATM   11  C   UNK N   1      22.337  19.086   3.362  0.00  0.00     0.331 A 
HETATM   12  N   UNK N   1      23.422  19.570   4.045  0.00  0.00    -0.275 N 
HETATM   13  O   UNK N   1      21.571  19.876   2.847  0.00  0.00    -0.246 OA
HETATM   14  C   UNK N   1      24.328  18.729   4.621  0.00  0.00     0.256 A 
HETATM   15  H   UNK N   1      23.550  20.544   4.122  0.00  0.00     0.173 HD
HETATM   16  O   UNK N   1      25.278  19.189   5.230  0.00  0.00    -0.267 OA
HETATM   17  C   UNK N   1      24.160  17.350   4.502  0.00  0.00     0.022 A 
HETATM   18  C   UNK N   1      23.053  16.867   3.807  0.00  0.00     0.110 A 
HETATM   19  C   UNK N   1      25.128  16.391   5.107  0.00  0.00     0.056 C 
ENDBRANCH   7  10
BRANCH   9  20
HETATM   20  O   UNK N   1      19.114  15.036   1.468  0.00  0.00    -0.393 OA
HETATM   21  H   UNK N   1      18.586  15.740   1.060  0.00  0.00     0.210 HD
ENDBRANCH   9  20
ENDBRANCH   4   5
ENDBRANCH   3   4
ENDBRANCH   1   3
BRANCH   1  22
HETATM   22  O   UNK N   1      19.994  16.295   8.869  0.00  0.00    -0.195 OA
BRANCH  22  23
HETATM   23  P   UNK N   1      20.425  14.727   9.498  0.00  0.00     0.404 P 
HETATM   24  O   UNK N   1      19.261  13.880  10.081  0.00  0.00    -0.631 OA
BRANCH  23  25
HETATM   25  O   UNK N   1      21.931  13.886   9.263  0.00  0.00    -0.263 OA
BRANCH  25  26
HETATM   26  C   UNK N   1      21.720  12.579   9.702  0.00  0.00     0.303 C 
HETATM   27  O   UNK N   1      22.563  11.668   9.015  0.00  0.00    -0.348 OA
HETATM   28  C   UNK N   1      23.947  11.889   9.294  0.00  0.00     0.179 C 
HETATM   29  C   UNK N   1      24.267  12.428  10.698  0.00  0.00     0.180 C 
HETATM   30  C   UNK N   1      23.207  11.916  11.653  0.00  0.00     0.183 C 
HETATM   31  C   UNK N   1      21.854  12.486  11.232  0.00  0.00     0.205 C 
BRANCH  28  32
HETATM   32  C   UNK N   1      24.624  12.724   8.218  0.00  0.00     0.198 C 
BRANCH  32  33
HETATM   33  O   UNK N   1      23.747  12.930   7.153  0.00  0.00    -0.398 OA
HETATM   34  H   UNK N   1      23.576  13.706   6.597  0.00  0.00     0.209 HD
ENDBRANCH  32  33
ENDBRANCH  28  32
BRANCH  29  35
HETATM   35  O   UNK N   1      25.537  11.998  11.086  0.00  0.00    -0.390 OA
HETATM   36  H   UNK N   1      25.917  12.290  11.930  0.00  0.00     0.210 HD
ENDBRANCH  29  35
BRANCH  30  37
HETATM   37  O   UNK N   1      23.489  12.293  12.966  0.00  0.00    -0.390 OA
HETATM   38  H   UNK N   1      23.873  13.132  13.266  0.00  0.00     0.210 HD
ENDBRANCH  30  37
BRANCH  31  39
HETATM   39  O   UNK N   1      20.832  11.702  11.764  0.00  0.00    -0.388 OA
HETATM   40  H   UNK N   1      20.676  10.799  12.081  0.00  0.00     0.210 HD
ENDBRANCH  31  39
ENDBRANCH  25  26
ENDBRANCH  23  25
BRANCH  23  41
HETATM   41  O   UNK N   1      20.018  14.148   7.920  0.00  0.00    -0.307 OA
HETATM   42  H   UNK N   1      19.646  13.748   7.118  0.00  0.00     0.222 HD
ENDBRANCH  23  41
ENDBRANCH  22  23
ENDBRANCH   1  22
BRANCH   1  43
HETATM   43  O   UNK N   1      22.112  15.565   6.985  0.00  0.00    -0.307 OA
HETATM   44  H   UNK N   1      22.276  14.616   6.875  0.00  0.00     0.222 HD
ENDBRANCH   1  43
TORSDOF 16
ENDMDL
MODEL 6
REMARK VINA RESULT:      -7.1      8.807     11.486
REMARK  16 active torsions:
REMARK  status: ('A' for Active; 'I' for Inactive)
REMARK    1  A    between atoms: C_1  and  N_2 
REMARK    2  A    between atoms: C_7  and  C_12 
REMARK    3  A    between atoms: C_8  and  O_13 
REMARK    4  A    between atoms: C_12  and  O_16 
REMARK    5  A    between atoms: O_16  and  P_18 
REMARK    6  A    between atoms: P_18  and  O_19 
REMARK    7  A    between atoms: P_18  and  O_20 
REMARK    8  A    between atoms: O_19  and  P_22 
REMARK    9  A    between atoms: P_22  and  O_23 
REMARK   10  A    between atoms: P_22  and  O_24 
REMARK   11  A    between atoms: C_26  and  O_23 
REMARK   12  A    between atoms: C_28  and  O_31 
REMARK   13  A    between atoms: C_29  and  C_33 
REMARK   14  A    between atoms: C_30  and  O_34 
REMARK   15  A    between atoms: C_32  and  O_35 
REMARK   16  A    between atoms: C_33  and  O_36 
ROOT
HETATM    1  P   UNK N   1      33.882  18.035   8.062  0.00  0.00     0.401 P 
HETATM    2  O   UNK N   1      35.035  19.017   8.415  0.00  0.00    -0.631 OA
ENDROOT
BRANCH   1   3
HETATM    3  O   UNK N   1      34.023  16.619   9.080  0.00  0.00    -0.294 OA
BRANCH   3   4
HETATM    4  C   UNK N   1      35.102  16.830   9.946  0.00  0.00     0.215 C 
BRANCH   4   5
HETATM    5  C   UNK N   1      35.079  15.824  11.100  0.00  0.00     0.177 C 
HETATM    6  O   UNK N   1      34.307  14.695  10.755  0.00  0.00    -0.356 OA
HETATM    7  C   UNK N   1      35.193  13.772  10.141  0.00  0.00     0.235 C 
HETATM    8  C   UNK N   1      36.623  14.261  10.357  0.00  0.00     0.088 C 
HETATM    9  C   UNK N   1      36.472  15.327  11.395  0.00  0.00     0.153 C 
BRANCH   7  10
HETATM   10  N   UNK N   1      34.917  13.573   8.699  0.00  0.00    -0.282 N 
HETATM   11  C   UNK N   1      33.746  13.008   8.209  0.00  0.00     0.331 A 
HETATM   12  N   UNK N   1      33.557  12.883   6.858  0.00  0.00    -0.275 N 
HETATM   13  O   UNK N   1      32.879  12.606   8.960  0.00  0.00    -0.246 OA
HETATM   14  C   UNK N   1      34.507  13.295   5.970  0.00  0.00     0.256 A 
HETATM   15  H   UNK N   1      32.720  12.489   6.521  0.00  0.00     0.173 HD
HETATM   16  O   UNK N   1      34.307  13.179   4.773  0.00  0.00    -0.267 OA
HETATM   17  C   UNK N   1      35.700  13.840   6.442  0.00  0.00     0.022 A 
HETATM   18  C   UNK N   1      35.883  13.965   7.818  0.00  0.00     0.110 A 
HETATM   19  C   UNK N   1      36.772  14.296   5.511  0.00  0.00     0.056 C 
ENDBRANCH   7  10
BRANCH   9  20
HETATM   20  O   UNK N   1      36.492  14.735  12.659  0.00  0.00    -0.393 OA
HETATM   21  H   UNK N   1      36.535  13.824  12.990  0.00  0.00     0.210 HD
ENDBRANCH   9  20
ENDBRANCH   4   5
ENDBRANCH   3   4
ENDBRANCH   1   3
BRANCH   1  22
HETATM   22  O   UNK N   1      34.065  17.576   6.389  0.00  0.00    -0.195 OA
BRANCH  22  23
HETATM   23  P   UNK N   1      32.511  17.135   5.734  0.00  0.00     0.404 P 
HETATM   24  O   UNK N   1      32.515  16.020   4.653  0.00  0.00    -0.631 OA
BRANCH  23  25
HETATM   25  O   UNK N   1      30.949  17.568   6.369  0.00  0.00    -0.263 OA
BRANCH  25  26
HETATM   26  C   UNK N   1      30.010  16.898   5.586  0.00  0.00     0.303 C 
HETATM   27  O   UNK N   1      28.959  16.378   6.383  0.00  0.00    -0.348 OA
HETATM   28  C   UNK N   1      28.189  17.407   7.010  0.00  0.00     0.179 C 
HETATM   29  C   UNK N   1      28.070  18.723   6.225  0.00  0.00     0.180 C 
HETATM   30  C   UNK N   1      28.138  18.398   4.746  0.00  0.00     0.183 C 
HETATM   31  C   UNK N   1      29.509  17.796   4.441  0.00  0.00     0.205 C 
BRANCH  28  32
HETATM   32  C   UNK N   1      28.630  17.660   8.444  0.00  0.00     0.198 C 
BRANCH  32  33
HETATM   33  O   UNK N   1      27.560  18.151   9.191  0.00  0.00    -0.398 OA
HETATM   34  H   UNK N   1      27.413  19.006   9.625  0.00  0.00     0.209 HD
ENDBRANCH  32  33
ENDBRANCH  28  32
BRANCH  29  35
HETATM   35  O   UNK N   1      26.863  19.349   6.542  0.00  0.00    -0.390 OA
HETATM   36  H   UNK N   1      26.019  18.926   6.320  0.00  0.00     0.210 HD
ENDBRANCH  29  35
BRANCH  30  37
HETATM   37  O   UNK N   1      27.943  19.542   3.972  0.00  0.00    -0.390 OA
HETATM   38  H   UNK N   1      27.868  19.591   3.005  0.00  0.00     0.210 HD
ENDBRANCH  30  37
BRANCH  31  39
HETATM   39  O   UNK N   1      29.447  17.078   3.249  0.00  0.00    -0.388 OA
HETATM   40  H   UNK N   1      29.535  17.215   2.293  0.00  0.00     0.210 HD
ENDBRANCH  31  39
ENDBRANCH  25  26
ENDBRANCH  23  25
BRANCH  23  41
HETATM   41  O   UNK N   1      32.511  15.911   6.955  0.00  0.00    -0.307 OA
HETATM   42  H   UNK N   1      32.356  15.169   7.561  0.00  0.00     0.222 HD
ENDBRANCH  23  41
ENDBRANCH  22  23
ENDBRANCH   1  22
BRANCH   1  43
HETATM   43  O   UNK N   1      32.407  18.879   8.420  0.00  0.00    -0.307 OA
HETATM   44  H   UNK N   1      31.933  19.053   9.248  0.00  0.00     0.222 HD
ENDBRANCH   1  43
TORSDOF 16
ENDMDL
MODEL 7
REMARK VINA RESULT:      -7.1      2.054      4.394
REMARK  16 active torsions:
REMARK  status: ('A' for Active; 'I' for Inactive)
REMARK    1  A    between atoms: C_1  and  N_2 
REMARK    2  A    between atoms: C_7  and  C_12 
REMARK    3  A    between atoms: C_8  and  O_13 
REMARK    4  A    between atoms: C_12  and  O_16 
REMARK    5  A    between atoms: O_16  and  P_18 
REMARK    6  A    between atoms: P_18  and  O_19 
REMARK    7  A    between atoms: P_18  and  O_20 
REMARK    8  A    between atoms: O_19  and  P_22 
REMARK    9  A    between atoms: P_22  and  O_23 
REMARK   10  A    between atoms: P_22  and  O_24 
REMARK   11  A    between atoms: C_26  and  O_23 
REMARK   12  A    between atoms: C_28  and  O_31 
REMARK   13  A    between atoms: C_29  and  C_33 
REMARK   14  A    between atoms: C_30  and  O_34 
REMARK   15  A    between atoms: C_32  and  O_35 
REMARK   16  A    between atoms: C_33  and  O_36 
ROOT
HETATM    1  P   UNK N   1      20.692  12.774   4.794  0.00  0.00     0.401 P 
HETATM    2  O   UNK N   1      20.474  12.267   6.248  0.00  0.00    -0.631 OA
ENDROOT
BRANCH   1   3
HETATM    3  O   UNK N   1      22.302  12.322   4.280  0.00  0.00    -0.294 OA
BRANCH   3   4
HETATM    4  C   UNK N   1      23.106  12.262   5.424  0.00  0.00     0.215 C 
BRANCH   4   5
HETATM    5  C   UNK N   1      24.179  13.353   5.393  0.00  0.00     0.177 C 
HETATM    6  O   UNK N   1      23.649  14.580   5.844  0.00  0.00    -0.356 OA
HETATM    7  C   UNK N   1      23.844  14.613   7.249  0.00  0.00     0.235 C 
HETATM    8  C   UNK N   1      24.768  13.461   7.634  0.00  0.00     0.088 C 
HETATM    9  C   UNK N   1      25.316  13.002   6.319  0.00  0.00     0.153 C 
BRANCH   7  10
HETATM   10  N   UNK N   1      22.575  14.547   8.013  0.00  0.00    -0.282 N 
HETATM   11  C   UNK N   1      21.527  15.444   7.845  0.00  0.00     0.331 A 
HETATM   12  N   UNK N   1      20.376  15.298   8.573  0.00  0.00    -0.275 N 
HETATM   13  O   UNK N   1      21.613  16.374   7.068  0.00  0.00    -0.246 OA
HETATM   14  C   UNK N   1      20.234  14.286   9.477  0.00  0.00     0.256 A 
HETATM   15  H   UNK N   1      19.636  15.934   8.441  0.00  0.00     0.173 HD
HETATM   16  O   UNK N   1      19.195  14.175  10.103  0.00  0.00    -0.267 OA
HETATM   17  C   UNK N   1      21.285  13.391   9.679  0.00  0.00     0.022 A 
HETATM   18  C   UNK N   1      22.451  13.546   8.933  0.00  0.00     0.110 A 
HETATM   19  C   UNK N   1      21.181  12.275  10.663  0.00  0.00     0.056 C 
ENDBRANCH   7  10
BRANCH   9  20
HETATM   20  O   UNK N   1      26.430  13.779   5.997  0.00  0.00    -0.393 OA
HETATM   21  H   UNK N   1      27.150  14.190   6.501  0.00  0.00     0.210 HD
ENDBRANCH   9  20
ENDBRANCH   4   5
ENDBRANCH   3   4
ENDBRANCH   1   3
BRANCH   1  22
HETATM   22  O   UNK N   1      20.546  14.513   4.807  0.00  0.00    -0.195 OA
BRANCH  22  23
HETATM   23  P   UNK N   1      20.762  15.127   3.190  0.00  0.00     0.404 P 
HETATM   24  O   UNK N   1      20.207  14.240   2.042  0.00  0.00    -0.631 OA
BRANCH  23  25
HETATM   25  O   UNK N   1      21.235  16.740   2.740  0.00  0.00    -0.263 OA
BRANCH  25  26
HETATM   26  C   UNK N   1      20.304  17.597   3.325  0.00  0.00     0.303 C 
HETATM   27  O   UNK N   1      20.858  18.265   4.447  0.00  0.00    -0.348 OA
HETATM   28  C   UNK N   1      21.929  19.140   4.087  0.00  0.00     0.179 C 
HETATM   29  C   UNK N   1      21.821  19.789   2.697  0.00  0.00     0.180 C 
HETATM   30  C   UNK N   1      20.352  19.950   2.364  0.00  0.00     0.183 C 
HETATM   31  C   UNK N   1      19.716  18.562   2.281  0.00  0.00     0.205 C 
BRANCH  28  32
HETATM   32  C   UNK N   1      23.291  18.494   4.287  0.00  0.00     0.198 C 
BRANCH  32  33
HETATM   33  O   UNK N   1      23.169  17.367   5.100  0.00  0.00    -0.398 OA
HETATM   34  H   UNK N   1      22.911  17.265   6.029  0.00  0.00     0.209 HD
ENDBRANCH  32  33
ENDBRANCH  28  32
BRANCH  29  35
HETATM   35  O   UNK N   1      22.467  21.027   2.708  0.00  0.00    -0.390 OA
HETATM   36  H   UNK N   1      23.021  21.283   3.462  0.00  0.00     0.210 HD
ENDBRANCH  29  35
BRANCH  30  37
HETATM   37  O   UNK N   1      20.182  20.619   1.152  0.00  0.00    -0.390 OA
HETATM   38  H   UNK N   1      19.379  20.655   0.609  0.00  0.00     0.210 HD
ENDBRANCH  30  37
BRANCH  31  39
HETATM   39  O   UNK N   1      18.336  18.673   2.441  0.00  0.00    -0.388 OA
HETATM   40  H   UNK N   1      17.590  18.185   2.824  0.00  0.00     0.210 HD
ENDBRANCH  31  39
ENDBRANCH  25  26
ENDBRANCH  23  25
BRANCH  23  41
HETATM   41  O   UNK N   1      19.182  15.799   3.395  0.00  0.00    -0.307 OA
HETATM   42  H   UNK N   1      18.380  16.337   3.488  0.00  0.00     0.222 HD
ENDBRANCH  23  41
ENDBRANCH  22  23
ENDBRANCH   1  22
BRANCH   1  43
HETATM   43  O   UNK N   1      19.506  11.960   3.820  0.00  0.00    -0.307 OA
HETATM   44  H   UNK N   1      18.636  11.584   4.022  0.00  0.00     0.222 HD
ENDBRANCH   1  43
TORSDOF 16
ENDMDL
MODEL 8
REMARK VINA RESULT:      -7.1     14.475     17.152
REMARK  16 active torsions:
REMARK  status: ('A' for Active; 'I' for Inactive)
REMARK    1  A    between atoms: C_1  and  N_2 
REMARK    2  A    between atoms: C_7  and  C_12 
REMARK    3  A    between atoms: C_8  and  O_13 
REMARK    4  A    between atoms: C_12  and  O_16 
REMARK    5  A    between atoms: O_16  and  P_18 
REMARK    6  A    between atoms: P_18  and  O_19 
REMARK    7  A    between atoms: P_18  and  O_20 
REMARK    8  A    between atoms: O_19  and  P_22 
REMARK    9  A    between atoms: P_22  and  O_23 
REMARK   10  A    between atoms: P_22  and  O_24 
REMARK   11  A    between atoms: C_26  and  O_23 
REMARK   12  A    between atoms: C_28  and  O_31 
REMARK   13  A    between atoms: C_29  and  C_33 
REMARK   14  A    between atoms: C_30  and  O_34 
REMARK   15  A    between atoms: C_32  and  O_35 
REMARK   16  A    between atoms: C_33  and  O_36 
ROOT
HETATM    1  P   UNK N   1      29.861  25.843  -5.290  0.00  0.00     0.401 P 
HETATM    2  O   UNK N   1      31.370  25.994  -5.635  0.00  0.00    -0.631 OA
ENDROOT
BRANCH   1   3
HETATM    3  O   UNK N   1      29.041  27.330  -5.706  0.00  0.00    -0.294 OA
BRANCH   3   4
HETATM    4  C   UNK N   1      28.712  27.977  -4.510  0.00  0.00     0.215 C 
BRANCH   4   5
HETATM    5  C   UNK N   1      27.532  28.933  -4.714  0.00  0.00     0.177 C 
HETATM    6  O   UNK N   1      26.688  28.462  -5.741  0.00  0.00    -0.356 OA
HETATM    7  C   UNK N   1      25.728  27.620  -5.122  0.00  0.00     0.235 C 
HETATM    8  C   UNK N   1      25.841  27.793  -3.609  0.00  0.00     0.088 C 
HETATM    9  C   UNK N   1      26.695  29.012  -3.463  0.00  0.00     0.153 C 
BRANCH   7  10
HETATM   10  N   UNK N   1      25.876  26.195  -5.501  0.00  0.00    -0.282 N 
HETATM   11  C   UNK N   1      26.193  25.186  -4.599  0.00  0.00     0.331 A 
HETATM   12  N   UNK N   1      26.286  23.888  -5.026  0.00  0.00    -0.275 N 
HETATM   13  O   UNK N   1      26.407  25.433  -3.428  0.00  0.00    -0.246 OA
HETATM   14  C   UNK N   1      26.081  23.557  -6.333  0.00  0.00     0.256 A 
HETATM   15  H   UNK N   1      26.504  23.180  -4.377  0.00  0.00     0.173 HD
HETATM   16  O   UNK N   1      26.161  22.392  -6.682  0.00  0.00    -0.267 OA
HETATM   17  C   UNK N   1      25.788  24.558  -7.259  0.00  0.00     0.022 A 
HETATM   18  C   UNK N   1      25.694  25.875  -6.815  0.00  0.00     0.110 A 
HETATM   19  C   UNK N   1      25.564  24.247  -8.700  0.00  0.00     0.056 C 
ENDBRANCH   7  10
BRANCH   9  20
HETATM   20  O   UNK N   1      25.881  30.145  -3.524  0.00  0.00    -0.393 OA
HETATM   21  H   UNK N   1      24.932  30.315  -3.419  0.00  0.00     0.210 HD
ENDBRANCH   9  20
ENDBRANCH   4   5
ENDBRANCH   3   4
ENDBRANCH   1   3
BRANCH   1  22
HETATM   22  O   UNK N   1      29.733  25.562  -3.572  0.00  0.00    -0.195 OA
BRANCH  22  23
HETATM   23  P   UNK N   1      30.467  24.031  -3.177  0.00  0.00     0.404 P 
HETATM   24  O   UNK N   1      30.235  23.514  -1.731  0.00  0.00    -0.631 OA
BRANCH  23  25
HETATM   25  O   UNK N   1      31.152  22.883  -4.291  0.00  0.00    -0.263 OA
BRANCH  25  26
HETATM   26  C   UNK N   1      31.281  21.685  -3.588  0.00  0.00     0.303 C 
HETATM   27  O   UNK N   1      30.564  20.640  -4.223  0.00  0.00    -0.348 OA
HETATM   28  C   UNK N   1      31.091  20.322  -5.513  0.00  0.00     0.179 C 
HETATM   29  C   UNK N   1      32.607  20.517  -5.681  0.00  0.00     0.180 C 
HETATM   30  C   UNK N   1      33.264  20.283  -4.336  0.00  0.00     0.183 C 
HETATM   31  C   UNK N   1      32.763  21.343  -3.356  0.00  0.00     0.205 C 
BRANCH  28  32
HETATM   32  C   UNK N   1      30.321  21.006  -6.633  0.00  0.00     0.198 C 
BRANCH  32  33
HETATM   33  O   UNK N   1      29.196  21.647  -6.116  0.00  0.00    -0.398 OA
HETATM   34  H   UNK N   1      28.288  21.340  -5.967  0.00  0.00     0.209 HD
ENDBRANCH  32  33
ENDBRANCH  28  32
BRANCH  29  35
HETATM   35  O   UNK N   1      33.091  19.620  -6.635  0.00  0.00    -0.390 OA
HETATM   36  H   UNK N   1      32.835  18.685  -6.602  0.00  0.00     0.210 HD
ENDBRANCH  29  35
BRANCH  30  37
HETATM   37  O   UNK N   1      34.653  20.354  -4.437  0.00  0.00    -0.390 OA
HETATM   38  H   UNK N   1      35.212  19.970  -5.131  0.00  0.00     0.210 HD
ENDBRANCH  30  37
BRANCH  31  39
HETATM   39  O   UNK N   1      32.963  20.902  -2.050  0.00  0.00    -0.388 OA
HETATM   40  H   UNK N   1      33.610  20.976  -1.330  0.00  0.00     0.210 HD
ENDBRANCH  31  39
ENDBRANCH  25  26
ENDBRANCH  23  25
BRANCH  23  41
HETATM   41  O   UNK N   1      28.943  23.353  -3.634  0.00  0.00    -0.307 OA
HETATM   42  H   UNK N   1      28.076  23.118  -3.999  0.00  0.00     0.222 HD
ENDBRANCH  23  41
ENDBRANCH  22  23
ENDBRANCH   1  22
BRANCH   1  43
HETATM   43  O   UNK N   1      29.272  24.541  -6.277  0.00  0.00    -0.307 OA
HETATM   44  H   UNK N   1      29.715  23.810  -6.734  0.00  0.00     0.222 HD
ENDBRANCH   1  43
TORSDOF 16
ENDMDL
MODEL 9
REMARK VINA RESULT:      -7.0      2.077      4.026
REMARK  16 active torsions:
REMARK  status: ('A' for Active; 'I' for Inactive)
REMARK    1  A    between atoms: C_1  and  N_2 
REMARK    2  A    between atoms: C_7  and  C_12 
REMARK    3  A    between atoms: C_8  and  O_13 
REMARK    4  A    between atoms: C_12  and  O_16 
REMARK    5  A    between atoms: O_16  and  P_18 
REMARK    6  A    between atoms: P_18  and  O_19 
REMARK    7  A    between atoms: P_18  and  O_20 
REMARK    8  A    between atoms: O_19  and  P_22 
REMARK    9  A    between atoms: P_22  and  O_23 
REMARK   10  A    between atoms: P_22  and  O_24 
REMARK   11  A    between atoms: C_26  and  O_23 
REMARK   12  A    between atoms: C_28  and  O_31 
REMARK   13  A    between atoms: C_29  and  C_33 
REMARK   14  A    between atoms: C_30  and  O_34 
REMARK   15  A    between atoms: C_32  and  O_35 
REMARK   16  A    between atoms: C_33  and  O_36 
ROOT
HETATM    1  P   UNK N   1      20.675  14.379   7.203  0.00  0.00     0.401 P 
HETATM    2  O   UNK N   1      20.364  13.378   8.352  0.00  0.00    -0.631 OA
ENDROOT
BRANCH   1   3
HETATM    3  O   UNK N   1      20.274  13.622   5.679  0.00  0.00    -0.294 OA
BRANCH   3   4
HETATM    4  C   UNK N   1      20.351  12.237   5.864  0.00  0.00     0.215 C 
BRANCH   4   5
HETATM    5  C   UNK N   1      21.053  11.567   4.680  0.00  0.00     0.177 C 
HETATM    6  O   UNK N   1      22.395  11.995   4.595  0.00  0.00    -0.356 OA
HETATM    7  C   UNK N   1      23.157  11.096   5.385  0.00  0.00     0.235 C 
HETATM    8  C   UNK N   1      22.268   9.913   5.761  0.00  0.00     0.088 C 
HETATM    9  C   UNK N   1      21.083  10.070   4.861  0.00  0.00     0.153 C 
BRANCH   7  10
HETATM   10  N   UNK N   1      23.729  11.730   6.597  0.00  0.00    -0.282 N 
HETATM   11  C   UNK N   1      24.725  12.698   6.563  0.00  0.00     0.331 A 
HETATM   12  N   UNK N   1      25.182  13.253   7.728  0.00  0.00    -0.275 N 
HETATM   13  O   UNK N   1      25.216  13.059   5.511  0.00  0.00    -0.246 OA
HETATM   14  C   UNK N   1      24.684  12.868   8.938  0.00  0.00     0.256 A 
HETATM   15  H   UNK N   1      25.883  13.944   7.693  0.00  0.00     0.173 HD
HETATM   16  O   UNK N   1      25.104  13.386   9.959  0.00  0.00    -0.267 OA
HETATM   17  C   UNK N   1      23.703  11.878   8.996  0.00  0.00     0.022 A 
HETATM   18  C   UNK N   1      23.243  11.320   7.805  0.00  0.00     0.110 A 
HETATM   19  C   UNK N   1      23.135  11.417  10.295  0.00  0.00     0.056 C 
ENDBRANCH   7  10
BRANCH   9  20
HETATM   20  O   UNK N   1      21.361   9.463   3.635  0.00  0.00    -0.393 OA
HETATM   21  H   UNK N   1      22.127   9.436   3.041  0.00  0.00     0.210 HD
ENDBRANCH   9  20
ENDBRANCH   4   5
ENDBRANCH   3   4
ENDBRANCH   1   3
BRANCH   1  22
HETATM   22  O   UNK N   1      22.383  14.733   7.252  0.00  0.00    -0.195 OA
BRANCH  22  23
HETATM   23  P   UNK N   1      22.728  16.080   6.201  0.00  0.00     0.404 P 
HETATM   24  O   UNK N   1      24.211  16.252   5.773  0.00  0.00    -0.631 OA
BRANCH  23  25
HETATM   25  O   UNK N   1      21.572  17.051   5.334  0.00  0.00    -0.263 OA
BRANCH  25  26
HETATM   26  C   UNK N   1      22.218  17.489   4.178  0.00  0.00     0.303 C 
HETATM   27  O   UNK N   1      21.776  16.767   3.041  0.00  0.00    -0.348 OA
HETATM   28  C   UNK N   1      20.395  16.997   2.752  0.00  0.00     0.179 C 
HETATM   29  C   UNK N   1      19.861  18.392   3.117  0.00  0.00     0.180 C 
HETATM   30  C   UNK N   1      21.002  19.381   2.995  0.00  0.00     0.183 C 
HETATM   31  C   UNK N   1      22.078  19.012   4.016  0.00  0.00     0.205 C 
BRANCH  28  32
HETATM   32  C   UNK N   1      19.501  15.902   3.312  0.00  0.00     0.198 C 
BRANCH  32  33
HETATM   33  O   UNK N   1      18.852  16.357   4.459  0.00  0.00    -0.398 OA
HETATM   34  H   UNK N   1      19.119  16.987   5.146  0.00  0.00     0.209 HD
ENDBRANCH  32  33
ENDBRANCH  28  32
BRANCH  29  35
HETATM   35  O   UNK N   1      18.815  18.731   2.257  0.00  0.00    -0.390 OA
HETATM   36  H   UNK N   1      18.989  18.907   1.319  0.00  0.00     0.210 HD
ENDBRANCH  29  35
BRANCH  30  37
HETATM   37  O   UNK N   1      20.563  20.685   3.224  0.00  0.00    -0.390 OA
HETATM   38  H   UNK N   1      20.956  21.341   3.821  0.00  0.00     0.210 HD
ENDBRANCH  30  37
BRANCH  31  39
HETATM   39  O   UNK N   1      23.294  19.577   3.636  0.00  0.00    -0.388 OA
HETATM   40  H   UNK N   1      23.664  20.152   2.948  0.00  0.00     0.210 HD
ENDBRANCH  31  39
ENDBRANCH  25  26
ENDBRANCH  23  25
BRANCH  23  41
HETATM   41  O   UNK N   1      22.520  14.939   4.918  0.00  0.00    -0.307 OA
HETATM   42  H   UNK N   1      22.448  14.175   4.325  0.00  0.00     0.222 HD
ENDBRANCH  23  41
ENDBRANCH  22  23
ENDBRANCH   1  22
BRANCH   1  43
HETATM   43  O   UNK N   1      19.648  15.753   7.474  0.00  0.00    -0.307 OA
HETATM   44  H   UNK N   1      19.827  16.703   7.547  0.00  0.00     0.222 HD
ENDBRANCH   1  43
TORSDOF 16
ENDMDL
