MODEL 1
REMARK VINA RESULT:      -5.2      0.000      0.000
REMARK  0 active torsions:
REMARK  status: ('A' for Active; 'I' for Inactive)
ROOT
HETATM    1  C   UNK N   1      24.853  12.722  10.527  0.00  0.00     0.182 A 
HETATM    2  C   UNK N   1      22.769  13.084  10.264  0.00  0.00     0.117 A 
HETATM    3  C   UNK N   1      21.494  13.488   9.888  0.00  0.00     0.137 A 
HETATM    4  C   UNK N   1      22.931  12.213  11.276  0.00  0.00     0.140 A 
HETATM    5  C   UNK N   1      20.625  12.082  11.610  0.00  0.00     0.268 A 
HETATM    6 Cl   UNK N   1      21.221  14.620   8.578  0.00  0.00    -0.062 Cl
HETATM    7  F   UNK N   1      19.555  11.587  12.277  0.00  0.00    -0.165 F 
HETATM    8  N   UNK N   1      23.966  13.425   9.769  0.00  0.00    -0.347 N 
ATOM      9  HN  UNK N   1      24.168  14.065   9.000  1.00  0.00     0.167 HD
HETATM   10  N   UNK N   1      24.232  11.962  11.470  0.00  0.00    -0.337 N 
ATOM     11  HN  UNK N   1      24.657  11.345  12.162  1.00  0.00     0.168 HD
HETATM   12  N   UNK N   1      20.435  12.970  10.580  0.00  0.00    -0.307 N 
ATOM     13  HN  UNK N   1      19.487  13.249  10.327  1.00  0.00     0.170 HD
HETATM   14  N   UNK N   1      21.888  11.695  11.967  0.00  0.00    -0.302 N 
HETATM   15  H   UNK N   1      22.035  11.059  12.704  0.00  0.00     0.171 HD
ENDROOT
TORSDOF 0
ENDMDL
MODEL 2
REMARK VINA RESULT:      -4.7     13.425     14.470
REMARK  0 active torsions:
REMARK  status: ('A' for Active; 'I' for Inactive)
ROOT
HETATM    1  C   UNK N   1      35.037  13.525  11.384  0.00  0.00     0.182 A 
HETATM    2  C   UNK N   1      35.299  13.179  13.471  0.00  0.00     0.117 A 
HETATM    3  C   UNK N   1      35.291  12.745  14.791  0.00  0.00     0.137 A 
HETATM    4  C   UNK N   1      36.055  14.232  13.110  0.00  0.00     0.140 A 
HETATM    5  C   UNK N   1      36.833  14.495  15.294  0.00  0.00     0.268 A 
HETATM    6 Cl   UNK N   1      34.326  11.380  15.320  0.00  0.00    -0.062 Cl
HETATM    7  F   UNK N   1      37.595  15.146  16.205  0.00  0.00    -0.165 F 
HETATM    8  N   UNK N   1      34.642  12.709  12.401  0.00  0.00    -0.347 N 
ATOM      9  HN  UNK N   1      33.995  11.921  12.358  1.00  0.00     0.167 HD
HETATM   10  N   UNK N   1      35.914  14.478  11.801  0.00  0.00    -0.337 N 
ATOM     11  HN  UNK N   1      36.361  15.209  11.248  1.00  0.00     0.168 HD
HETATM   12  N   UNK N   1      36.070  13.423  15.686  0.00  0.00    -0.307 N 
ATOM     13  HN  UNK N   1      36.084  13.127  16.661  1.00  0.00     0.170 HD
HETATM   14  N   UNK N   1      36.829  14.909  13.989  0.00  0.00    -0.302 N 
HETATM   15  H   UNK N   1      37.374  15.676  13.699  0.00  0.00     0.171 HD
ENDROOT
TORSDOF 0
ENDMDL
MODEL 3
REMARK VINA RESULT:      -4.7     12.620     13.711
REMARK  0 active torsions:
REMARK  status: ('A' for Active; 'I' for Inactive)
ROOT
HETATM    1  C   UNK N   1      36.984  14.708  15.434  0.00  0.00     0.182 A 
HETATM    2  C   UNK N   1      35.887  13.587  13.990  0.00  0.00     0.117 A 
HETATM    3  C   UNK N   1      35.305  13.017  12.865  0.00  0.00     0.137 A 
HETATM    4  C   UNK N   1      35.566  13.141  15.218  0.00  0.00     0.140 A 
HETATM    5  C   UNK N   1      34.096  11.564  14.322  0.00  0.00     0.268 A 
HETATM    6 Cl   UNK N   1      35.686  13.556  11.241  0.00  0.00    -0.062 Cl
HETATM    7  F   UNK N   1      33.204  10.558  14.482  0.00  0.00    -0.165 F 
HETATM    8  N   UNK N   1      36.783  14.579  14.092  0.00  0.00    -0.347 N 
ATOM      9  HN  UNK N   1      37.215  15.114  13.339  1.00  0.00     0.167 HD
HETATM   10  N   UNK N   1      36.238  13.825  16.151  0.00  0.00    -0.337 N 
ATOM     11  HN  UNK N   1      36.199  13.710  17.165  1.00  0.00     0.168 HD
HETATM   12  N   UNK N   1      34.409  12.003  13.059  0.00  0.00    -0.307 N 
ATOM     13  HN  UNK N   1      33.966  11.566  12.252  1.00  0.00     0.170 HD
HETATM   14  N   UNK N   1      34.679  12.138  15.419  0.00  0.00    -0.302 N 
HETATM   15  H   UNK N   1      34.461  11.830  16.329  0.00  0.00     0.171 HD
ENDROOT
TORSDOF 0
ENDMDL
MODEL 4
REMARK VINA RESULT:      -4.6     13.294     14.442
REMARK  0 active torsions:
REMARK  status: ('A' for Active; 'I' for Inactive)
ROOT
HETATM    1  C   UNK N   1      34.231  11.411  13.910  0.00  0.00     0.182 A 
HETATM    2  C   UNK N   1      35.392  13.173  13.612  0.00  0.00     0.117 A 
HETATM    3  C   UNK N   1      36.058  14.304  13.156  0.00  0.00     0.137 A 
HETATM    4  C   UNK N   1      35.507  12.792  14.897  0.00  0.00     0.140 A 
HETATM    5  C   UNK N   1      36.922  14.590  15.362  0.00  0.00     0.268 A 
HETATM    6 Cl   UNK N   1      35.946  14.848  11.493  0.00  0.00    -0.062 Cl
HETATM    7  F   UNK N   1      37.684  15.298  16.229  0.00  0.00    -0.165 F 
HETATM    8  N   UNK N   1      34.591  12.319  12.960  0.00  0.00    -0.347 N 
ATOM      9  HN  UNK N   1      34.314  12.343  11.978  1.00  0.00     0.167 HD
HETATM   10  N   UNK N   1      34.789  11.686  15.120  0.00  0.00    -0.337 N 
ATOM     11  HN  UNK N   1      34.684  11.169  15.994  1.00  0.00     0.168 HD
HETATM   12  N   UNK N   1      36.819  14.997  14.055  0.00  0.00    -0.307 N 
ATOM     13  HN  UNK N   1      37.320  15.831  13.749  1.00  0.00     0.170 HD
HETATM   14  N   UNK N   1      36.259  13.473  15.794  0.00  0.00    -0.302 N 
HETATM   15  H   UNK N   1      36.326  13.173  16.730  0.00  0.00     0.171 HD
ENDROOT
TORSDOF 0
ENDMDL
MODEL 5
REMARK VINA RESULT:      -4.6     13.539     14.212
REMARK  0 active torsions:
REMARK  status: ('A' for Active; 'I' for Inactive)
ROOT
HETATM    1  C   UNK N   1      36.369  13.603  12.605  0.00  0.00     0.182 A 
HETATM    2  C   UNK N   1      35.333  12.752  14.263  0.00  0.00     0.117 A 
HETATM    3  C   UNK N   1      34.541  12.035  15.151  0.00  0.00     0.137 A 
HETATM    4  C   UNK N   1      36.147  13.723  14.715  0.00  0.00     0.140 A 
HETATM    5  C   UNK N   1      35.462  13.352  16.915  0.00  0.00     0.268 A 
HETATM    6 Cl   UNK N   1      33.462  10.759  14.620  0.00  0.00    -0.062 Cl
HETATM    7  F   UNK N   1      35.522  13.646  18.235  0.00  0.00    -0.165 F 
HETATM    8  N   UNK N   1      35.451  12.650  12.932  0.00  0.00    -0.347 N 
ATOM      9  HN  UNK N   1      34.964  12.008  12.306  1.00  0.00     0.167 HD
HETATM   10  N   UNK N   1      36.815  14.281  13.698  0.00  0.00    -0.337 N 
ATOM     11  HN  UNK N   1      37.498  15.037  13.734  1.00  0.00     0.168 HD
HETATM   12  N   UNK N   1      34.624  12.356  16.476  0.00  0.00    -0.307 N 
ATOM     13  HN  UNK N   1      34.054  11.847  17.151  1.00  0.00     0.170 HD
HETATM   14  N   UNK N   1      36.236  14.048  16.026  0.00  0.00    -0.302 N 
HETATM   15  H   UNK N   1      36.839  14.763  16.331  0.00  0.00     0.171 HD
ENDROOT
TORSDOF 0
ENDMDL
MODEL 6
REMARK VINA RESULT:      -4.6      9.616     10.678
REMARK  0 active torsions:
REMARK  status: ('A' for Active; 'I' for Inactive)
ROOT
HETATM    1  C   UNK N   1      20.715  21.236   1.275  0.00  0.00     0.182 A 
HETATM    2  C   UNK N   1      20.529  19.182   1.812  0.00  0.00     0.117 A 
HETATM    3  C   UNK N   1      20.352  17.806   1.893  0.00  0.00     0.137 A 
HETATM    4  C   UNK N   1      20.838  19.889   2.913  0.00  0.00     0.140 A 
HETATM    5  C   UNK N   1      20.819  17.961   4.228  0.00  0.00     0.268 A 
HETATM    6 Cl   UNK N   1      19.948  16.832   0.492  0.00  0.00    -0.062 Cl
HETATM    7  F   UNK N   1      20.962  17.349   5.427  0.00  0.00    -0.165 F 
HETATM    8  N   UNK N   1      20.444  20.005   0.758  0.00  0.00    -0.347 N 
ATOM      9  HN  UNK N   1      20.226  19.765  -0.210  1.00  0.00     0.167 HD
HETATM   10  N   UNK N   1      20.963  21.187   2.612  0.00  0.00    -0.337 N 
ATOM     11  HN  UNK N   1      21.190  21.960   3.239  1.00  0.00     0.168 HD
HETATM   12  N   UNK N   1      20.503  17.218   3.117  0.00  0.00    -0.307 N 
ATOM     13  HN  UNK N   1      20.379  16.210   3.206  1.00  0.00     0.170 HD
HETATM   14  N   UNK N   1      20.990  19.315   4.130  0.00  0.00    -0.302 N 
HETATM   15  H   UNK N   1      21.216  19.857   4.921  0.00  0.00     0.171 HD
ENDROOT
TORSDOF 0
ENDMDL
MODEL 7
REMARK VINA RESULT:      -4.5      9.469     10.278
REMARK  0 active torsions:
REMARK  status: ('A' for Active; 'I' for Inactive)
ROOT
HETATM    1  C   UNK N   1      28.530  18.107   8.222  0.00  0.00     0.182 A 
HETATM    2  C   UNK N   1      27.500  19.639   7.156  0.00  0.00     0.117 A 
HETATM    3  C   UNK N   1      26.748  20.720   6.713  0.00  0.00     0.137 A 
HETATM    4  C   UNK N   1      28.142  18.854   6.271  0.00  0.00     0.140 A 
HETATM    5  C   UNK N   1      27.356  20.130   4.482  0.00  0.00     0.268 A 
HETATM    6 Cl   UNK N   1      25.891  21.777   7.818  0.00  0.00    -0.062 Cl
HETATM    7  F   UNK N   1      27.281  20.378   3.153  0.00  0.00    -0.165 F 
HETATM    8  N   UNK N   1      27.725  19.193   8.399  0.00  0.00    -0.347 N 
ATOM      9  HN  UNK N   1      27.375  19.577   9.277  1.00  0.00     0.167 HD
HETATM   10  N   UNK N   1      28.801  17.879   6.908  0.00  0.00    -0.337 N 
ATOM     11  HN  UNK N   1      29.373  17.137   6.503  1.00  0.00     0.168 HD
HETATM   12  N   UNK N   1      26.692  20.944   5.366  0.00  0.00    -0.307 N 
ATOM     13  HN  UNK N   1      26.148  21.731   5.012  1.00  0.00     0.170 HD
HETATM   14  N   UNK N   1      28.092  19.069   4.936  0.00  0.00    -0.302 N 
HETATM   15  H   UNK N   1      28.571  18.479   4.309  0.00  0.00     0.171 HD
ENDROOT
TORSDOF 0
ENDMDL
MODEL 8
REMARK VINA RESULT:      -4.5      9.073      9.959
REMARK  0 active torsions:
REMARK  status: ('A' for Active; 'I' for Inactive)
ROOT
HETATM    1  C   UNK N   1      28.521  17.544   9.001  0.00  0.00     0.182 A 
HETATM    2  C   UNK N   1      28.548  18.176   6.965  0.00  0.00     0.117 A 
HETATM    3  C   UNK N   1      28.724  18.363   5.600  0.00  0.00     0.137 A 
HETATM    4  C   UNK N   1      27.813  19.049   7.678  0.00  0.00     0.140 A 
HETATM    5  C   UNK N   1      27.382  20.329   5.774  0.00  0.00     0.268 A 
HETATM    6 Cl   UNK N   1      29.671  17.260   4.620  0.00  0.00    -0.062 Cl
HETATM    7  F   UNK N   1      26.804  21.398   5.177  0.00  0.00    -0.165 F 
HETATM    8  N   UNK N   1      29.010  17.212   7.773  0.00  0.00    -0.347 N 
ATOM      9  HN  UNK N   1      29.595  16.413   7.526  1.00  0.00     0.167 HD
HETATM   10  N   UNK N   1      27.774  18.681   8.964  0.00  0.00    -0.337 N 
ATOM     11  HN  UNK N   1      27.296  19.146   9.737  1.00  0.00     0.168 HD
HETATM   12  N   UNK N   1      28.128  19.451   5.027  0.00  0.00    -0.307 N 
ATOM     13  HN  UNK N   1      28.240  19.614   4.026  1.00  0.00     0.170 HD
HETATM   14  N   UNK N   1      27.219  20.129   7.119  0.00  0.00    -0.302 N 
HETATM   15  H   UNK N   1      26.686  20.753   7.663  0.00  0.00     0.171 HD
ENDROOT
TORSDOF 0
ENDMDL
MODEL 9
REMARK VINA RESULT:      -4.5     13.162     13.818
REMARK  0 active torsions:
REMARK  status: ('A' for Active; 'I' for Inactive)
ROOT
HETATM    1  C   UNK N   1      35.807  15.180  11.371  0.00  0.00     0.182 A 
HETATM    2  C   UNK N   1      35.866  14.135  13.228  0.00  0.00     0.117 A 
HETATM    3  C   UNK N   1      36.074  13.660  14.517  0.00  0.00     0.137 A 
HETATM    4  C   UNK N   1      35.074  13.458  12.377  0.00  0.00     0.140 A 
HETATM    5  C   UNK N   1      34.644  11.824  13.987  0.00  0.00     0.268 A 
HETATM    6 Cl   UNK N   1      37.095  14.499  15.669  0.00  0.00    -0.062 Cl
HETATM    7  F   UNK N   1      34.038  10.675  14.369  0.00  0.00    -0.165 F 
HETATM    8  N   UNK N   1      36.346  15.230  12.621  0.00  0.00    -0.347 N 
ATOM      9  HN  UNK N   1      36.971  15.938  13.007  1.00  0.00     0.167 HD
HETATM   10  N   UNK N   1      35.014  14.088  11.197  0.00  0.00    -0.337 N 
ATOM     11  HN  UNK N   1      34.495  13.812  10.363  1.00  0.00     0.168 HD
HETATM   12  N   UNK N   1      35.448  12.498  14.873  0.00  0.00    -0.307 N 
ATOM     13  HN  UNK N   1      35.582  12.126  15.812  1.00  0.00     0.170 HD
HETATM   14  N   UNK N   1      34.451  12.307  12.721  0.00  0.00    -0.302 N 
HETATM   15  H   UNK N   1      33.876  11.830  12.078  0.00  0.00     0.171 HD
ENDROOT
TORSDOF 0
ENDMDL
