MODEL 1
REMARK VINA RESULT:      -6.5      0.000      0.000
REMARK  4 active torsions:
REMARK  status: ('A' for Active; 'I' for Inactive)
REMARK       I    between atoms: C_2  and  N_4 
REMARK    1  A    between atoms: N_4  and  C_5 
REMARK    2  A    between atoms: C_8  and  C_15 
REMARK    3  A    between atoms: C_10  and  N_11 
REMARK       I    between atoms: N_11  and  C_12 
REMARK       I    between atoms: C_12  and  N_13 
REMARK       I    between atoms: C_12  and  N_14 
REMARK    4  A    between atoms: C_15  and  O_16 
ROOT
HETATM    1  C   UNK N   1      31.707  16.534   6.955  0.00  0.00     0.061 A 
HETATM    2  C   UNK N   1      30.591  16.666   6.117  0.00  0.00     0.033 A 
HETATM    3  C   UNK N   1      29.447  17.347   6.534  0.00  0.00     0.021 A 
HETATM    4  C   UNK N   1      29.394  17.922   7.802  0.00  0.00     0.040 A 
HETATM    5  C   UNK N   1      30.499  17.807   8.653  0.00  0.00     0.050 A 
HETATM    6  C   UNK N   1      31.661  17.125   8.251  0.00  0.00     0.059 A 
ENDROOT
BRANCH   6   7
HETATM    7  N   UNK N   1      32.778  17.083   9.128  0.00  0.00    -0.351 N 
HETATM    8  C   UNK N   1      33.368  15.857   9.618  0.00  0.00     0.275 C 
HETATM    9  N   UNK N   1      32.418  15.128  10.440  0.00  0.00    -0.395 N 
HETATM   10  N   UNK N   1      34.541  16.174  10.412  0.00  0.00    -0.395 N 
HETATM   11  H   UNK N   1      32.351  14.792  11.401  0.00  0.00     0.153 HD
HETATM   12  H   UNK N   1      31.583  14.884   9.907  0.00  0.00     0.153 HD
HETATM   13  H   UNK N   1      34.916  17.123  10.413  0.00  0.00     0.153 HD
HETATM   14  H   UNK N   1      34.991  15.448  10.969  0.00  0.00     0.153 HD
HETATM   15  H   UNK N   1      33.174  17.937   9.418  0.00  0.00     0.163 HD
ENDBRANCH   6   7
BRANCH   1  16
HETATM   16  N   UNK N   1      32.838  15.849   6.406  0.00  0.00    -0.326 N 
HETATM   17  C   UNK N   1      34.054  16.334   6.034  0.00  0.00     0.218 C 
HETATM   18  C   UNK N   1      35.048  15.400   5.435  0.00  0.00     0.117 C 
HETATM   19  O   UNK N   1      34.377  17.489   6.243  0.00  0.00    -0.274 OA
HETATM   20  H   UNK N   1      32.717  14.881   6.278  0.00  0.00     0.169 HD
ENDBRANCH   1  16
BRANCH   4  21
HETATM   21  C   UNK N   1      28.195  18.671   8.229  0.00  0.00     0.176 C 
HETATM   22  O   UNK N   1      27.802  19.628   7.582  0.00  0.00    -0.646 OA
BRANCH  21  23
HETATM   23  O   UNK N   1      27.517  18.291   9.330  0.00  0.00    -0.773 OA
HETATM   24  H   UNK N   1      27.871  18.463  10.181  0.00  0.00     0.167 HD
ENDBRANCH  21  23
ENDBRANCH   4  21
TORSDOF 4
ENDMDL
MODEL 2
REMARK VINA RESULT:      -6.4      2.779      4.991
REMARK  4 active torsions:
REMARK  status: ('A' for Active; 'I' for Inactive)
REMARK       I    between atoms: C_2  and  N_4 
REMARK    1  A    between atoms: N_4  and  C_5 
REMARK    2  A    between atoms: C_8  and  C_15 
REMARK    3  A    between atoms: C_10  and  N_11 
REMARK       I    between atoms: N_11  and  C_12 
REMARK       I    between atoms: C_12  and  N_13 
REMARK       I    between atoms: C_12  and  N_14 
REMARK    4  A    between atoms: C_15  and  O_16 
ROOT
HETATM    1  C   UNK N   1      31.174  17.179   6.084  0.00  0.00     0.061 A 
HETATM    2  C   UNK N   1      32.490  17.200   5.602  0.00  0.00     0.033 A 
HETATM    3  C   UNK N   1      33.563  17.524   6.431  0.00  0.00     0.021 A 
HETATM    4  C   UNK N   1      33.346  17.829   7.774  0.00  0.00     0.040 A 
HETATM    5  C   UNK N   1      32.042  17.809   8.278  0.00  0.00     0.050 A 
HETATM    6  C   UNK N   1      30.947  17.484   7.458  0.00  0.00     0.059 A 
ENDROOT
BRANCH   6   7
HETATM    7  N   UNK N   1      29.647  17.421   8.029  0.00  0.00    -0.351 N 
HETATM    8  C   UNK N   1      29.064  18.485   8.815  0.00  0.00     0.275 C 
HETATM    9  N   UNK N   1      29.827  18.694  10.033  0.00  0.00    -0.395 N 
HETATM   10  N   UNK N   1      27.700  18.130   9.163  0.00  0.00    -0.395 N 
HETATM   11  H   UNK N   1      29.670  18.656  11.041  0.00  0.00     0.153 HD
HETATM   12  H   UNK N   1      30.791  18.952   9.822  0.00  0.00     0.153 HD
HETATM   13  H   UNK N   1      27.253  17.327   8.721  0.00  0.00     0.153 HD
HETATM   14  H   UNK N   1      27.187  18.686   9.847  0.00  0.00     0.153 HD
HETATM   15  H   UNK N   1      29.113  16.607   7.879  0.00  0.00     0.163 HD
ENDBRANCH   6   7
BRANCH   1  16
HETATM   16  N   UNK N   1      30.160  16.794   5.151  0.00  0.00    -0.326 N 
HETATM   17  C   UNK N   1      29.051  17.468   4.742  0.00  0.00     0.218 C 
HETATM   18  C   UNK N   1      28.121  16.808   3.784  0.00  0.00     0.117 C 
HETATM   19  O   UNK N   1      28.837  18.618   5.079  0.00  0.00    -0.274 OA
HETATM   20  H   UNK N   1      30.284  15.906   4.743  0.00  0.00     0.169 HD
ENDBRANCH   1  16
BRANCH   4  21
HETATM   21  C   UNK N   1      34.486  18.139   8.659  0.00  0.00     0.176 C 
HETATM   22  O   UNK N   1      35.233  19.070   8.400  0.00  0.00    -0.646 OA
BRANCH  21  23
HETATM   23  O   UNK N   1      34.700  17.406   9.770  0.00  0.00    -0.773 OA
HETATM   24  H   UNK N   1      35.261  17.732  10.446  0.00  0.00     0.167 HD
ENDBRANCH  21  23
ENDBRANCH   4  21
TORSDOF 4
ENDMDL
MODEL 3
REMARK VINA RESULT:      -6.2     14.662     16.162
REMARK  4 active torsions:
REMARK  status: ('A' for Active; 'I' for Inactive)
REMARK       I    between atoms: C_2  and  N_4 
REMARK    1  A    between atoms: N_4  and  C_5 
REMARK    2  A    between atoms: C_8  and  C_15 
REMARK    3  A    between atoms: C_10  and  N_11 
REMARK       I    between atoms: N_11  and  C_12 
REMARK       I    between atoms: C_12  and  N_13 
REMARK       I    between atoms: C_12  and  N_14 
REMARK    4  A    between atoms: C_15  and  O_16 
ROOT
HETATM    1  C   UNK N   1      25.611  25.259  -5.035  0.00  0.00     0.061 A 
HETATM    2  C   UNK N   1      25.039  26.419  -5.577  0.00  0.00     0.033 A 
HETATM    3  C   UNK N   1      25.288  27.675  -5.028  0.00  0.00     0.021 A 
HETATM    4  C   UNK N   1      26.127  27.806  -3.923  0.00  0.00     0.040 A 
HETATM    5  C   UNK N   1      26.713  26.663  -3.369  0.00  0.00     0.050 A 
HETATM    6  C   UNK N   1      26.474  25.387  -3.908  0.00  0.00     0.059 A 
ENDROOT
BRANCH   6   7
HETATM    7  N   UNK N   1      27.136  24.262  -3.347  0.00  0.00    -0.351 N 
HETATM    8  C   UNK N   1      28.572  24.087  -3.359  0.00  0.00     0.275 C 
HETATM    9  N   UNK N   1      29.058  23.969  -4.723  0.00  0.00    -0.395 N 
HETATM   10  N   UNK N   1      28.914  22.883  -2.626  0.00  0.00    -0.395 N 
HETATM   11  H   UNK N   1      29.557  23.285  -5.291  0.00  0.00     0.153 HD
HETATM   12  H   UNK N   1      28.839  24.806  -5.264  0.00  0.00     0.153 HD
HETATM   13  H   UNK N   1      28.204  22.405  -2.069  0.00  0.00     0.153 HD
HETATM   14  H   UNK N   1      29.864  22.514  -2.664  0.00  0.00     0.153 HD
HETATM   15  H   UNK N   1      26.587  23.562  -2.925  0.00  0.00     0.163 HD
ENDBRANCH   6   7
BRANCH   1  16
HETATM   16  N   UNK N   1      25.315  24.030  -5.706  0.00  0.00    -0.326 N 
HETATM   17  C   UNK N   1      26.017  23.372  -6.669  0.00  0.00     0.218 C 
HETATM   18  C   UNK N   1      25.450  22.119  -7.241  0.00  0.00     0.117 C 
HETATM   19  O   UNK N   1      27.123  23.738  -7.022  0.00  0.00    -0.274 OA
HETATM   20  H   UNK N   1      24.477  23.594  -5.429  0.00  0.00     0.169 HD
ENDBRANCH   1  16
BRANCH   4  21
HETATM   21  C   UNK N   1      26.416  29.142  -3.363  0.00  0.00     0.176 C 
HETATM   22  O   UNK N   1      27.134  29.257  -2.382  0.00  0.00    -0.646 OA
BRANCH  21  23
HETATM   23  O   UNK N   1      25.903  30.244  -3.942  0.00  0.00    -0.773 OA
HETATM   24  H   UNK N   1      25.775  30.270  -4.870  0.00  0.00     0.167 HD
ENDBRANCH  21  23
ENDBRANCH   4  21
TORSDOF 4
ENDMDL
MODEL 4
REMARK VINA RESULT:      -6.1      3.089      5.485
REMARK  4 active torsions:
REMARK  status: ('A' for Active; 'I' for Inactive)
REMARK       I    between atoms: C_2  and  N_4 
REMARK    1  A    between atoms: N_4  and  C_5 
REMARK    2  A    between atoms: C_8  and  C_15 
REMARK    3  A    between atoms: C_10  and  N_11 
REMARK       I    between atoms: N_11  and  C_12 
REMARK       I    between atoms: C_12  and  N_13 
REMARK       I    between atoms: C_12  and  N_14 
REMARK    4  A    between atoms: C_15  and  O_16 
ROOT
HETATM    1  C   UNK N   1      31.196  16.646   6.597  0.00  0.00     0.061 A 
HETATM    2  C   UNK N   1      31.073  17.305   7.828  0.00  0.00     0.033 A 
HETATM    3  C   UNK N   1      32.191  17.775   8.515  0.00  0.00     0.021 A 
HETATM    4  C   UNK N   1      33.467  17.604   7.982  0.00  0.00     0.040 A 
HETATM    5  C   UNK N   1      33.613  16.954   6.752  0.00  0.00     0.050 A 
HETATM    6  C   UNK N   1      32.498  16.474   6.043  0.00  0.00     0.059 A 
ENDROOT
BRANCH   6   7
HETATM    7  N   UNK N   1      32.691  15.871   4.772  0.00  0.00    -0.351 N 
HETATM    8  C   UNK N   1      33.082  16.603   3.587  0.00  0.00     0.275 C 
HETATM    9  N   UNK N   1      32.055  17.563   3.221  0.00  0.00    -0.395 N 
HETATM   10  N   UNK N   1      33.277  15.672   2.492  0.00  0.00    -0.395 N 
HETATM   11  H   UNK N   1      31.445  17.751   2.424  0.00  0.00     0.153 HD
HETATM   12  H   UNK N   1      31.898  18.237   3.970  0.00  0.00     0.153 HD
HETATM   13  H   UNK N   1      33.295  14.668   2.671  0.00  0.00     0.153 HD
HETATM   14  H   UNK N   1      33.399  16.021   1.541  0.00  0.00     0.153 HD
HETATM   15  H   UNK N   1      32.552  14.899   4.692  0.00  0.00     0.163 HD
ENDBRANCH   6   7
BRANCH   1  16
HETATM   16  N   UNK N   1      29.976  16.244   5.966  0.00  0.00    -0.326 N 
HETATM   17  C   UNK N   1      29.153  16.941   5.136  0.00  0.00     0.218 C 
HETATM   18  C   UNK N   1      27.902  16.292   4.653  0.00  0.00     0.117 C 
HETATM   19  O   UNK N   1      29.445  18.048   4.722  0.00  0.00    -0.274 OA
HETATM   20  H   UNK N   1      29.689  15.323   6.162  0.00  0.00     0.169 HD
ENDBRANCH   1  16
BRANCH   4  21
HETATM   21  C   UNK N   1      34.648  18.132   8.694  0.00  0.00     0.176 C 
HETATM   22  O   UNK N   1      35.168  17.485   9.590  0.00  0.00    -0.646 OA
BRANCH  21  23
HETATM   23  O   UNK N   1      35.170  19.325   8.348  0.00  0.00    -0.773 OA
HETATM   24  H   UNK N   1      35.301  19.985   9.000  0.00  0.00     0.167 HD
ENDBRANCH  21  23
ENDBRANCH   4  21
TORSDOF 4
ENDMDL
MODEL 5
REMARK VINA RESULT:      -6.0      1.695      2.054
REMARK  4 active torsions:
REMARK  status: ('A' for Active; 'I' for Inactive)
REMARK       I    between atoms: C_2  and  N_4 
REMARK    1  A    between atoms: N_4  and  C_5 
REMARK    2  A    between atoms: C_8  and  C_15 
REMARK    3  A    between atoms: C_10  and  N_11 
REMARK       I    between atoms: N_11  and  C_12 
REMARK       I    between atoms: C_12  and  N_13 
REMARK       I    between atoms: C_12  and  N_14 
REMARK    4  A    between atoms: C_15  and  O_16 
ROOT
HETATM    1  C   UNK N   1      30.991  16.738   5.988  0.00  0.00     0.061 A 
HETATM    2  C   UNK N   1      29.754  17.381   5.837  0.00  0.00     0.033 A 
HETATM    3  C   UNK N   1      29.046  17.861   6.938  0.00  0.00     0.021 A 
HETATM    4  C   UNK N   1      29.563  17.717   8.223  0.00  0.00     0.040 A 
HETATM    5  C   UNK N   1      30.798  17.084   8.398  0.00  0.00     0.050 A 
HETATM    6  C   UNK N   1      31.528  16.594   7.301  0.00  0.00     0.059 A 
ENDROOT
BRANCH   6   7
HETATM    7  N   UNK N   1      32.804  16.009   7.522  0.00  0.00    -0.351 N 
HETATM    8  C   UNK N   1      33.862  16.651   8.270  0.00  0.00     0.275 C 
HETATM    9  N   UNK N   1      34.291  17.867   7.602  0.00  0.00    -0.395 N 
HETATM   10  N   UNK N   1      34.989  15.743   8.379  0.00  0.00    -0.395 N 
HETATM   11  H   UNK N   1      35.148  18.244   7.195  0.00  0.00     0.153 HD
HETATM   12  H   UNK N   1      33.521  18.530   7.516  0.00  0.00     0.153 HD
HETATM   13  H   UNK N   1      34.887  14.767   8.103  0.00  0.00     0.153 HD
HETATM   14  H   UNK N   1      35.884  16.082   8.734  0.00  0.00     0.153 HD
HETATM   15  H   UNK N   1      32.977  15.116   7.145  0.00  0.00     0.163 HD
ENDBRANCH   6   7
BRANCH   1  16
HETATM   16  N   UNK N   1      31.644  16.323   4.784  0.00  0.00    -0.326 N 
HETATM   17  C   UNK N   1      32.762  16.815   4.185  0.00  0.00     0.218 C 
HETATM   18  C   UNK N   1      33.205  16.222   2.892  0.00  0.00     0.117 C 
HETATM   19  O   UNK N   1      33.448  17.673   4.710  0.00  0.00    -0.274 OA
HETATM   20  H   UNK N   1      31.219  15.566   4.319  0.00  0.00     0.169 HD
ENDBRANCH   1  16
BRANCH   4  21
HETATM   21  C   UNK N   1      28.828  18.256   9.385  0.00  0.00     0.176 C 
HETATM   22  O   UNK N   1      29.433  18.755  10.321  0.00  0.00    -0.646 OA
BRANCH  21  23
HETATM   23  O   UNK N   1      27.481  18.214   9.413  0.00  0.00    -0.773 OA
HETATM   24  H   UNK N   1      27.024  18.359  10.218  0.00  0.00     0.167 HD
ENDBRANCH  21  23
ENDBRANCH   4  21
TORSDOF 4
ENDMDL
MODEL 6
REMARK VINA RESULT:      -5.8      8.254     10.485
REMARK  4 active torsions:
REMARK  status: ('A' for Active; 'I' for Inactive)
REMARK       I    between atoms: C_2  and  N_4 
REMARK    1  A    between atoms: N_4  and  C_5 
REMARK    2  A    between atoms: C_8  and  C_15 
REMARK    3  A    between atoms: C_10  and  N_11 
REMARK       I    between atoms: N_11  and  C_12 
REMARK       I    between atoms: C_12  and  N_13 
REMARK       I    between atoms: C_12  and  N_14 
REMARK    4  A    between atoms: C_15  and  O_16 
ROOT
HETATM    1  C   UNK N   1      35.791  11.130  15.192  0.00  0.00     0.061 A 
HETATM    2  C   UNK N   1      35.246  10.692  16.408  0.00  0.00     0.033 A 
HETATM    3  C   UNK N   1      35.097  11.558  17.490  0.00  0.00     0.021 A 
HETATM    4  C   UNK N   1      35.484  12.893  17.381  0.00  0.00     0.040 A 
HETATM    5  C   UNK N   1      36.025  13.352  16.176  0.00  0.00     0.050 A 
HETATM    6  C   UNK N   1      36.183  12.495  15.073  0.00  0.00     0.059 A 
ENDROOT
BRANCH   6   7
HETATM    7  N   UNK N   1      36.684  13.021  13.852  0.00  0.00    -0.351 N 
HETATM    8  C   UNK N   1      35.931  13.905  12.990  0.00  0.00     0.275 C 
HETATM    9  N   UNK N   1      34.755  13.230  12.471  0.00  0.00    -0.395 N 
HETATM   10  N   UNK N   1      36.770  14.321  11.882  0.00  0.00    -0.395 N 
HETATM   11  H   UNK N   1      34.371  12.971  11.562  0.00  0.00     0.153 HD
HETATM   12  H   UNK N   1      34.140  12.930  13.228  0.00  0.00     0.153 HD
HETATM   13  H   UNK N   1      37.771  14.120  11.894  0.00  0.00     0.153 HD
HETATM   14  H   UNK N   1      36.361  14.817  11.090  0.00  0.00     0.153 HD
HETATM   15  H   UNK N   1      37.596  12.769  13.578  0.00  0.00     0.163 HD
ENDBRANCH   6   7
BRANCH   1  16
HETATM   16  N   UNK N   1      35.858  10.162  14.140  0.00  0.00    -0.326 N 
HETATM   17  C   UNK N   1      34.909   9.786  13.240  0.00  0.00     0.218 C 
HETATM   18  C   UNK N   1      35.229   8.703  12.268  0.00  0.00     0.117 C 
HETATM   19  O   UNK N   1      33.837  10.356  13.160  0.00  0.00    -0.274 OA
HETATM   20  H   UNK N   1      36.722   9.698  14.054  0.00  0.00     0.169 HD
ENDBRANCH   1  16
BRANCH   4  21
HETATM   21  C   UNK N   1      35.295  13.817  18.518  0.00  0.00     0.176 C 
HETATM   22  O   UNK N   1      34.936  13.393  19.605  0.00  0.00    -0.646 OA
BRANCH  21  23
HETATM   23  O   UNK N   1      35.533  15.134  18.365  0.00  0.00    -0.773 OA
HETATM   24  H   UNK N   1      36.390  15.432  18.133  0.00  0.00     0.167 HD
ENDBRANCH  21  23
ENDBRANCH   4  21
TORSDOF 4
ENDMDL
MODEL 7
REMARK VINA RESULT:      -5.8      1.587      3.461
REMARK  4 active torsions:
REMARK  status: ('A' for Active; 'I' for Inactive)
REMARK       I    between atoms: C_2  and  N_4 
REMARK    1  A    between atoms: N_4  and  C_5 
REMARK    2  A    between atoms: C_8  and  C_15 
REMARK    3  A    between atoms: C_10  and  N_11 
REMARK       I    between atoms: N_11  and  C_12 
REMARK       I    between atoms: C_12  and  N_13 
REMARK       I    between atoms: C_12  and  N_14 
REMARK    4  A    between atoms: C_15  and  O_16 
ROOT
HETATM    1  C   UNK N   1      31.814  16.586   7.270  0.00  0.00     0.061 A 
HETATM    2  C   UNK N   1      31.730  17.381   8.421  0.00  0.00     0.033 A 
HETATM    3  C   UNK N   1      30.563  18.073   8.743  0.00  0.00     0.021 A 
HETATM    4  C   UNK N   1      29.442  17.979   7.921  0.00  0.00     0.040 A 
HETATM    5  C   UNK N   1      29.501  17.187   6.770  0.00  0.00     0.050 A 
HETATM    6  C   UNK N   1      30.668  16.481   6.428  0.00  0.00     0.059 A 
ENDROOT
BRANCH   6   7
HETATM    7  N   UNK N   1      30.662  15.645   5.280  0.00  0.00    -0.351 N 
HETATM    8  C   UNK N   1      31.334  15.975   4.043  0.00  0.00     0.275 C 
HETATM    9  N   UNK N   1      30.750  17.165   3.449  0.00  0.00    -0.395 N 
HETATM   10  N   UNK N   1      31.203  14.866   3.116  0.00  0.00    -0.395 N 
HETATM   11  H   UNK N   1      30.281  17.425   2.582  0.00  0.00     0.153 HD
HETATM   12  H   UNK N   1      30.834  17.966   4.075  0.00  0.00     0.153 HD
HETATM   13  H   UNK N   1      30.839  13.970   3.440  0.00  0.00     0.153 HD
HETATM   14  H   UNK N   1      31.475  14.982   2.140  0.00  0.00     0.153 HD
HETATM   15  H   UNK N   1      30.174  14.791   5.330  0.00  0.00     0.163 HD
ENDBRANCH   6   7
BRANCH   1  16
HETATM   16  N   UNK N   1      33.049  15.892   7.063  0.00  0.00    -0.326 N 
HETATM   17  C   UNK N   1      34.196  16.314   6.464  0.00  0.00     0.218 C 
HETATM   18  C   UNK N   1      35.332  15.360   6.336  0.00  0.00     0.117 C 
HETATM   19  O   UNK N   1      34.343  17.465   6.097  0.00  0.00    -0.274 OA
HETATM   20  H   UNK N   1      33.072  14.970   7.407  0.00  0.00     0.169 HD
ENDBRANCH   1  16
BRANCH   4  21
HETATM   21  C   UNK N   1      28.196  18.685   8.280  0.00  0.00     0.176 C 
HETATM   22  O   UNK N   1      27.796  19.617   7.600  0.00  0.00    -0.646 OA
BRANCH  21  23
HETATM   23  O   UNK N   1      27.482  18.295   9.355  0.00  0.00    -0.773 OA
HETATM   24  H   UNK N   1      27.587  18.739  10.173  0.00  0.00     0.167 HD
ENDBRANCH  21  23
ENDBRANCH   4  21
TORSDOF 4
ENDMDL
MODEL 8
REMARK VINA RESULT:      -5.6     13.767     15.436
REMARK  4 active torsions:
REMARK  status: ('A' for Active; 'I' for Inactive)
REMARK       I    between atoms: C_2  and  N_4 
REMARK    1  A    between atoms: N_4  and  C_5 
REMARK    2  A    between atoms: C_8  and  C_15 
REMARK    3  A    between atoms: C_10  and  N_11 
REMARK       I    between atoms: N_11  and  C_12 
REMARK       I    between atoms: C_12  and  N_13 
REMARK       I    between atoms: C_12  and  N_14 
REMARK    4  A    between atoms: C_15  and  O_16 
ROOT
HETATM    1  C   UNK N   1      28.946  22.409  -6.273  0.00  0.00     0.061 A 
HETATM    2  C   UNK N   1      29.712  21.302  -5.880  0.00  0.00     0.033 A 
HETATM    3  C   UNK N   1      30.385  21.280  -4.660  0.00  0.00     0.021 A 
HETATM    4  C   UNK N   1      30.303  22.368  -3.792  0.00  0.00     0.040 A 
HETATM    5  C   UNK N   1      29.540  23.481  -4.161  0.00  0.00     0.050 A 
HETATM    6  C   UNK N   1      28.854  23.522  -5.387  0.00  0.00     0.059 A 
ENDROOT
BRANCH   6   7
HETATM    7  N   UNK N   1      28.046  24.650  -5.693  0.00  0.00    -0.351 N 
HETATM    8  C   UNK N   1      27.039  25.181  -4.801  0.00  0.00     0.275 C 
HETATM    9  N   UNK N   1      25.983  24.207  -4.588  0.00  0.00    -0.395 N 
HETATM   10  N   UNK N   1      26.470  26.382  -5.383  0.00  0.00    -0.395 N 
HETATM   11  H   UNK N   1      24.976  24.138  -4.739  0.00  0.00     0.153 HD
HETATM   12  H   UNK N   1      26.351  23.351  -4.172  0.00  0.00     0.153 HD
HETATM   13  H   UNK N   1      26.904  26.808  -6.202  0.00  0.00     0.153 HD
HETATM   14  H   UNK N   1      25.636  26.803  -4.973  0.00  0.00     0.153 HD
HETATM   15  H   UNK N   1      28.180  25.096  -6.560  0.00  0.00     0.163 HD
ENDBRANCH   6   7
BRANCH   1  16
HETATM   16  N   UNK N   1      28.269  22.301  -7.529  0.00  0.00    -0.326 N 
HETATM   17  C   UNK N   1      26.937  22.215  -7.796  0.00  0.00     0.218 C 
HETATM   18  C   UNK N   1      26.496  22.059  -9.210  0.00  0.00     0.117 C 
HETATM   19  O   UNK N   1      26.097  22.335  -6.923  0.00  0.00    -0.274 OA
HETATM   20  H   UNK N   1      28.855  22.287  -8.319  0.00  0.00     0.169 HD
ENDBRANCH   1  16
BRANCH   4  21
HETATM   21  C   UNK N   1      30.989  22.330  -2.485  0.00  0.00     0.176 C 
HETATM   22  O   UNK N   1      30.601  23.031  -1.564  0.00  0.00    -0.646 OA
BRANCH  21  23
HETATM   23  O   UNK N   1      32.041  21.509  -2.297  0.00  0.00    -0.773 OA
HETATM   24  H   UNK N   1      31.977  20.798  -1.690  0.00  0.00     0.167 HD
ENDBRANCH  21  23
ENDBRANCH   4  21
TORSDOF 4
ENDMDL
MODEL 9
REMARK VINA RESULT:      -5.5     12.415     14.914
REMARK  4 active torsions:
REMARK  status: ('A' for Active; 'I' for Inactive)
REMARK       I    between atoms: C_2  and  N_4 
REMARK    1  A    between atoms: N_4  and  C_5 
REMARK    2  A    between atoms: C_8  and  C_15 
REMARK    3  A    between atoms: C_10  and  N_11 
REMARK       I    between atoms: N_11  and  C_12 
REMARK       I    between atoms: C_12  and  N_13 
REMARK       I    between atoms: C_12  and  N_14 
REMARK    4  A    between atoms: C_15  and  O_16 
ROOT
HETATM    1  C   UNK N   1      44.045  23.225   2.935  0.00  0.00     0.061 A 
HETATM    2  C   UNK N   1      44.475  22.130   3.698  0.00  0.00     0.033 A 
HETATM    3  C   UNK N   1      43.682  20.994   3.849  0.00  0.00     0.021 A 
HETATM    4  C   UNK N   1      42.435  20.920   3.231  0.00  0.00     0.040 A 
HETATM    5  C   UNK N   1      41.988  21.998   2.461  0.00  0.00     0.050 A 
HETATM    6  C   UNK N   1      42.773  23.152   2.296  0.00  0.00     0.059 A 
ENDROOT
BRANCH   6   7
HETATM    7  N   UNK N   1      42.302  24.198   1.458  0.00  0.00    -0.351 N 
HETATM    8  C   UNK N   1      41.901  24.005   0.081  0.00  0.00     0.275 C 
HETATM    9  N   UNK N   1      43.032  23.574  -0.722  0.00  0.00    -0.395 N 
HETATM   10  N   UNK N   1      41.389  25.255  -0.448  0.00  0.00    -0.395 N 
HETATM   11  H   UNK N   1      43.554  23.906  -1.533  0.00  0.00     0.153 HD
HETATM   12  H   UNK N   1      43.411  22.691  -0.378  0.00  0.00     0.153 HD
HETATM   13  H   UNK N   1      41.207  26.040   0.179  0.00  0.00     0.153 HD
HETATM   14  H   UNK N   1      41.210  25.351  -1.448  0.00  0.00     0.153 HD
HETATM   15  H   UNK N   1      42.244  25.106   1.835  0.00  0.00     0.163 HD
ENDBRANCH   6   7
BRANCH   1  16
HETATM   16  N   UNK N   1      44.961  24.319   2.819  0.00  0.00    -0.326 N 
HETATM   17  C   UNK N   1      45.707  24.721   1.754  0.00  0.00     0.218 C 
HETATM   18  C   UNK N   1      46.630  25.879   1.920  0.00  0.00     0.117 C 
HETATM   19  O   UNK N   1      45.589  24.209   0.656  0.00  0.00    -0.274 OA
HETATM   20  H   UNK N   1      45.066  24.863   3.633  0.00  0.00     0.169 HD
ENDBRANCH   1  16
BRANCH   4  21
HETATM   21  C   UNK N   1      41.610  19.702   3.365  0.00  0.00     0.176 C 
HETATM   22  O   UNK N   1      40.492  19.765   3.852  0.00  0.00    -0.646 OA
BRANCH  21  23
HETATM   23  O   UNK N   1      42.081  18.515   2.935  0.00  0.00    -0.773 OA
HETATM   24  H   UNK N   1      42.129  18.336   2.016  0.00  0.00     0.167 HD
ENDBRANCH  21  23
ENDBRANCH   4  21
TORSDOF 4
ENDMDL
