MODEL 1
REMARK VINA RESULT:      -5.3      0.000      0.000
REMARK  4 active torsions:
REMARK  status: ('A' for Active; 'I' for Inactive)
REMARK    1  A    between atoms: C_2  and  O_1 
REMARK    2  A    between atoms: C_2  and  C_3 
REMARK    3  A    between atoms: C_2  and  C_6 
REMARK    4  A    between atoms: C_3  and  O_4 
ROOT
HETATM    1  C   UNK N   1      23.927  12.173  11.702  0.00  0.00     0.248 C 
ENDROOT
BRANCH   1   2
HETATM    2  O   UNK N   1      25.312  12.330  11.623  0.00  0.00    -0.380 OA
HETATM    3  H   UNK N   1      25.693  13.211  11.479  0.00  0.00     0.211 HD
ENDBRANCH   1   2
BRANCH   1   4
HETATM    4  C   UNK N   1      23.330  11.899  13.059  0.00  0.00     0.174 C 
HETATM    5  O   UNK N   1      23.825  12.368  14.064  0.00  0.00    -0.648 OA
BRANCH   4   6
HETATM    6  O   UNK N   1      22.231  11.123  13.161  0.00  0.00    -0.774 OA
HETATM    7  H   UNK N   1      22.262  10.329  13.657  0.00  0.00     0.167 HD
ENDBRANCH   4   6
ENDBRANCH   1   4
BRANCH   1   8
HETATM    8  C   UNK N   1      23.118  12.286  10.435  0.00  0.00    -0.019 A 
HETATM    9  C   UNK N   1      23.498  11.577   9.285  0.00  0.00     0.010 A 
HETATM   10  C   UNK N   1      22.742  11.687   8.112  0.00  0.00     0.001 A 
HETATM   11  C   UNK N   1      21.607  12.502   8.082  0.00  0.00     0.000 A 
HETATM   12  C   UNK N   1      21.225  13.209   9.224  0.00  0.00     0.001 A 
HETATM   13  C   UNK N   1      21.979  13.099  10.393  0.00  0.00     0.010 A 
ENDBRANCH   1   8
TORSDOF 4
ENDMDL
MODEL 2
REMARK VINA RESULT:      -5.3     10.375     11.371
REMARK  4 active torsions:
REMARK  status: ('A' for Active; 'I' for Inactive)
REMARK    1  A    between atoms: C_2  and  O_1 
REMARK    2  A    between atoms: C_2  and  C_3 
REMARK    3  A    between atoms: C_2  and  C_6 
REMARK    4  A    between atoms: C_3  and  O_4 
ROOT
HETATM    1  C   UNK N   1      33.171  17.524   8.559  0.00  0.00     0.248 C 
ENDROOT
BRANCH   1   2
HETATM    2  O   UNK N   1      33.527  16.754   9.668  0.00  0.00    -0.380 OA
HETATM    3  H   UNK N   1      34.458  16.529   9.824  0.00  0.00     0.211 HD
ENDBRANCH   1   2
BRANCH   1   4
HETATM    4  C   UNK N   1      34.276  18.214   7.801  0.00  0.00     0.174 C 
HETATM    5  O   UNK N   1      34.497  17.942   6.638  0.00  0.00    -0.648 OA
BRANCH   4   6
HETATM    6  O   UNK N   1      35.030  19.145   8.420  0.00  0.00    -0.774 OA
HETATM    7  H   UNK N   1      34.976  19.249   9.349  0.00  0.00     0.167 HD
ENDBRANCH   4   6
ENDBRANCH   1   4
BRANCH   1   8
HETATM    8  C   UNK N   1      31.712  17.617   8.190  0.00  0.00    -0.019 A 
HETATM    9  C   UNK N   1      31.215  16.918   7.080  0.00  0.00     0.010 A 
HETATM   10  C   UNK N   1      29.859  17.010   6.743  0.00  0.00     0.001 A 
HETATM   11  C   UNK N   1      28.996  17.798   7.511  0.00  0.00     0.000 A 
HETATM   12  C   UNK N   1      29.488  18.494   8.617  0.00  0.00     0.001 A 
HETATM   13  C   UNK N   1      30.839  18.403   8.952  0.00  0.00     0.010 A 
ENDBRANCH   1   8
TORSDOF 4
ENDMDL
MODEL 3
REMARK VINA RESULT:      -5.2     13.377     14.670
REMARK  4 active torsions:
REMARK  status: ('A' for Active; 'I' for Inactive)
REMARK    1  A    between atoms: C_2  and  O_1 
REMARK    2  A    between atoms: C_2  and  C_3 
REMARK    3  A    between atoms: C_2  and  C_6 
REMARK    4  A    between atoms: C_3  and  O_4 
ROOT
HETATM    1  C   UNK N   1      35.583  13.345  15.394  0.00  0.00     0.248 C 
ENDROOT
BRANCH   1   2
HETATM    2  O   UNK N   1      34.557  13.062  14.490  0.00  0.00    -0.380 OA
HETATM    3  H   UNK N   1      34.264  12.146  14.360  0.00  0.00     0.211 HD
ENDBRANCH   1   2
BRANCH   1   4
HETATM    4  C   UNK N   1      36.702  14.241  14.925  0.00  0.00     0.174 C 
HETATM    5  O   UNK N   1      37.517  14.683  15.711  0.00  0.00    -0.648 OA
BRANCH   4   6
HETATM    6  O   UNK N   1      36.801  14.557  13.618  0.00  0.00    -0.774 OA
HETATM    7  H   UNK N   1      37.090  13.914  13.001  0.00  0.00     0.167 HD
ENDBRANCH   4   6
ENDBRANCH   1   4
BRANCH   1   8
HETATM    8  C   UNK N   1      35.511  12.742  16.774  0.00  0.00    -0.019 A 
HETATM    9  C   UNK N   1      35.779  11.378  16.967  0.00  0.00     0.010 A 
HETATM   10  C   UNK N   1      35.710  10.825  18.251  0.00  0.00     0.001 A 
HETATM   11  C   UNK N   1      35.375  11.629  19.345  0.00  0.00     0.000 A 
HETATM   12  C   UNK N   1      35.107  12.986  19.156  0.00  0.00     0.001 A 
HETATM   13  C   UNK N   1      35.176  13.537  17.876  0.00  0.00     0.010 A 
ENDBRANCH   1   8
TORSDOF 4
ENDMDL
MODEL 4
REMARK VINA RESULT:      -5.2     11.399     12.346
REMARK  4 active torsions:
REMARK  status: ('A' for Active; 'I' for Inactive)
REMARK    1  A    between atoms: C_2  and  O_1 
REMARK    2  A    between atoms: C_2  and  C_3 
REMARK    3  A    between atoms: C_2  and  C_6 
REMARK    4  A    between atoms: C_3  and  O_4 
ROOT
HETATM    1  C   UNK N   1      34.537  17.887   8.502  0.00  0.00     0.248 C 
ENDROOT
BRANCH   1   2
HETATM    2  O   UNK N   1      35.202  19.115   8.471  0.00  0.00    -0.380 OA
HETATM    3  H   UNK N   1      35.393  19.543   7.622  0.00  0.00     0.211 HD
ENDBRANCH   1   2
BRANCH   1   4
HETATM    4  C   UNK N   1      34.962  16.886   9.545  0.00  0.00     0.174 C 
HETATM    5  O   UNK N   1      35.280  15.756   9.231  0.00  0.00    -0.648 OA
BRANCH   4   6
HETATM    6  O   UNK N   1      34.992  17.247  10.844  0.00  0.00    -0.774 OA
HETATM    7  H   UNK N   1      35.106  16.596  11.509  0.00  0.00     0.167 HD
ENDBRANCH   4   6
ENDBRANCH   1   4
BRANCH   1   8
HETATM    8  C   UNK N   1      33.441  17.640   7.496  0.00  0.00    -0.019 A 
HETATM    9  C   UNK N   1      32.110  17.497   7.917  0.00  0.00     0.010 A 
HETATM   10  C   UNK N   1      31.098  17.267   6.978  0.00  0.00     0.001 A 
HETATM   11  C   UNK N   1      31.409  17.180   5.618  0.00  0.00     0.000 A 
HETATM   12  C   UNK N   1      32.732  17.321   5.195  0.00  0.00     0.001 A 
HETATM   13  C   UNK N   1      33.741  17.550   6.131  0.00  0.00     0.010 A 
ENDBRANCH   1   8
TORSDOF 4
ENDMDL
MODEL 5
REMARK VINA RESULT:      -5.1     10.728     11.721
REMARK  4 active torsions:
REMARK  status: ('A' for Active; 'I' for Inactive)
REMARK    1  A    between atoms: C_2  and  O_1 
REMARK    2  A    between atoms: C_2  and  C_3 
REMARK    3  A    between atoms: C_2  and  C_6 
REMARK    4  A    between atoms: C_3  and  O_4 
ROOT
HETATM    1  C   UNK N   1      33.705  17.852   7.369  0.00  0.00     0.248 C 
ENDROOT
BRANCH   1   2
HETATM    2  O   UNK N   1      34.321  17.741   6.121  0.00  0.00    -0.380 OA
HETATM    3  H   UNK N   1      35.256  17.490   6.061  0.00  0.00     0.211 HD
ENDBRANCH   1   2
BRANCH   1   4
HETATM    4  C   UNK N   1      34.574  18.201   8.551  0.00  0.00     0.174 C 
HETATM    5  O   UNK N   1      35.297  19.177   8.525  0.00  0.00    -0.648 OA
BRANCH   4   6
HETATM    6  O   UNK N   1      34.550  17.422   9.651  0.00  0.00    -0.774 OA
HETATM    7  H   UNK N   1      33.835  16.833   9.792  0.00  0.00     0.167 HD
ENDBRANCH   4   6
ENDBRANCH   1   4
BRANCH   1   8
HETATM    8  C   UNK N   1      32.218  17.617   7.460  0.00  0.00    -0.019 A 
HETATM    9  C   UNK N   1      31.487  18.111   8.550  0.00  0.00     0.010 A 
HETATM   10  C   UNK N   1      30.107  17.889   8.628  0.00  0.00     0.001 A 
HETATM   11  C   UNK N   1      29.453  17.175   7.619  0.00  0.00     0.000 A 
HETATM   12  C   UNK N   1      30.178  16.682   6.533  0.00  0.00     0.001 A 
HETATM   13  C   UNK N   1      31.553  16.903   6.456  0.00  0.00     0.010 A 
ENDBRANCH   1   8
TORSDOF 4
ENDMDL
MODEL 6
REMARK VINA RESULT:      -5.1     10.636     12.009
REMARK  4 active torsions:
REMARK  status: ('A' for Active; 'I' for Inactive)
REMARK    1  A    between atoms: C_2  and  O_1 
REMARK    2  A    between atoms: C_2  and  C_3 
REMARK    3  A    between atoms: C_2  and  C_6 
REMARK    4  A    between atoms: C_3  and  O_4 
ROOT
HETATM    1  C   UNK N   1      21.491  20.555   2.425  0.00  0.00     0.248 C 
ENDROOT
BRANCH   1   2
HETATM    2  O   UNK N   1      20.754  21.510   3.128  0.00  0.00    -0.380 OA
HETATM    3  H   UNK N   1      20.681  21.452   4.094  0.00  0.00     0.211 HD
ENDBRANCH   1   2
BRANCH   1   4
HETATM    4  C   UNK N   1      20.974  20.125   1.075  0.00  0.00     0.174 C 
HETATM    5  O   UNK N   1      21.158  20.811   0.090  0.00  0.00    -0.648 OA
BRANCH   4   6
HETATM    6  O   UNK N   1      20.298  18.963   0.959  0.00  0.00    -0.774 OA
HETATM    7  H   UNK N   1      19.366  18.952   1.055  0.00  0.00     0.167 HD
ENDBRANCH   4   6
ENDBRANCH   1   4
BRANCH   1   8
HETATM    8  C   UNK N   1      22.751  20.016   3.053  0.00  0.00    -0.019 A 
HETATM    9  C   UNK N   1      22.706  18.870   3.862  0.00  0.00     0.010 A 
HETATM   10  C   UNK N   1      23.880  18.375   4.442  0.00  0.00     0.001 A 
HETATM   11  C   UNK N   1      25.100  19.020   4.218  0.00  0.00     0.000 A 
HETATM   12  C   UNK N   1      25.148  20.160   3.414  0.00  0.00     0.001 A 
HETATM   13  C   UNK N   1      23.978  20.654   2.836  0.00  0.00     0.010 A 
ENDBRANCH   1   8
TORSDOF 4
ENDMDL
MODEL 7
REMARK VINA RESULT:      -5.0     13.360     14.577
REMARK  4 active torsions:
REMARK  status: ('A' for Active; 'I' for Inactive)
REMARK    1  A    between atoms: C_2  and  O_1 
REMARK    2  A    between atoms: C_2  and  C_3 
REMARK    3  A    between atoms: C_2  and  C_6 
REMARK    4  A    between atoms: C_3  and  O_4 
ROOT
HETATM    1  C   UNK N   1      36.576  13.998  15.117  0.00  0.00     0.248 C 
ENDROOT
BRANCH   1   2
HETATM    2  O   UNK N   1      37.642  14.850  15.408  0.00  0.00    -0.380 OA
HETATM    3  H   UNK N   1      37.549  15.807  15.276  0.00  0.00     0.211 HD
ENDBRANCH   1   2
BRANCH   1   4
HETATM    4  C   UNK N   1      35.960  14.088  13.744  0.00  0.00     0.174 C 
HETATM    5  O   UNK N   1      34.875  13.593  13.514  0.00  0.00    -0.648 OA
BRANCH   4   6
HETATM    6  O   UNK N   1      36.621  14.726  12.757  0.00  0.00    -0.774 OA
HETATM    7  H   UNK N   1      37.317  15.318  12.965  0.00  0.00     0.167 HD
ENDBRANCH   4   6
ENDBRANCH   1   4
BRANCH   1   8
HETATM    8  C   UNK N   1      36.107  13.044  16.188  0.00  0.00    -0.019 A 
HETATM    9  C   UNK N   1      35.465  13.528  17.337  0.00  0.00     0.010 A 
HETATM   10  C   UNK N   1      35.032  12.637  18.327  0.00  0.00     0.001 A 
HETATM   11  C   UNK N   1      35.240  11.263  18.173  0.00  0.00     0.000 A 
HETATM   12  C   UNK N   1      35.879  10.778  17.031  0.00  0.00     0.001 A 
HETATM   13  C   UNK N   1      36.309  11.666  16.045  0.00  0.00     0.010 A 
ENDBRANCH   1   8
TORSDOF 4
ENDMDL
MODEL 8
REMARK VINA RESULT:      -5.0      9.013      9.594
REMARK  4 active torsions:
REMARK  status: ('A' for Active; 'I' for Inactive)
REMARK    1  A    between atoms: C_2  and  O_1 
REMARK    2  A    between atoms: C_2  and  C_3 
REMARK    3  A    between atoms: C_2  and  C_6 
REMARK    4  A    between atoms: C_3  and  O_4 
ROOT
HETATM    1  C   UNK N   1      28.403  18.559   8.553  0.00  0.00     0.248 C 
ENDROOT
BRANCH   1   2
HETATM    2  O   UNK N   1      27.308  18.092   9.283  0.00  0.00    -0.380 OA
HETATM    3  H   UNK N   1      27.434  17.751  10.183  0.00  0.00     0.211 HD
ENDBRANCH   1   2
BRANCH   1   4
HETATM    4  C   UNK N   1      29.749  18.561   9.232  0.00  0.00     0.174 C 
HETATM    5  O   UNK N   1      30.759  18.296   8.612  0.00  0.00    -0.648 OA
BRANCH   4   6
HETATM    6  O   UNK N   1      29.834  18.861  10.544  0.00  0.00    -0.774 OA
HETATM    7  H   UNK N   1      30.373  19.573  10.828  0.00  0.00     0.167 HD
ENDBRANCH   4   6
ENDBRANCH   1   4
BRANCH   1   8
HETATM    8  C   UNK N   1      28.173  19.030   7.139  0.00  0.00    -0.019 A 
HETATM    9  C   UNK N   1      28.522  18.212   6.054  0.00  0.00     0.010 A 
HETATM   10  C   UNK N   1      28.307  18.656   4.743  0.00  0.00     0.001 A 
HETATM   11  C   UNK N   1      27.743  19.914   4.512  0.00  0.00     0.000 A 
HETATM   12  C   UNK N   1      27.395  20.731   5.590  0.00  0.00     0.001 A 
HETATM   13  C   UNK N   1      27.610  20.288   6.895  0.00  0.00     0.010 A 
ENDBRANCH   1   8
TORSDOF 4
ENDMDL
MODEL 9
REMARK VINA RESULT:      -4.9     12.268     13.738
REMARK  4 active torsions:
REMARK  status: ('A' for Active; 'I' for Inactive)
REMARK    1  A    between atoms: C_2  and  O_1 
REMARK    2  A    between atoms: C_2  and  C_3 
REMARK    3  A    between atoms: C_2  and  C_6 
REMARK    4  A    between atoms: C_3  and  O_4 
ROOT
HETATM    1  C   UNK N   1      34.993  15.006  11.644  0.00  0.00     0.248 C 
ENDROOT
BRANCH   1   2
HETATM    2  O   UNK N   1      33.632  14.894  11.351  0.00  0.00    -0.380 OA
HETATM    3  H   UNK N   1      33.280  14.067  10.985  0.00  0.00     0.211 HD
ENDBRANCH   1   2
BRANCH   1   4
HETATM    4  C   UNK N   1      35.750  16.156  11.031  0.00  0.00     0.174 C 
HETATM    5  O   UNK N   1      35.182  17.188  10.735  0.00  0.00    -0.648 OA
BRANCH   4   6
HETATM    6  O   UNK N   1      37.074  16.039  10.807  0.00  0.00    -0.774 OA
HETATM    7  H   UNK N   1      37.431  16.276   9.973  0.00  0.00     0.167 HD
ENDBRANCH   4   6
ENDBRANCH   1   4
BRANCH   1   8
HETATM    8  C   UNK N   1      35.618  13.976  12.551  0.00  0.00    -0.019 A 
HETATM    9  C   UNK N   1      35.674  12.629  12.162  0.00  0.00     0.010 A 
HETATM   10  C   UNK N   1      36.256  11.678  13.009  0.00  0.00     0.001 A 
HETATM   11  C   UNK N   1      36.784  12.067  14.244  0.00  0.00     0.000 A 
HETATM   12  C   UNK N   1      36.730  13.407  14.633  0.00  0.00     0.001 A 
HETATM   13  C   UNK N   1      36.150  14.354  13.789  0.00  0.00     0.010 A 
ENDBRANCH   1   8
TORSDOF 4
ENDMDL
