MODEL 1
REMARK VINA RESULT:      -7.7      0.000      0.000
REMARK  14 active torsions:
REMARK  status: ('A' for Active; 'I' for Inactive)
REMARK    1  A    between atoms: C_18  and  C_12 
REMARK    2  A    between atoms: N_30  and  C_12 
REMARK    3  A    between atoms: C_19  and  C_13 
REMARK    4  A    between atoms: C_20  and  C_14 
REMARK    5  A    between atoms: C_22  and  C_15 
REMARK    6  A    between atoms: C_23  and  C_16 
REMARK    7  A    between atoms: C_17  and  C_24 
REMARK    8  A    between atoms: O_36  and  C_18 
REMARK    9  A    between atoms: C_21  and  C_19 
REMARK   10  A    between atoms: C_19  and  N_31 
REMARK   11  A    between atoms: C_25  and  C_20 
REMARK   12  A    between atoms: C_20  and  N_33 
REMARK   13  A    between atoms: C_26  and  C_21 
REMARK       I    between atoms: N_30  and  C_22 
REMARK       I    between atoms: N_33  and  C_23 
REMARK   14  A    between atoms: C_24  and  O_40 
REMARK       I    between atoms: N_34  and  C_25 
ROOT
HETATM    1  C   UNK N   1      26.729  17.860   4.727  0.00  0.00     0.180 C 
ENDROOT
BRANCH   1   2
HETATM    2  C   UNK N   1      26.442  19.122   3.875  0.00  0.00     0.009 C 
HETATM    3  C   UNK N   1      25.110  19.773   4.216  0.00  0.00     0.012 C 
HETATM    4  C   UNK N   1      27.540  20.161   4.007  0.00  0.00     0.012 C 
ENDBRANCH   1   2
BRANCH   1   5
HETATM    5  C   UNK N   1      26.548  16.618   3.867  0.00  0.00     0.243 C 
HETATM    6  N   UNK N   1      25.335  15.987   3.755  0.00  0.00    -0.338 N 
HETATM    7  C   UNK N   1      25.142  14.941   2.783  0.00  0.00     0.127 C 
HETATM    8  C   UNK N   1      24.125  16.369   4.447  0.00  0.00     0.161 C 
HETATM    9  C   UNK N   1      23.661  14.607   2.849  0.00  0.00     0.022 C 
HETATM   10  C   UNK N   1      23.018  15.769   3.593  0.00  0.00     0.035 C 
HETATM   11  O   UNK N   1      27.484  16.242   3.178  0.00  0.00    -0.271 OA
BRANCH   8  12
HETATM   12  C   UNK N   1      24.066  15.757   5.822  0.00  0.00     0.135 C 
HETATM   13  N   UNK N   1      22.970  15.184   6.202  0.00  0.00    -0.361 N 
ATOM     14  HN  UNK N   1      22.237  15.114   5.497  1.00  0.00     0.162 HD
BRANCH  13  15
HETATM   15  C   UNK N   1      22.648  14.625   7.510  0.00  0.00     0.166 C 
BRANCH  15  16
HETATM   16  C   UNK N   1      21.205  14.911   7.987  0.00  0.00     0.008 C 
HETATM   17  C   UNK N   1      20.976  14.445   9.414  0.00  0.00     0.012 C 
HETATM   18  C   UNK N   1      20.726  16.342   7.819  0.00  0.00     0.012 C 
ENDBRANCH  15  16
BRANCH  15  19
HETATM   19  C   UNK N   1      23.047  13.162   7.617  0.00  0.00     0.255 C 
HETATM   20  O   UNK N   1      22.454  12.315   6.964  0.00  0.00    -0.286 OA
BRANCH  19  21
HETATM   21  C   UNK N   1      24.216  12.731   8.462  0.00  0.00     0.453 C 
HETATM   22  F   UNK N   1      24.112  11.384   8.750  0.00  0.00    -0.163 F 
HETATM   23  F   UNK N   1      24.273  13.444   9.647  0.00  0.00    -0.163 F 
HETATM   24  F   UNK N   1      25.385  12.955   7.756  0.00  0.00    -0.163 F 
ENDBRANCH  19  21
ENDBRANCH  15  19
ENDBRANCH  13  15
BRANCH  12  25
HETATM   25  O   UNK N   1      25.124  15.877   6.649  0.00  0.00    -0.348 OA
HETATM   26  H   UNK N   1      25.690  15.608   7.345  0.00  0.00     0.219 HD
ENDBRANCH  12  25
ENDBRANCH   8  12
ENDBRANCH   1   5
BRANCH   1  27
HETATM   27  N   UNK N   1      28.070  17.915   5.299  0.00  0.00    -0.343 N 
HETATM   28  C   UNK N   1      28.401  17.423   6.529  0.00  0.00     0.252 C 
HETATM   29  O   UNK N   1      27.549  16.908   7.242  0.00  0.00    -0.268 OA
HETATM   30  H   UNK N   1      28.783  18.333   4.764  0.00  0.00     0.163 HD
BRANCH  28  31
HETATM   31  C   UNK N   1      29.811  17.392   6.956  0.00  0.00     0.032 A 
HETATM   32  C   UNK N   1      30.792  16.902   6.083  0.00  0.00     0.018 A 
HETATM   33  C   UNK N   1      32.143  16.970   6.428  0.00  0.00     0.018 A 
HETATM   34  C   UNK N   1      32.533  17.484   7.673  0.00  0.00     0.032 A 
HETATM   35  C   UNK N   1      31.545  17.946   8.557  0.00  0.00     0.018 A 
HETATM   36  C   UNK N   1      30.196  17.921   8.193  0.00  0.00     0.018 A 
BRANCH  34  37
HETATM   37  C   UNK N   1      33.983  17.601   7.997  0.00  0.00     0.252 C 
HETATM   38  N   UNK N   1      34.597  16.825   8.931  0.00  0.00    -0.347 N 
HETATM   39  H   UNK N   1      35.509  17.071   9.211  0.00  0.00     0.163 HD
HETATM   40  O   UNK N   1      34.652  18.424   7.392  0.00  0.00    -0.268 OA
BRANCH  38  41
HETATM   41  C   UNK N   1      33.992  15.662   9.538  0.00  0.00     0.232 C 
BRANCH  41  42
HETATM   42  C   UNK N   1      34.501  15.428  10.918  0.00  0.00     0.158 C 
HETATM   43  O   UNK N   1      35.325  16.182  11.407  0.00  0.00    -0.649 OA
BRANCH  42  44
HETATM   44  O   UNK N   1      34.085  14.348  11.605  0.00  0.00    -0.775 OA
HETATM   45  H   UNK N   1      33.499  14.418  12.332  0.00  0.00     0.167 HD
ENDBRANCH  42  44
ENDBRANCH  41  42
ENDBRANCH  38  41
ENDBRANCH  34  37
ENDBRANCH  28  31
ENDBRANCH   1  27
TORSDOF 14
ENDMDL
MODEL 2
REMARK VINA RESULT:      -7.6      3.170      5.058
REMARK  14 active torsions:
REMARK  status: ('A' for Active; 'I' for Inactive)
REMARK    1  A    between atoms: C_18  and  C_12 
REMARK    2  A    between atoms: N_30  and  C_12 
REMARK    3  A    between atoms: C_19  and  C_13 
REMARK    4  A    between atoms: C_20  and  C_14 
REMARK    5  A    between atoms: C_22  and  C_15 
REMARK    6  A    between atoms: C_23  and  C_16 
REMARK    7  A    between atoms: C_17  and  C_24 
REMARK    8  A    between atoms: O_36  and  C_18 
REMARK    9  A    between atoms: C_21  and  C_19 
REMARK   10  A    between atoms: C_19  and  N_31 
REMARK   11  A    between atoms: C_25  and  C_20 
REMARK   12  A    between atoms: C_20  and  N_33 
REMARK   13  A    between atoms: C_26  and  C_21 
REMARK       I    between atoms: N_30  and  C_22 
REMARK       I    between atoms: N_33  and  C_23 
REMARK   14  A    between atoms: C_24  and  O_40 
REMARK       I    between atoms: N_34  and  C_25 
ROOT
HETATM    1  C   UNK N   1      27.123  16.092   5.291  0.00  0.00     0.180 C 
ENDROOT
BRANCH   1   2
HETATM    2  C   UNK N   1      27.159  15.189   4.032  0.00  0.00     0.009 C 
HETATM    3  C   UNK N   1      27.213  15.984   2.737  0.00  0.00     0.012 C 
HETATM    4  C   UNK N   1      28.328  14.220   4.059  0.00  0.00     0.012 C 
ENDBRANCH   1   2
BRANCH   1   5
HETATM    5  C   UNK N   1      26.112  15.537   6.283  0.00  0.00     0.243 C 
HETATM    6  N   UNK N   1      24.768  15.513   6.011  0.00  0.00    -0.338 N 
HETATM    7  C   UNK N   1      23.859  14.803   6.873  0.00  0.00     0.127 C 
HETATM    8  C   UNK N   1      24.147  16.037   4.816  0.00  0.00     0.161 C 
HETATM    9  C   UNK N   1      22.513  14.871   6.173  0.00  0.00     0.022 C 
HETATM   10  C   UNK N   1      22.823  15.292   4.742  0.00  0.00     0.035 C 
HETATM   11  O   UNK N   1      26.526  15.001   7.300  0.00  0.00    -0.271 OA
BRANCH   8  12
HETATM   12  C   UNK N   1      23.871  17.512   4.945  0.00  0.00     0.135 C 
HETATM   13  N   UNK N   1      24.379  18.320   4.071  0.00  0.00    -0.361 N 
ATOM     14  HN  UNK N   1      24.873  17.881   3.294  1.00  0.00     0.162 HD
BRANCH  13  15
HETATM   15  C   UNK N   1      24.337  19.777   4.053  0.00  0.00     0.166 C 
BRANCH  15  16
HETATM   16  C   UNK N   1      25.721  20.455   4.173  0.00  0.00     0.008 C 
HETATM   17  C   UNK N   1      26.091  20.742   5.617  0.00  0.00     0.012 C 
HETATM   18  C   UNK N   1      26.866  19.748   3.469  0.00  0.00     0.012 C 
ENDBRANCH  15  16
BRANCH  15  19
HETATM   19  C   UNK N   1      23.494  20.308   2.905  0.00  0.00     0.255 C 
HETATM   20  O   UNK N   1      24.033  20.815   1.932  0.00  0.00    -0.286 OA
BRANCH  19  21
HETATM   21  C   UNK N   1      21.996  20.161   2.904  0.00  0.00     0.453 C 
HETATM   22  F   UNK N   1      21.623  19.200   1.984  0.00  0.00    -0.163 F 
HETATM   23  F   UNK N   1      21.370  21.355   2.591  0.00  0.00    -0.163 F 
HETATM   24  F   UNK N   1      21.584  19.764   4.164  0.00  0.00    -0.163 F 
ENDBRANCH  19  21
ENDBRANCH  15  19
ENDBRANCH  13  15
BRANCH  12  25
HETATM   25  O   UNK N   1      23.162  17.966   5.998  0.00  0.00    -0.348 OA
HETATM   26  H   UNK N   1      22.957  18.570   6.684  0.00  0.00     0.219 HD
ENDBRANCH  12  25
ENDBRANCH   8  12
ENDBRANCH   1   5
BRANCH   1  27
HETATM   27  N   UNK N   1      28.448  16.200   5.891  0.00  0.00    -0.343 N 
HETATM   28  C   UNK N   1      29.355  17.173   5.582  0.00  0.00     0.252 C 
HETATM   29  O   UNK N   1      29.091  18.023   4.740  0.00  0.00    -0.268 OA
HETATM   30  H   UNK N   1      28.705  15.528   6.563  0.00  0.00     0.163 HD
BRANCH  28  31
HETATM   31  C   UNK N   1      30.608  17.284   6.349  0.00  0.00     0.032 A 
HETATM   32  C   UNK N   1      31.840  17.183   5.688  0.00  0.00     0.018 A 
HETATM   33  C   UNK N   1      33.032  17.398   6.380  0.00  0.00     0.018 A 
HETATM   34  C   UNK N   1      33.017  17.668   7.756  0.00  0.00     0.032 A 
HETATM   35  C   UNK N   1      31.782  17.739   8.420  0.00  0.00     0.018 A 
HETATM   36  C   UNK N   1      30.586  17.571   7.718  0.00  0.00     0.018 A 
BRANCH  34  37
HETATM   37  C   UNK N   1      34.298  17.952   8.463  0.00  0.00     0.252 C 
HETATM   38  N   UNK N   1      34.919  17.042   9.262  0.00  0.00    -0.347 N 
HETATM   39  H   UNK N   1      35.664  17.352   9.825  0.00  0.00     0.163 HD
HETATM   40  O   UNK N   1      34.818  19.046   8.313  0.00  0.00    -0.268 OA
BRANCH  38  41
HETATM   41  C   UNK N   1      34.550  15.646   9.332  0.00  0.00     0.232 C 
BRANCH  41  42
HETATM   42  C   UNK N   1      34.160  15.245  10.713  0.00  0.00     0.158 C 
HETATM   43  O   UNK N   1      35.009  15.107  11.577  0.00  0.00    -0.649 OA
BRANCH  42  44
HETATM   44  O   UNK N   1      32.868  14.986  10.989  0.00  0.00    -0.775 OA
HETATM   45  H   UNK N   1      32.358  15.544  11.541  0.00  0.00     0.167 HD
ENDBRANCH  42  44
ENDBRANCH  41  42
ENDBRANCH  38  41
ENDBRANCH  34  37
ENDBRANCH  28  31
ENDBRANCH   1  27
TORSDOF 14
ENDMDL
MODEL 3
REMARK VINA RESULT:      -7.6      1.975      2.511
REMARK  14 active torsions:
REMARK  status: ('A' for Active; 'I' for Inactive)
REMARK    1  A    between atoms: C_18  and  C_12 
REMARK    2  A    between atoms: N_30  and  C_12 
REMARK    3  A    between atoms: C_19  and  C_13 
REMARK    4  A    between atoms: C_20  and  C_14 
REMARK    5  A    between atoms: C_22  and  C_15 
REMARK    6  A    between atoms: C_23  and  C_16 
REMARK    7  A    between atoms: C_17  and  C_24 
REMARK    8  A    between atoms: O_36  and  C_18 
REMARK    9  A    between atoms: C_21  and  C_19 
REMARK   10  A    between atoms: C_19  and  N_31 
REMARK   11  A    between atoms: C_25  and  C_20 
REMARK   12  A    between atoms: C_20  and  N_33 
REMARK   13  A    between atoms: C_26  and  C_21 
REMARK       I    between atoms: N_30  and  C_22 
REMARK       I    between atoms: N_33  and  C_23 
REMARK   14  A    between atoms: C_24  and  O_40 
REMARK       I    between atoms: N_34  and  C_25 
ROOT
HETATM    1  C   UNK N   1      27.597  15.492   4.897  0.00  0.00     0.180 C 
ENDROOT
BRANCH   1   2
HETATM    2  C   UNK N   1      27.309  15.907   3.433  0.00  0.00     0.009 C 
HETATM    3  C   UNK N   1      26.555  17.224   3.330  0.00  0.00     0.012 C 
HETATM    4  C   UNK N   1      28.579  16.006   2.607  0.00  0.00     0.012 C 
ENDBRANCH   1   2
BRANCH   1   5
HETATM    5  C   UNK N   1      27.592  13.975   5.004  0.00  0.00     0.243 C 
HETATM    6  N   UNK N   1      26.427  13.262   5.131  0.00  0.00    -0.338 N 
HETATM    7  C   UNK N   1      26.433  11.826   5.026  0.00  0.00     0.127 C 
HETATM    8  C   UNK N   1      25.103  13.833   5.227  0.00  0.00     0.161 C 
HETATM    9  C   UNK N   1      24.969  11.420   5.060  0.00  0.00     0.022 C 
HETATM   10  C   UNK N   1      24.189  12.699   4.788  0.00  0.00     0.035 C 
HETATM   11  O   UNK N   1      28.648  13.376   4.864  0.00  0.00    -0.271 OA
BRANCH   8  12
HETATM   12  C   UNK N   1      24.770  14.206   6.649  0.00  0.00     0.135 C 
HETATM   13  N   UNK N   1      23.932  13.470   7.305  0.00  0.00    -0.361 N 
ATOM     14  HN  UNK N   1      23.612  12.626   6.829  1.00  0.00     0.162 HD
BRANCH  13  15
HETATM   15  C   UNK N   1      23.384  13.692   8.638  0.00  0.00     0.166 C 
BRANCH  15  16
HETATM   16  C   UNK N   1      21.895  13.305   8.787  0.00  0.00     0.008 C 
HETATM   17  C   UNK N   1      21.055  14.464   9.296  0.00  0.00     0.012 C 
HETATM   18  C   UNK N   1      21.247  12.688   7.560  0.00  0.00     0.012 C 
ENDBRANCH  15  16
BRANCH  15  19
HETATM   19  C   UNK N   1      24.277  13.113   9.723  0.00  0.00     0.255 C 
HETATM   20  O   UNK N   1      25.432  13.497   9.837  0.00  0.00    -0.286 OA
BRANCH  19  21
HETATM   21  C   UNK N   1      23.747  12.116  10.720  0.00  0.00     0.453 C 
HETATM   22  F   UNK N   1      23.193  11.041  10.054  0.00  0.00    -0.163 F 
HETATM   23  F   UNK N   1      22.789  12.683  11.541  0.00  0.00    -0.163 F 
HETATM   24  F   UNK N   1      24.794  11.671  11.506  0.00  0.00    -0.163 F 
ENDBRANCH  19  21
ENDBRANCH  15  19
ENDBRANCH  13  15
BRANCH  12  25
HETATM   25  O   UNK N   1      25.295  15.326   7.183  0.00  0.00    -0.348 OA
HETATM   26  H   UNK N   1      25.946  15.992   7.283  0.00  0.00     0.219 HD
ENDBRANCH  12  25
ENDBRANCH   8  12
ENDBRANCH   1   5
BRANCH   1  27
HETATM   27  N   UNK N   1      28.865  16.050   5.354  0.00  0.00    -0.343 N 
HETATM   28  C   UNK N   1      29.011  16.804   6.483  0.00  0.00     0.252 C 
HETATM   29  O   UNK N   1      28.041  17.072   7.181  0.00  0.00    -0.268 OA
HETATM   30  H   UNK N   1      29.669  15.870   4.814  0.00  0.00     0.163 HD
BRANCH  28  31
HETATM   31  C   UNK N   1      30.357  17.196   6.940  0.00  0.00     0.032 A 
HETATM   32  C   UNK N   1      30.533  17.692   8.240  0.00  0.00     0.018 A 
HETATM   33  C   UNK N   1      31.814  17.961   8.724  0.00  0.00     0.018 A 
HETATM   34  C   UNK N   1      32.936  17.788   7.902  0.00  0.00     0.032 A 
HETATM   35  C   UNK N   1      32.751  17.320   6.592  0.00  0.00     0.018 A 
HETATM   36  C   UNK N   1      31.475  17.005   6.121  0.00  0.00     0.018 A 
BRANCH  34  37
HETATM   37  C   UNK N   1      34.298  18.026   8.459  0.00  0.00     0.252 C 
HETATM   38  N   UNK N   1      34.969  17.098   9.193  0.00  0.00    -0.347 N 
HETATM   39  H   UNK N   1      35.784  17.383   9.667  0.00  0.00     0.163 HD
HETATM   40  O   UNK N   1      34.839  19.098   8.241  0.00  0.00    -0.268 OA
BRANCH  38  41
HETATM   41  C   UNK N   1      34.558  15.718   9.319  0.00  0.00     0.232 C 
BRANCH  41  42
HETATM   42  C   UNK N   1      34.368  15.325  10.743  0.00  0.00     0.158 C 
HETATM   43  O   UNK N   1      35.313  15.321  11.514  0.00  0.00    -0.649 OA
BRANCH  42  44
HETATM   44  O   UNK N   1      33.154  14.922  11.164  0.00  0.00    -0.775 OA
HETATM   45  H   UNK N   1      33.026  14.102  11.598  0.00  0.00     0.167 HD
ENDBRANCH  42  44
ENDBRANCH  41  42
ENDBRANCH  38  41
ENDBRANCH  34  37
ENDBRANCH  28  31
ENDBRANCH   1  27
TORSDOF 14
ENDMDL
MODEL 4
REMARK VINA RESULT:      -7.6      3.644      5.544
REMARK  14 active torsions:
REMARK  status: ('A' for Active; 'I' for Inactive)
REMARK    1  A    between atoms: C_18  and  C_12 
REMARK    2  A    between atoms: N_30  and  C_12 
REMARK    3  A    between atoms: C_19  and  C_13 
REMARK    4  A    between atoms: C_20  and  C_14 
REMARK    5  A    between atoms: C_22  and  C_15 
REMARK    6  A    between atoms: C_23  and  C_16 
REMARK    7  A    between atoms: C_17  and  C_24 
REMARK    8  A    between atoms: O_36  and  C_18 
REMARK    9  A    between atoms: C_21  and  C_19 
REMARK   10  A    between atoms: C_19  and  N_31 
REMARK   11  A    between atoms: C_25  and  C_20 
REMARK   12  A    between atoms: C_20  and  N_33 
REMARK   13  A    between atoms: C_26  and  C_21 
REMARK       I    between atoms: N_30  and  C_22 
REMARK       I    between atoms: N_33  and  C_23 
REMARK   14  A    between atoms: C_24  and  O_40 
REMARK       I    between atoms: N_34  and  C_25 
ROOT
HETATM    1  C   UNK N   1      30.568  13.584   3.264  0.00  0.00     0.180 C 
ENDROOT
BRANCH   1   2
HETATM    2  C   UNK N   1      31.253  12.257   2.852  0.00  0.00     0.009 C 
HETATM    3  C   UNK N   1      31.816  12.296   1.440  0.00  0.00     0.012 C 
HETATM    4  C   UNK N   1      32.364  11.867   3.810  0.00  0.00     0.012 C 
ENDBRANCH   1   2
BRANCH   1   5
HETATM    5  C   UNK N   1      29.177  13.289   3.806  0.00  0.00     0.243 C 
HETATM    6  N   UNK N   1      28.093  14.061   3.474  0.00  0.00    -0.338 N 
HETATM    7  C   UNK N   1      26.761  13.645   3.834  0.00  0.00     0.127 C 
HETATM    8  C   UNK N   1      28.128  15.240   2.639  0.00  0.00     0.161 C 
HETATM    9  C   UNK N   1      25.838  14.652   3.170  0.00  0.00     0.022 C 
HETATM   10  C   UNK N   1      26.698  15.369   2.137  0.00  0.00     0.035 C 
HETATM   11  O   UNK N   1      29.010  12.275   4.466  0.00  0.00    -0.271 OA
BRANCH   8  12
HETATM   12  C   UNK N   1      28.477  16.467   3.441  0.00  0.00     0.135 C 
HETATM   13  N   UNK N   1      27.719  16.796   4.436  0.00  0.00    -0.361 N 
ATOM     14  HN  UNK N   1      26.970  16.140   4.662  1.00  0.00     0.162 HD
BRANCH  13  15
HETATM   15  C   UNK N   1      27.796  17.984   5.278  0.00  0.00     0.166 C 
BRANCH  15  16
HETATM   16  C   UNK N   1      26.786  19.094   4.906  0.00  0.00     0.008 C 
HETATM   17  C   UNK N   1      27.333  20.024   3.838  0.00  0.00     0.012 C 
HETATM   18  C   UNK N   1      25.394  18.622   4.528  0.00  0.00     0.012 C 
ENDBRANCH  15  16
BRANCH  15  19
HETATM   19  C   UNK N   1      27.800  17.633   6.757  0.00  0.00     0.255 C 
HETATM   20  O   UNK N   1      27.360  16.556   7.134  0.00  0.00    -0.286 OA
BRANCH  19  21
HETATM   21  C   UNK N   1      28.405  18.561   7.778  0.00  0.00     0.453 C 
HETATM   22  F   UNK N   1      29.748  18.276   7.928  0.00  0.00    -0.163 F 
HETATM   23  F   UNK N   1      27.777  18.442   9.005  0.00  0.00    -0.163 F 
HETATM   24  F   UNK N   1      28.265  19.864   7.335  0.00  0.00    -0.163 F 
ENDBRANCH  19  21
ENDBRANCH  15  19
ENDBRANCH  13  15
BRANCH  12  25
HETATM   25  O   UNK N   1      29.523  17.230   3.067  0.00  0.00    -0.348 OA
HETATM   26  H   UNK N   1      29.975  17.835   2.513  0.00  0.00     0.219 HD
ENDBRANCH  12  25
ENDBRANCH   8  12
ENDBRANCH   1   5
BRANCH   1  27
HETATM   27  N   UNK N   1      31.376  14.302   4.244  0.00  0.00    -0.343 N 
HETATM   28  C   UNK N   1      32.184  15.361   3.945  0.00  0.00     0.252 C 
HETATM   29  O   UNK N   1      32.285  15.760   2.792  0.00  0.00    -0.268 OA
HETATM   30  H   UNK N   1      31.334  14.005   5.182  0.00  0.00     0.163 HD
BRANCH  28  31
HETATM   31  C   UNK N   1      32.845  16.113   5.028  0.00  0.00     0.032 A 
HETATM   32  C   UNK N   1      32.099  17.007   5.808  0.00  0.00     0.018 A 
HETATM   33  C   UNK N   1      32.682  17.641   6.907  0.00  0.00     0.018 A 
HETATM   34  C   UNK N   1      34.034  17.431   7.213  0.00  0.00     0.032 A 
HETATM   35  C   UNK N   1      34.784  16.558   6.410  0.00  0.00     0.018 A 
HETATM   36  C   UNK N   1      34.190  15.887   5.339  0.00  0.00     0.018 A 
BRANCH  34  37
HETATM   37  C   UNK N   1      34.621  18.073   8.423  0.00  0.00     0.252 C 
HETATM   38  N   UNK N   1      34.800  17.411   9.599  0.00  0.00    -0.347 N 
HETATM   39  H   UNK N   1      35.032  17.938  10.397  0.00  0.00     0.163 HD
HETATM   40  O   UNK N   1      34.963  19.243   8.357  0.00  0.00    -0.268 OA
BRANCH  38  41
HETATM   41  C   UNK N   1      34.670  15.979   9.745  0.00  0.00     0.232 C 
BRANCH  41  42
HETATM   42  C   UNK N   1      35.992  15.318   9.924  0.00  0.00     0.158 C 
HETATM   43  O   UNK N   1      36.224  14.246   9.390  0.00  0.00    -0.649 OA
BRANCH  42  44
HETATM   44  O   UNK N   1      36.915  15.886  10.723  0.00  0.00    -0.775 OA
HETATM   45  H   UNK N   1      36.769  16.711  11.142  0.00  0.00     0.167 HD
ENDBRANCH  42  44
ENDBRANCH  41  42
ENDBRANCH  38  41
ENDBRANCH  34  37
ENDBRANCH  28  31
ENDBRANCH   1  27
TORSDOF 14
ENDMDL
MODEL 5
REMARK VINA RESULT:      -7.2      3.986      5.820
REMARK  14 active torsions:
REMARK  status: ('A' for Active; 'I' for Inactive)
REMARK    1  A    between atoms: C_18  and  C_12 
REMARK    2  A    between atoms: N_30  and  C_12 
REMARK    3  A    between atoms: C_19  and  C_13 
REMARK    4  A    between atoms: C_20  and  C_14 
REMARK    5  A    between atoms: C_22  and  C_15 
REMARK    6  A    between atoms: C_23  and  C_16 
REMARK    7  A    between atoms: C_17  and  C_24 
REMARK    8  A    between atoms: O_36  and  C_18 
REMARK    9  A    between atoms: C_21  and  C_19 
REMARK   10  A    between atoms: C_19  and  N_31 
REMARK   11  A    between atoms: C_25  and  C_20 
REMARK   12  A    between atoms: C_20  and  N_33 
REMARK   13  A    between atoms: C_26  and  C_21 
REMARK       I    between atoms: N_30  and  C_22 
REMARK       I    between atoms: N_33  and  C_23 
REMARK   14  A    between atoms: C_24  and  O_40 
REMARK       I    between atoms: N_34  and  C_25 
ROOT
HETATM    1  C   UNK N   1      31.478  13.809   3.882  0.00  0.00     0.180 C 
ENDROOT
BRANCH   1   2
HETATM    2  C   UNK N   1      32.108  12.556   3.223  0.00  0.00     0.009 C 
HETATM    3  C   UNK N   1      32.689  12.842   1.847  0.00  0.00     0.012 C 
HETATM    4  C   UNK N   1      33.190  11.938   4.090  0.00  0.00     0.012 C 
ENDBRANCH   1   2
BRANCH   1   5
HETATM    5  C   UNK N   1      30.045  13.501   4.288  0.00  0.00     0.243 C 
HETATM    6  N   UNK N   1      29.003  14.326   3.948  0.00  0.00    -0.338 N 
HETATM    7  C   UNK N   1      27.641  13.912   4.167  0.00  0.00     0.127 C 
HETATM    8  C   UNK N   1      29.124  15.575   3.230  0.00  0.00     0.161 C 
HETATM    9  C   UNK N   1      26.790  14.999   3.532  0.00  0.00     0.022 C 
HETATM   10  C   UNK N   1      27.739  15.784   2.637  0.00  0.00     0.035 C 
HETATM   11  O   UNK N   1      29.810  12.436   4.837  0.00  0.00    -0.271 OA
BRANCH   8  12
HETATM   12  C   UNK N   1      29.432  16.715   4.166  0.00  0.00     0.135 C 
HETATM   13  N   UNK N   1      28.693  16.874   5.217  0.00  0.00    -0.361 N 
ATOM     14  HN  UNK N   1      27.993  16.151   5.382  1.00  0.00     0.162 HD
BRANCH  13  15
HETATM   15  C   UNK N   1      28.734  17.954   6.196  0.00  0.00     0.166 C 
BRANCH  15  16
HETATM   16  C   UNK N   1      27.888  19.191   5.814  0.00  0.00     0.008 C 
HETATM   17  C   UNK N   1      26.626  18.805   5.063  0.00  0.00     0.012 C 
HETATM   18  C   UNK N   1      27.552  20.138   6.952  0.00  0.00     0.012 C 
ENDBRANCH  15  16
BRANCH  15  19
HETATM   19  C   UNK N   1      28.479  17.452   7.607  0.00  0.00     0.255 C 
HETATM   20  O   UNK N   1      27.490  16.774   7.848  0.00  0.00    -0.286 OA
BRANCH  19  21
HETATM   21  C   UNK N   1      29.463  17.711   8.718  0.00  0.00     0.453 C 
HETATM   22  F   UNK N   1      28.784  17.918   9.903  0.00  0.00    -0.163 F 
HETATM   23  F   UNK N   1      30.250  18.817   8.448  0.00  0.00    -0.163 F 
HETATM   24  F   UNK N   1      30.284  16.607   8.854  0.00  0.00    -0.163 F 
ENDBRANCH  19  21
ENDBRANCH  15  19
ENDBRANCH  13  15
BRANCH  12  25
HETATM   25  O   UNK N   1      30.418  17.580   3.858  0.00  0.00    -0.348 OA
HETATM   26  H   UNK N   1      30.976  18.056   3.276  0.00  0.00     0.219 HD
ENDBRANCH  12  25
ENDBRANCH   8  12
ENDBRANCH   1   5
BRANCH   1  27
HETATM   27  N   UNK N   1      32.270  14.247   5.026  0.00  0.00    -0.343 N 
HETATM   28  C   UNK N   1      32.940  15.434   5.089  0.00  0.00     0.252 C 
HETATM   29  O   UNK N   1      32.920  16.209   4.141  0.00  0.00    -0.268 OA
HETATM   30  H   UNK N   1      32.324  13.646   5.806  0.00  0.00     0.163 HD
BRANCH  28  31
HETATM   31  C   UNK N   1      33.588  15.851   6.345  0.00  0.00     0.032 A 
HETATM   32  C   UNK N   1      33.055  16.917   7.083  0.00  0.00     0.018 A 
HETATM   33  C   UNK N   1      33.590  17.250   8.328  0.00  0.00     0.018 A 
HETATM   34  C   UNK N   1      34.697  16.556   8.835  0.00  0.00     0.032 A 
HETATM   35  C   UNK N   1      35.246  15.508   8.079  0.00  0.00     0.018 A 
HETATM   36  C   UNK N   1      34.683  15.143   6.854  0.00  0.00     0.018 A 
BRANCH  34  37
HETATM   37  C   UNK N   1      35.215  16.890  10.193  0.00  0.00     0.252 C 
HETATM   38  N   UNK N   1      34.986  16.111  11.284  0.00  0.00    -0.347 N 
HETATM   39  H   UNK N   1      35.210  16.477  12.170  0.00  0.00     0.163 HD
HETATM   40  O   UNK N   1      35.880  17.905  10.331  0.00  0.00    -0.268 OA
BRANCH  38  41
HETATM   41  C   UNK N   1      34.432  14.778  11.221  0.00  0.00     0.232 C 
BRANCH  41  42
HETATM   42  C   UNK N   1      35.093  13.857  12.187  0.00  0.00     0.158 C 
HETATM   43  O   UNK N   1      36.285  13.962  12.424  0.00  0.00    -0.649 OA
BRANCH  42  44
HETATM   44  O   UNK N   1      34.377  12.872  12.761  0.00  0.00    -0.775 OA
HETATM   45  H   UNK N   1      33.480  12.987  13.004  0.00  0.00     0.167 HD
ENDBRANCH  42  44
ENDBRANCH  41  42
ENDBRANCH  38  41
ENDBRANCH  34  37
ENDBRANCH  28  31
ENDBRANCH   1  27
TORSDOF 14
ENDMDL
MODEL 6
REMARK VINA RESULT:      -7.0      5.119      7.236
REMARK  14 active torsions:
REMARK  status: ('A' for Active; 'I' for Inactive)
REMARK    1  A    between atoms: C_18  and  C_12 
REMARK    2  A    between atoms: N_30  and  C_12 
REMARK    3  A    between atoms: C_19  and  C_13 
REMARK    4  A    between atoms: C_20  and  C_14 
REMARK    5  A    between atoms: C_22  and  C_15 
REMARK    6  A    between atoms: C_23  and  C_16 
REMARK    7  A    between atoms: C_17  and  C_24 
REMARK    8  A    between atoms: O_36  and  C_18 
REMARK    9  A    between atoms: C_21  and  C_19 
REMARK   10  A    between atoms: C_19  and  N_31 
REMARK   11  A    between atoms: C_25  and  C_20 
REMARK   12  A    between atoms: C_20  and  N_33 
REMARK   13  A    between atoms: C_26  and  C_21 
REMARK       I    between atoms: N_30  and  C_22 
REMARK       I    between atoms: N_33  and  C_23 
REMARK   14  A    between atoms: C_24  and  O_40 
REMARK       I    between atoms: N_34  and  C_25 
ROOT
HETATM    1  C   UNK N   1      31.889  13.569   3.878  0.00  0.00     0.180 C 
ENDROOT
BRANCH   1   2
HETATM    2  C   UNK N   1      32.009  12.581   2.691  0.00  0.00     0.009 C 
HETATM    3  C   UNK N   1      30.849  12.687   1.714  0.00  0.00     0.012 C 
HETATM    4  C   UNK N   1      33.308  12.762   1.927  0.00  0.00     0.012 C 
ENDBRANCH   1   2
BRANCH   1   5
HETATM    5  C   UNK N   1      30.480  13.508   4.448  0.00  0.00     0.243 C 
HETATM    6  N   UNK N   1      29.597  14.549   4.310  0.00  0.00    -0.338 N 
HETATM    7  C   UNK N   1      28.214  14.389   4.677  0.00  0.00     0.127 C 
HETATM    8  C   UNK N   1      29.889  15.815   3.676  0.00  0.00     0.161 C 
HETATM    9  C   UNK N   1      27.537  15.678   4.242  0.00  0.00     0.022 C 
HETATM   10  C   UNK N   1      28.518  16.348   3.289  0.00  0.00     0.035 C 
HETATM   11  O   UNK N   1      30.095  12.460   4.944  0.00  0.00    -0.271 OA
BRANCH   8  12
HETATM   12  C   UNK N   1      30.530  16.776   4.644  0.00  0.00     0.135 C 
HETATM   13  N   UNK N   1      30.479  16.511   5.910  0.00  0.00    -0.361 N 
ATOM     14  HN  UNK N   1      30.071  15.610   6.160  1.00  0.00     0.162 HD
BRANCH  13  15
HETATM   15  C   UNK N   1      30.930  17.335   7.025  0.00  0.00     0.166 C 
BRANCH  15  16
HETATM   16  C   UNK N   1      29.848  17.601   8.097  0.00  0.00     0.008 C 
HETATM   17  C   UNK N   1      30.303  18.627   9.120  0.00  0.00     0.012 C 
HETATM   18  C   UNK N   1      28.470  17.961   7.571  0.00  0.00     0.012 C 
ENDBRANCH  15  16
BRANCH  15  19
HETATM   19  C   UNK N   1      32.249  16.844   7.598  0.00  0.00     0.255 C 
HETATM   20  O   UNK N   1      32.303  15.771   8.181  0.00  0.00    -0.286 OA
BRANCH  19  21
HETATM   21  C   UNK N   1      33.523  17.623   7.401  0.00  0.00     0.453 C 
HETATM   22  F   UNK N   1      34.601  16.864   7.813  0.00  0.00    -0.163 F 
HETATM   23  F   UNK N   1      33.506  18.809   8.114  0.00  0.00    -0.163 F 
HETATM   24  F   UNK N   1      33.664  17.918   6.057  0.00  0.00    -0.163 F 
ENDBRANCH  19  21
ENDBRANCH  15  19
ENDBRANCH  13  15
BRANCH  12  25
HETATM   25  O   UNK N   1      31.080  17.916   4.183  0.00  0.00    -0.348 OA
HETATM   26  H   UNK N   1      31.718  18.602   4.164  0.00  0.00     0.219 HD
ENDBRANCH  12  25
ENDBRANCH   8  12
ENDBRANCH   1   5
BRANCH   1  27
HETATM   27  N   UNK N   1      32.886  13.274   4.902  0.00  0.00    -0.343 N 
HETATM   28  C   UNK N   1      33.878  14.133   5.278  0.00  0.00     0.252 C 
HETATM   29  O   UNK N   1      33.992  15.226   4.738  0.00  0.00    -0.268 OA
HETATM   30  H   UNK N   1      32.839  12.399   5.352  0.00  0.00     0.163 HD
BRANCH  28  31
HETATM   31  C   UNK N   1      34.744  13.803   6.424  0.00  0.00     0.032 A 
HETATM   32  C   UNK N   1      36.056  14.297   6.470  0.00  0.00     0.018 A 
HETATM   33  C   UNK N   1      36.849  14.088   7.599  0.00  0.00     0.018 A 
HETATM   34  C   UNK N   1      36.364  13.338   8.680  0.00  0.00     0.032 A 
HETATM   35  C   UNK N   1      35.061  12.819   8.616  0.00  0.00     0.018 A 
HETATM   36  C   UNK N   1      34.249  13.068   7.507  0.00  0.00     0.018 A 
BRANCH  34  37
HETATM   37  C   UNK N   1      37.208  13.176   9.898  0.00  0.00     0.252 C 
HETATM   38  N   UNK N   1      37.201  14.068  10.926  0.00  0.00    -0.347 N 
HETATM   39  H   UNK N   1      37.901  13.987  11.613  0.00  0.00     0.163 HD
HETATM   40  O   UNK N   1      37.931  12.196   9.982  0.00  0.00    -0.268 OA
BRANCH  38  41
HETATM   41  C   UNK N   1      36.228  15.126  11.068  0.00  0.00     0.232 C 
BRANCH  41  42
HETATM   42  C   UNK N   1      34.996  14.657  11.761  0.00  0.00     0.158 C 
HETATM   43  O   UNK N   1      33.896  14.903  11.297  0.00  0.00    -0.649 OA
BRANCH  42  44
HETATM   44  O   UNK N   1      35.102  14.003  12.933  0.00  0.00    -0.775 OA
HETATM   45  H   UNK N   1      35.626  14.329  13.638  0.00  0.00     0.167 HD
ENDBRANCH  42  44
ENDBRANCH  41  42
ENDBRANCH  38  41
ENDBRANCH  34  37
ENDBRANCH  28  31
ENDBRANCH   1  27
TORSDOF 14
ENDMDL
MODEL 7
REMARK VINA RESULT:      -7.0      3.246      5.042
REMARK  14 active torsions:
REMARK  status: ('A' for Active; 'I' for Inactive)
REMARK    1  A    between atoms: C_18  and  C_12 
REMARK    2  A    between atoms: N_30  and  C_12 
REMARK    3  A    between atoms: C_19  and  C_13 
REMARK    4  A    between atoms: C_20  and  C_14 
REMARK    5  A    between atoms: C_22  and  C_15 
REMARK    6  A    between atoms: C_23  and  C_16 
REMARK    7  A    between atoms: C_17  and  C_24 
REMARK    8  A    between atoms: O_36  and  C_18 
REMARK    9  A    between atoms: C_21  and  C_19 
REMARK   10  A    between atoms: C_19  and  N_31 
REMARK   11  A    between atoms: C_25  and  C_20 
REMARK   12  A    between atoms: C_20  and  N_33 
REMARK   13  A    between atoms: C_26  and  C_21 
REMARK       I    between atoms: N_30  and  C_22 
REMARK       I    between atoms: N_33  and  C_23 
REMARK   14  A    between atoms: C_24  and  O_40 
REMARK       I    between atoms: N_34  and  C_25 
ROOT
HETATM    1  C   UNK N   1      21.147  17.274   3.329  0.00  0.00     0.180 C 
ENDROOT
BRANCH   1   2
HETATM    2  C   UNK N   1      20.804  18.557   2.533  0.00  0.00     0.009 C 
HETATM    3  C   UNK N   1      19.345  18.964   2.669  0.00  0.00     0.012 C 
HETATM    4  C   UNK N   1      21.677  19.731   2.937  0.00  0.00     0.012 C 
ENDBRANCH   1   2
BRANCH   1   5
HETATM    5  C   UNK N   1      20.749  16.051   2.515  0.00  0.00     0.243 C 
HETATM    6  N   UNK N   1      20.148  14.962   3.092  0.00  0.00    -0.338 N 
HETATM    7  C   UNK N   1      19.600  13.910   2.275  0.00  0.00     0.127 C 
HETATM    8  C   UNK N   1      19.866  14.810   4.501  0.00  0.00     0.161 C 
HETATM    9  C   UNK N   1      18.894  12.979   3.246  0.00  0.00     0.022 C 
HETATM   10  C   UNK N   1      18.752  13.776   4.537  0.00  0.00     0.035 C 
HETATM   11  O   UNK N   1      20.873  16.093   1.300  0.00  0.00    -0.271 OA
BRANCH   8  12
HETATM   12  C   UNK N   1      21.061  14.266   5.241  0.00  0.00     0.135 C 
HETATM   13  N   UNK N   1      20.981  14.110   6.524  0.00  0.00    -0.361 N 
ATOM     14  HN  UNK N   1      20.067  14.294   6.938  1.00  0.00     0.162 HD
BRANCH  13  15
HETATM   15  C   UNK N   1      22.029  13.705   7.453  0.00  0.00     0.166 C 
BRANCH  15  16
HETATM   16  C   UNK N   1      21.800  14.167   8.911  0.00  0.00     0.008 C 
HETATM   17  C   UNK N   1      20.806  15.312   8.994  0.00  0.00     0.012 C 
HETATM   18  C   UNK N   1      21.427  13.076   9.899  0.00  0.00     0.012 C 
ENDBRANCH  15  16
BRANCH  15  19
HETATM   19  C   UNK N   1      22.362  12.228   7.326  0.00  0.00     0.255 C 
HETATM   20  O   UNK N   1      21.490  11.427   7.019  0.00  0.00    -0.286 OA
BRANCH  19  21
HETATM   21  C   UNK N   1      23.771  11.727   7.501  0.00  0.00     0.453 C 
HETATM   22  F   UNK N   1      24.186  11.091   6.348  0.00  0.00    -0.163 F 
HETATM   23  F   UNK N   1      23.867  10.846   8.564  0.00  0.00    -0.163 F 
HETATM   24  F   UNK N   1      24.601  12.806   7.747  0.00  0.00    -0.163 F 
ENDBRANCH  19  21
ENDBRANCH  15  19
ENDBRANCH  13  15
BRANCH  12  25
HETATM   25  O   UNK N   1      22.203  14.017   4.570  0.00  0.00    -0.348 OA
HETATM   26  H   UNK N   1      23.129  14.044   4.435  0.00  0.00     0.219 HD
ENDBRANCH  12  25
ENDBRANCH   8  12
ENDBRANCH   1   5
BRANCH   1  27
HETATM   27  N   UNK N   1      22.565  17.240   3.673  0.00  0.00    -0.343 N 
HETATM   28  C   UNK N   1      23.044  17.131   4.947  0.00  0.00     0.252 C 
HETATM   29  O   UNK N   1      22.274  17.072   5.897  0.00  0.00    -0.268 OA
HETATM   30  H   UNK N   1      23.219  17.300   2.939  0.00  0.00     0.163 HD
BRANCH  28  31
HETATM   31  C   UNK N   1      24.489  16.957   5.179  0.00  0.00     0.032 A 
HETATM   32  C   UNK N   1      25.401  17.829   4.569  0.00  0.00     0.018 A 
HETATM   33  C   UNK N   1      26.762  17.747   4.867  0.00  0.00     0.018 A 
HETATM   34  C   UNK N   1      27.241  16.761   5.741  0.00  0.00     0.032 A 
HETATM   35  C   UNK N   1      26.326  15.871   6.327  0.00  0.00     0.018 A 
HETATM   36  C   UNK N   1      24.958  15.982   6.066  0.00  0.00     0.018 A 
BRANCH  34  37
HETATM   37  C   UNK N   1      28.689  16.729   6.090  0.00  0.00     0.252 C 
HETATM   38  N   UNK N   1      29.290  17.690   6.845  0.00  0.00    -0.347 N 
HETATM   39  H   UNK N   1      30.273  17.694   6.892  0.00  0.00     0.163 HD
HETATM   40  O   UNK N   1      29.367  15.797   5.688  0.00  0.00    -0.268 OA
BRANCH  38  41
HETATM   41  C   UNK N   1      28.570  18.704   7.580  0.00  0.00     0.232 C 
BRANCH  41  42
HETATM   42  C   UNK N   1      28.521  18.401   9.038  0.00  0.00     0.158 C 
HETATM   43  O   UNK N   1      29.497  18.598   9.742  0.00  0.00    -0.649 OA
BRANCH  42  44
HETATM   44  O   UNK N   1      27.407  17.859   9.566  0.00  0.00    -0.775 OA
HETATM   45  H   UNK N   1      26.623  17.751   9.066  0.00  0.00     0.167 HD
ENDBRANCH  42  44
ENDBRANCH  41  42
ENDBRANCH  38  41
ENDBRANCH  34  37
ENDBRANCH  28  31
ENDBRANCH   1  27
TORSDOF 14
ENDMDL
MODEL 8
REMARK VINA RESULT:      -6.9      4.283      6.294
REMARK  14 active torsions:
REMARK  status: ('A' for Active; 'I' for Inactive)
REMARK    1  A    between atoms: C_18  and  C_12 
REMARK    2  A    between atoms: N_30  and  C_12 
REMARK    3  A    between atoms: C_19  and  C_13 
REMARK    4  A    between atoms: C_20  and  C_14 
REMARK    5  A    between atoms: C_22  and  C_15 
REMARK    6  A    between atoms: C_23  and  C_16 
REMARK    7  A    between atoms: C_17  and  C_24 
REMARK    8  A    between atoms: O_36  and  C_18 
REMARK    9  A    between atoms: C_21  and  C_19 
REMARK   10  A    between atoms: C_19  and  N_31 
REMARK   11  A    between atoms: C_25  and  C_20 
REMARK   12  A    between atoms: C_20  and  N_33 
REMARK   13  A    between atoms: C_26  and  C_21 
REMARK       I    between atoms: N_30  and  C_22 
REMARK       I    between atoms: N_33  and  C_23 
REMARK   14  A    between atoms: C_24  and  O_40 
REMARK       I    between atoms: N_34  and  C_25 
ROOT
HETATM    1  C   UNK N   1      31.936  15.880   6.128  0.00  0.00     0.180 C 
ENDROOT
BRANCH   1   2
HETATM    2  C   UNK N   1      32.783  16.150   4.860  0.00  0.00     0.009 C 
HETATM    3  C   UNK N   1      32.874  17.627   4.513  0.00  0.00     0.012 C 
HETATM    4  C   UNK N   1      34.189  15.590   4.983  0.00  0.00     0.012 C 
ENDBRANCH   1   2
BRANCH   1   5
HETATM    5  C   UNK N   1      30.918  14.788   5.835  0.00  0.00     0.243 C 
HETATM    6  N   UNK N   1      29.735  15.055   5.194  0.00  0.00    -0.338 N 
HETATM    7  C   UNK N   1      28.885  13.980   4.749  0.00  0.00     0.127 C 
HETATM    8  C   UNK N   1      29.288  16.363   4.771  0.00  0.00     0.161 C 
HETATM    9  C   UNK N   1      27.774  14.653   3.962  0.00  0.00     0.022 C 
HETATM   10  C   UNK N   1      28.278  16.061   3.675  0.00  0.00     0.035 C 
HETATM   11  O   UNK N   1      31.216  13.630   6.082  0.00  0.00    -0.271 OA
BRANCH   8  12
HETATM   12  C   UNK N   1      28.590  17.089   5.892  0.00  0.00     0.135 C 
HETATM   13  N   UNK N   1      28.799  18.358   6.036  0.00  0.00    -0.361 N 
ATOM     14  HN  UNK N   1      29.370  18.800   5.315  1.00  0.00     0.162 HD
BRANCH  13  15
HETATM   15  C   UNK N   1      28.324  19.238   7.097  0.00  0.00     0.166 C 
BRANCH  15  16
HETATM   16  C   UNK N   1      26.943  19.879   6.822  0.00  0.00     0.008 C 
HETATM   17  C   UNK N   1      26.952  21.376   7.075  0.00  0.00     0.012 C 
HETATM   18  C   UNK N   1      26.335  19.580   5.463  0.00  0.00     0.012 C 
ENDBRANCH  15  16
BRANCH  15  19
HETATM   19  C   UNK N   1      28.433  18.588   8.467  0.00  0.00     0.255 C 
HETATM   20  O   UNK N   1      27.441  18.112   9.001  0.00  0.00    -0.286 OA
BRANCH  19  21
HETATM   21  C   UNK N   1      29.762  18.451   9.161  0.00  0.00     0.453 C 
HETATM   22  F   UNK N   1      30.266  17.181   8.955  0.00  0.00    -0.163 F 
HETATM   23  F   UNK N   1      29.647  18.677  10.522  0.00  0.00    -0.163 F 
HETATM   24  F   UNK N   1      30.641  19.378   8.632  0.00  0.00    -0.163 F 
ENDBRANCH  19  21
ENDBRANCH  15  19
ENDBRANCH  13  15
BRANCH  12  25
HETATM   25  O   UNK N   1      27.821  16.398   6.756  0.00  0.00    -0.348 OA
HETATM   26  H   UNK N   1      27.664  15.855   7.503  0.00  0.00     0.219 HD
ENDBRANCH  12  25
ENDBRANCH   8  12
ENDBRANCH   1   5
BRANCH   1  27
HETATM   27  N   UNK N   1      32.789  15.518   7.255  0.00  0.00    -0.343 N 
HETATM   28  C   UNK N   1      33.309  16.415   8.144  0.00  0.00     0.252 C 
HETATM   29  O   UNK N   1      33.089  17.613   8.019  0.00  0.00    -0.268 OA
HETATM   30  H   UNK N   1      33.002  14.565   7.384  0.00  0.00     0.163 HD
BRANCH  28  31
HETATM   31  C   UNK N   1      34.036  15.937   9.334  0.00  0.00     0.032 A 
HETATM   32  C   UNK N   1      33.764  14.661   9.849  0.00  0.00     0.018 A 
HETATM   33  C   UNK N   1      34.522  14.151  10.904  0.00  0.00     0.018 A 
HETATM   34  C   UNK N   1      35.530  14.925  11.495  0.00  0.00     0.032 A 
HETATM   35  C   UNK N   1      35.778  16.213  10.995  0.00  0.00     0.018 A 
HETATM   36  C   UNK N   1      35.053  16.707   9.908  0.00  0.00     0.018 A 
BRANCH  34  37
HETATM   37  C   UNK N   1      36.365  14.338  12.582  0.00  0.00     0.252 C 
HETATM   38  N   UNK N   1      37.318  13.394  12.354  0.00  0.00    -0.347 N 
HETATM   39  H   UNK N   1      37.708  12.933  13.132  0.00  0.00     0.163 HD
HETATM   40  O   UNK N   1      36.191  14.726  13.726  0.00  0.00    -0.268 OA
BRANCH  38  41
HETATM   41  C   UNK N   1      37.792  13.028  11.039  0.00  0.00     0.232 C 
BRANCH  41  42
HETATM   42  C   UNK N   1      37.437  11.623  10.694  0.00  0.00     0.158 C 
HETATM   43  O   UNK N   1      36.569  11.035  11.317  0.00  0.00    -0.649 OA
BRANCH  42  44
HETATM   44  O   UNK N   1      38.116  10.987   9.721  0.00  0.00    -0.775 OA
HETATM   45  H   UNK N   1      38.030  11.225   8.819  0.00  0.00     0.167 HD
ENDBRANCH  42  44
ENDBRANCH  41  42
ENDBRANCH  38  41
ENDBRANCH  34  37
ENDBRANCH  28  31
ENDBRANCH   1  27
TORSDOF 14
ENDMDL
MODEL 9
REMARK VINA RESULT:      -6.9     13.208     16.412
REMARK  14 active torsions:
REMARK  status: ('A' for Active; 'I' for Inactive)
REMARK    1  A    between atoms: C_18  and  C_12 
REMARK    2  A    between atoms: N_30  and  C_12 
REMARK    3  A    between atoms: C_19  and  C_13 
REMARK    4  A    between atoms: C_20  and  C_14 
REMARK    5  A    between atoms: C_22  and  C_15 
REMARK    6  A    between atoms: C_23  and  C_16 
REMARK    7  A    between atoms: C_17  and  C_24 
REMARK    8  A    between atoms: O_36  and  C_18 
REMARK    9  A    between atoms: C_21  and  C_19 
REMARK   10  A    between atoms: C_19  and  N_31 
REMARK   11  A    between atoms: C_25  and  C_20 
REMARK   12  A    between atoms: C_20  and  N_33 
REMARK   13  A    between atoms: C_26  and  C_21 
REMARK       I    between atoms: N_30  and  C_22 
REMARK       I    between atoms: N_33  and  C_23 
REMARK   14  A    between atoms: C_24  and  O_40 
REMARK       I    between atoms: N_34  and  C_25 
ROOT
HETATM    1  C   UNK N   1      26.970  23.375  -7.985  0.00  0.00     0.180 C 
ENDROOT
BRANCH   1   2
HETATM    2  C   UNK N   1      25.755  23.082  -8.901  0.00  0.00     0.009 C 
HETATM    3  C   UNK N   1      24.764  22.112  -8.276  0.00  0.00     0.012 C 
HETATM    4  C   UNK N   1      25.017  24.349  -9.292  0.00  0.00     0.012 C 
ENDBRANCH   1   2
BRANCH   1   5
HETATM    5  C   UNK N   1      28.255  23.231  -8.787  0.00  0.00     0.243 C 
HETATM    6  N   UNK N   1      29.193  22.276  -8.485  0.00  0.00    -0.338 N 
HETATM    7  C   UNK N   1      30.297  22.029  -9.376  0.00  0.00     0.127 C 
HETATM    8  C   UNK N   1      29.117  21.348  -7.380  0.00  0.00     0.161 C 
HETATM    9  C   UNK N   1      31.014  20.822  -8.794  0.00  0.00     0.022 C 
HETATM   10  C   UNK N   1      30.033  20.209  -7.803  0.00  0.00     0.035 C 
HETATM   11  O   UNK N   1      28.398  23.914  -9.789  0.00  0.00    -0.271 OA
BRANCH   8  12
HETATM   12  C   UNK N   1      29.656  21.962  -6.113  0.00  0.00     0.135 C 
HETATM   13  N   UNK N   1      29.249  23.142  -5.772  0.00  0.00    -0.361 N 
ATOM     14  HN  UNK N   1      28.516  23.546  -6.355  1.00  0.00     0.162 HD
BRANCH  13  15
HETATM   15  C   UNK N   1      29.705  23.969  -4.661  0.00  0.00     0.166 C 
BRANCH  15  16
HETATM   16  C   UNK N   1      29.730  25.485  -4.965  0.00  0.00     0.008 C 
HETATM   17  C   UNK N   1      30.391  26.277  -3.850  0.00  0.00     0.012 C 
HETATM   18  C   UNK N   1      30.317  25.880  -6.308  0.00  0.00     0.012 C 
ENDBRANCH  15  16
BRANCH  15  19
HETATM   19  C   UNK N   1      28.996  23.619  -3.363  0.00  0.00     0.255 C 
HETATM   20  O   UNK N   1      27.834  23.956  -3.188  0.00  0.00    -0.286 OA
BRANCH  19  21
HETATM   21  C   UNK N   1      29.674  22.794  -2.301  0.00  0.00     0.453 C 
HETATM   22  F   UNK N   1      30.975  23.228  -2.135  0.00  0.00    -0.163 F 
HETATM   23  F   UNK N   1      29.683  21.451  -2.633  0.00  0.00    -0.163 F 
HETATM   24  F   UNK N   1      28.990  22.950  -1.109  0.00  0.00    -0.163 F 
ENDBRANCH  19  21
ENDBRANCH  15  19
ENDBRANCH  13  15
BRANCH  12  25
HETATM   25  O   UNK N   1      30.593  21.304  -5.402  0.00  0.00    -0.348 OA
HETATM   26  H   UNK N   1      31.464  21.022  -5.205  0.00  0.00     0.219 HD
ENDBRANCH  12  25
ENDBRANCH   8  12
ENDBRANCH   1   5
BRANCH   1  27
HETATM   27  N   UNK N   1      26.864  24.703  -7.391  0.00  0.00    -0.343 N 
HETATM   28  C   UNK N   1      26.164  24.982  -6.252  0.00  0.00     0.252 C 
HETATM   29  O   UNK N   1      25.556  24.096  -5.664  0.00  0.00    -0.268 OA
HETATM   30  H   UNK N   1      27.327  25.447  -7.840  0.00  0.00     0.163 HD
BRANCH  28  31
HETATM   31  C   UNK N   1      26.240  26.325  -5.650  0.00  0.00     0.032 A 
HETATM   32  C   UNK N   1      25.691  26.549  -4.380  0.00  0.00     0.018 A 
HETATM   33  C   UNK N   1      25.853  27.784  -3.750  0.00  0.00     0.018 A 
HETATM   34  C   UNK N   1      26.522  28.831  -4.399  0.00  0.00     0.032 A 
HETATM   35  C   UNK N   1      27.044  28.611  -5.683  0.00  0.00     0.018 A 
HETATM   36  C   UNK N   1      26.924  27.361  -6.296  0.00  0.00     0.018 A 
BRANCH  34  37
HETATM   37  C   UNK N   1      26.734  30.122  -3.684  0.00  0.00     0.252 C 
HETATM   38  N   UNK N   1      27.715  30.303  -2.759  0.00  0.00    -0.347 N 
HETATM   39  H   UNK N   1      27.689  31.119  -2.209  0.00  0.00     0.163 HD
HETATM   40  O   UNK N   1      26.000  31.062  -3.945  0.00  0.00    -0.268 OA
BRANCH  38  41
HETATM   41  C   UNK N   1      28.794  29.368  -2.534  0.00  0.00     0.232 C 
BRANCH  41  42
HETATM   42  C   UNK N   1      29.584  29.715  -1.320  0.00  0.00     0.158 C 
HETATM   43  O   UNK N   1      29.030  29.856  -0.243  0.00  0.00    -0.649 OA
BRANCH  42  44
HETATM   44  O   UNK N   1      30.910  29.922  -1.428  0.00  0.00    -0.775 OA
HETATM   45  H   UNK N   1      31.487  29.828  -0.697  0.00  0.00     0.167 HD
ENDBRANCH  42  44
ENDBRANCH  41  42
ENDBRANCH  38  41
ENDBRANCH  34  37
ENDBRANCH  28  31
ENDBRANCH   1  27
TORSDOF 14
ENDMDL
