MODEL 1
REMARK VINA RESULT:      -4.6      0.000      0.000
REMARK  0 active torsions:
REMARK  status: ('A' for Active; 'I' for Inactive)
ROOT
HETATM    1  I   UNK N   1      21.881  12.820   7.939  0.00  0.00    -0.037 I 
HETATM    2  C   UNK N   1      22.505  12.479   9.927  0.00  0.00     0.089 A 
HETATM    3  C   UNK N   1      21.552  12.107  10.873  0.00  0.00     0.116 A 
HETATM    4  N   UNK N   1      21.917  11.880  12.160  0.00  0.00    -0.317 N 
HETATM    5  C   UNK N   1      23.223  12.012  12.552  0.00  0.00     0.327 A 
HETATM    6  O   UNK N   1      23.534  11.804  13.709  0.00  0.00    -0.247 OA
HETATM    7  N   UNK N   1      24.179  12.376  11.639  0.00  0.00    -0.274 N 
HETATM    8  C   UNK N   1      23.839  12.612  10.333  0.00  0.00     0.267 A 
HETATM    9  O   UNK N   1      24.700  12.935   9.533  0.00  0.00    -0.267 OA
HETATM   10  H   UNK N   1      21.236  11.618  12.820  0.00  0.00     0.170 HD
HETATM   11  H   UNK N   1      25.116  12.469  11.925  0.00  0.00     0.173 HD
ENDROOT
TORSDOF 0
ENDMDL
MODEL 2
REMARK VINA RESULT:      -4.5      1.426      2.125
REMARK  0 active torsions:
REMARK  status: ('A' for Active; 'I' for Inactive)
ROOT
HETATM    1  I   UNK N   1      22.711  12.819   7.760  0.00  0.00    -0.037 I 
HETATM    2  C   UNK N   1      22.929  12.467   9.830  0.00  0.00     0.089 A 
HETATM    3  C   UNK N   1      24.213  12.375  10.362  0.00  0.00     0.116 A 
HETATM    4  N   UNK N   1      24.391  12.149  11.689  0.00  0.00    -0.317 N 
HETATM    5  C   UNK N   1      23.316  12.009  12.525  0.00  0.00     0.327 A 
HETATM    6  O   UNK N   1      23.492  11.807  13.712  0.00  0.00    -0.247 OA
HETATM    7  N   UNK N   1      22.042  12.095  12.025  0.00  0.00    -0.274 N 
HETATM    8  C   UNK N   1      21.833  12.323  10.690  0.00  0.00     0.267 A 
HETATM    9  O   UNK N   1      20.695  12.397  10.261  0.00  0.00    -0.267 OA
HETATM   10  H   UNK N   1      25.303  12.086  12.054  0.00  0.00     0.170 HD
HETATM   11  H   UNK N   1      21.273  11.994  12.630  0.00  0.00     0.173 HD
ENDROOT
TORSDOF 0
ENDMDL
MODEL 3
REMARK VINA RESULT:      -4.3     11.245     11.970
REMARK  0 active torsions:
REMARK  status: ('A' for Active; 'I' for Inactive)
ROOT
HETATM    1  I   UNK N   1      30.914  16.807   5.735  0.00  0.00    -0.037 I 
HETATM    2  C   UNK N   1      32.449  17.057   7.163  0.00  0.00     0.089 A 
HETATM    3  C   UNK N   1      32.199  16.697   8.486  0.00  0.00     0.116 A 
HETATM    4  N   UNK N   1      33.162  16.844   9.430  0.00  0.00    -0.317 N 
HETATM    5  C   UNK N   1      34.393  17.348   9.103  0.00  0.00     0.327 A 
HETATM    6  O   UNK N   1      35.245  17.473   9.961  0.00  0.00    -0.247 OA
HETATM    7  N   UNK N   1      34.663  17.709   7.808  0.00  0.00    -0.274 N 
HETATM    8  C   UNK N   1      33.709  17.572   6.834  0.00  0.00     0.267 A 
HETATM    9  O   UNK N   1      33.965  17.898   5.688  0.00  0.00    -0.267 OA
HETATM   10  H   UNK N   1      32.974  16.586  10.361  0.00  0.00     0.170 HD
HETATM   11  H   UNK N   1      35.549  18.071   7.578  0.00  0.00     0.173 HD
ENDROOT
TORSDOF 0
ENDMDL
MODEL 4
REMARK VINA RESULT:      -4.1     22.916     23.337
REMARK  0 active torsions:
REMARK  status: ('A' for Active; 'I' for Inactive)
ROOT
HETATM    1  I   UNK N   1      40.227  21.253   0.599  0.00  0.00    -0.037 I 
HETATM    2  C   UNK N   1      41.675  21.760   2.050  0.00  0.00     0.089 A 
HETATM    3  C   UNK N   1      42.227  20.744   2.828  0.00  0.00     0.116 A 
HETATM    4  N   UNK N   1      43.160  21.033   3.770  0.00  0.00    -0.317 N 
HETATM    5  C   UNK N   1      43.574  22.323   3.973  0.00  0.00     0.327 A 
HETATM    6  O   UNK N   1      44.411  22.565   4.822  0.00  0.00    -0.247 OA
HETATM    7  N   UNK N   1      43.045  23.339   3.221  0.00  0.00    -0.274 N 
HETATM    8  C   UNK N   1      42.102  23.077   2.262  0.00  0.00     0.267 A 
HETATM    9  O   UNK N   1      41.641  23.991   1.602  0.00  0.00    -0.267 OA
HETATM   10  H   UNK N   1      43.544  20.308   4.313  0.00  0.00     0.170 HD
HETATM   11  H   UNK N   1      43.346  24.264   3.371  0.00  0.00     0.173 HD
ENDROOT
TORSDOF 0
ENDMDL
MODEL 5
REMARK VINA RESULT:      -3.9     10.226     11.072
REMARK  0 active torsions:
REMARK  status: ('A' for Active; 'I' for Inactive)
ROOT
HETATM    1  I   UNK N   1      19.937  14.401   1.192  0.00  0.00    -0.037 I 
HETATM    2  C   UNK N   1      20.058  16.414   1.816  0.00  0.00     0.089 A 
HETATM    3  C   UNK N   1      19.974  16.700   3.177  0.00  0.00     0.116 A 
HETATM    4  N   UNK N   1      20.048  17.982   3.614  0.00  0.00    -0.317 N 
HETATM    5  C   UNK N   1      20.206  19.016   2.730  0.00  0.00     0.327 A 
HETATM    6  O   UNK N   1      20.271  20.160   3.137  0.00  0.00    -0.247 OA
HETATM    7  N   UNK N   1      20.291  18.760   1.386  0.00  0.00    -0.274 N 
HETATM    8  C   UNK N   1      20.220  17.475   0.916  0.00  0.00     0.267 A 
HETATM    9  O   UNK N   1      20.297  17.265  -0.282  0.00  0.00    -0.267 OA
HETATM   10  H   UNK N   1      19.988  18.172   4.578  0.00  0.00     0.170 HD
HETATM   11  H   UNK N   1      20.405  19.506   0.754  0.00  0.00     0.173 HD
ENDROOT
TORSDOF 0
ENDMDL
MODEL 6
REMARK VINA RESULT:      -3.9     11.007     11.814
REMARK  0 active torsions:
REMARK  status: ('A' for Active; 'I' for Inactive)
ROOT
HETATM    1  I   UNK N   1      33.931  17.870   7.870  0.00  0.00    -0.037 I 
HETATM    2  C   UNK N   1      34.184  16.459   9.421  0.00  0.00     0.089 A 
HETATM    3  C   UNK N   1      35.202  16.660  10.350  0.00  0.00     0.116 A 
HETATM    4  N   UNK N   1      35.393  15.774  11.360  0.00  0.00    -0.317 N 
HETATM    5  C   UNK N   1      34.592  14.670  11.484  0.00  0.00     0.327 A 
HETATM    6  O   UNK N   1      34.776  13.885  12.395  0.00  0.00    -0.247 OA
HETATM    7  N   UNK N   1      33.583  14.451  10.582  0.00  0.00    -0.274 N 
HETATM    8  C   UNK N   1      33.367  15.329   9.552  0.00  0.00     0.267 A 
HETATM    9  O   UNK N   1      32.466  15.119   8.759  0.00  0.00    -0.267 OA
HETATM   10  H   UNK N   1      36.115  15.926  12.011  0.00  0.00     0.170 HD
HETATM   11  H   UNK N   1      33.010  13.656  10.675  0.00  0.00     0.173 HD
ENDROOT
TORSDOF 0
ENDMDL
MODEL 7
REMARK VINA RESULT:      -3.9     13.226     13.916
REMARK  0 active torsions:
REMARK  status: ('A' for Active; 'I' for Inactive)
ROOT
HETATM    1  I   UNK N   1      34.319  10.759  13.677  0.00  0.00    -0.037 I 
HETATM    2  C   UNK N   1      35.445  12.362  14.465  0.00  0.00     0.089 A 
HETATM    3  C   UNK N   1      36.189  13.151  13.592  0.00  0.00     0.116 A 
HETATM    4  N   UNK N   1      36.924  14.190  14.063  0.00  0.00    -0.317 N 
HETATM    5  C   UNK N   1      36.948  14.480  15.402  0.00  0.00     0.327 A 
HETATM    6  O   UNK N   1      37.612  15.415  15.808  0.00  0.00    -0.247 OA
HETATM    7  N   UNK N   1      36.223  13.718  16.281  0.00  0.00    -0.274 N 
HETATM    8  C   UNK N   1      35.472  12.664  15.833  0.00  0.00     0.267 A 
HETATM    9  O   UNK N   1      34.834  11.996  16.628  0.00  0.00    -0.267 OA
HETATM   10  H   UNK N   1      37.446  14.741  13.437  0.00  0.00     0.170 HD
HETATM   11  H   UNK N   1      36.243  13.931  17.242  0.00  0.00     0.173 HD
ENDROOT
TORSDOF 0
ENDMDL
MODEL 8
REMARK VINA RESULT:      -3.8     18.781     19.472
REMARK  0 active torsions:
REMARK  status: ('A' for Active; 'I' for Inactive)
ROOT
HETATM    1  I   UNK N   1      30.242  20.264  -7.065  0.00  0.00    -0.037 I 
HETATM    2  C   UNK N   1      30.377  21.224  -5.190  0.00  0.00     0.089 A 
HETATM    3  C   UNK N   1      31.197  20.669  -4.210  0.00  0.00     0.116 A 
HETATM    4  N   UNK N   1      31.308  21.259  -2.994  0.00  0.00    -0.317 N 
HETATM    5  C   UNK N   1      30.618  22.407  -2.707  0.00  0.00     0.327 A 
HETATM    6  O   UNK N   1      30.728  22.924  -1.611  0.00  0.00    -0.247 OA
HETATM    7  N   UNK N   1      29.804  22.973  -3.654  0.00  0.00    -0.274 N 
HETATM    8  C   UNK N   1      29.673  22.398  -4.891  0.00  0.00     0.267 A 
HETATM    9  O   UNK N   1      28.946  22.913  -5.722  0.00  0.00    -0.267 OA
HETATM   10  H   UNK N   1      31.890  20.858  -2.309  0.00  0.00     0.170 HD
HETATM   11  H   UNK N   1      29.310  23.797  -3.443  0.00  0.00     0.173 HD
ENDROOT
TORSDOF 0
ENDMDL
MODEL 9
REMARK VINA RESULT:      -3.8     18.537     19.267
REMARK  0 active torsions:
REMARK  status: ('A' for Active; 'I' for Inactive)
ROOT
HETATM    1  I   UNK N   1      32.069  22.270  -4.119  0.00  0.00    -0.037 I 
HETATM    2  C   UNK N   1      30.131  23.001  -3.711  0.00  0.00     0.089 A 
HETATM    3  C   UNK N   1      29.298  23.324  -4.780  0.00  0.00     0.116 A 
HETATM    4  N   UNK N   1      28.046  23.796  -4.555  0.00  0.00    -0.317 N 
HETATM    5  C   UNK N   1      27.580  23.964  -3.278  0.00  0.00     0.327 A 
HETATM    6  O   UNK N   1      26.456  24.389  -3.093  0.00  0.00    -0.247 OA
HETATM    7  N   UNK N   1      28.381  23.654  -2.209  0.00  0.00    -0.274 N 
HETATM    8  C   UNK N   1      29.650  23.175  -2.407  0.00  0.00     0.267 A 
HETATM    9  O   UNK N   1      30.349  22.904  -1.447  0.00  0.00    -0.267 OA
HETATM   10  H   UNK N   1      27.466  24.021  -5.317  0.00  0.00     0.170 HD
HETATM   11  H   UNK N   1      28.042  23.777  -1.294  0.00  0.00     0.173 HD
ENDROOT
TORSDOF 0
ENDMDL
