REMARK  2 active torsions:
REMARK  status: ('A' for Active; 'I' for Inactive)
REMARK    1  A    between atoms: C_5  and  N_10 
REMARK    2  A    between atoms: C_6  and  N_7 
ROOT
HETATM    1  C   UNK N   1      -0.232  -1.387  -0.004  0.00  0.00     0.070 A 
HETATM    2  C   UNK N   1       0.967  -0.698   0.000  0.00  0.00     0.064 A 
HETATM    3  C   UNK N   1       0.967   0.698  -0.000  0.00  0.00     0.064 A 
HETATM    4  C   UNK N   1      -0.232   1.387   0.004  0.00  0.00     0.070 A 
HETATM    5  C   UNK N   1      -1.475   0.730   0.006  0.00  0.00     0.138 A 
HETATM    6  C   UNK N   1      -1.475  -0.730  -0.006  0.00  0.00     0.138 A 
HETATM    7  N   UNK N   1       2.143   1.374  -0.002  0.00  0.00    -0.317 N 
HETATM    8  C   UNK N   1       3.336   0.702  -0.002  0.00  0.00     0.314 A 
HETATM    9  O   UNK N   1       4.382   1.325  -0.004  0.00  0.00    -0.262 OA
HETATM   10  C   UNK N   1       3.336  -0.702   0.002  0.00  0.00     0.314 A 
HETATM   11  O   UNK N   1       4.382  -1.325   0.004  0.00  0.00    -0.262 OA
HETATM   12  N   UNK N   1       2.143  -1.374   0.002  0.00  0.00    -0.317 N 
HETATM   13  H   UNK N   1       2.139   2.359  -0.004  0.00  0.00     0.169 HD
HETATM   14  H   UNK N   1       2.139  -2.359   0.004  0.00  0.00     0.169 HD
ENDROOT
BRANCH   5  15
HETATM   15  N   UNK N   1      -2.625   1.593   0.027  0.00  0.00    -0.113 N 
HETATM   16  O   UNK N   1      -3.735   1.176   0.087  0.00  0.00    -0.532 OA
HETATM   17  O   UNK N   1      -2.445   2.899   0.031  0.00  0.00    -0.532 OA
ENDBRANCH   5  15
BRANCH   6  18
HETATM   18  N   UNK N   1      -2.625  -1.593  -0.027  0.00  0.00    -0.113 N 
HETATM   19  O   UNK N   1      -3.735  -1.176  -0.087  0.00  0.00    -0.532 OA
HETATM   20  O   UNK N   1      -2.445  -2.899  -0.031  0.00  0.00    -0.532 OA
ENDBRANCH   6  18
TORSDOF 2
