MODEL 1
REMARK VINA RESULT:      -4.7      0.000      0.000
REMARK  0 active torsions:
REMARK  status: ('A' for Active; 'I' for Inactive)
ROOT
HETATM    1  C   UNK N   1      28.001  26.501  -4.593  0.00  0.00     0.009 C 
HETATM    2  C   UNK N   1      26.743  26.015  -3.854  0.00  0.00    -0.013 C 
HETATM    3  C   UNK N   1      25.924  27.232  -3.392  0.00  0.00     0.009 C 
HETATM    4  C   UNK N   1      25.511  28.080  -4.606  0.00  0.00    -0.013 C 
HETATM    5  C   UNK N   1      26.776  28.560  -5.336  0.00  0.00     0.009 C 
HETATM    6  C   UNK N   1      27.600  27.352  -5.810  0.00  0.00    -0.013 C 
HETATM    7  C   UNK N   1      26.744  26.501  -6.762  0.00  0.00     0.009 C 
HETATM    8  C   UNK N   1      25.482  26.006  -6.035  0.00  0.00    -0.013 C 
HETATM    9  C   UNK N   1      25.894  25.166  -4.814  0.00  0.00     0.009 C 
HETATM   10  C   UNK N   1      24.666  27.219  -5.560  0.00  0.00     0.009 C 
ENDROOT
TORSDOF 0
ENDMDL
MODEL 2
REMARK VINA RESULT:      -4.7      0.079      2.349
REMARK  0 active torsions:
REMARK  status: ('A' for Active; 'I' for Inactive)
ROOT
HETATM    1  C   UNK N   1      26.791  28.578  -5.293  0.00  0.00     0.009 C 
HETATM    2  C   UNK N   1      25.537  28.070  -4.561  0.00  0.00    -0.013 C 
HETATM    3  C   UNK N   1      24.669  27.263  -5.541  0.00  0.00     0.009 C 
HETATM    4  C   UNK N   1      25.466  26.066  -6.086  0.00  0.00    -0.013 C 
HETATM    5  C   UNK N   1      26.715  26.586  -6.816  0.00  0.00     0.009 C 
HETATM    6  C   UNK N   1      27.595  27.389  -5.844  0.00  0.00    -0.013 C 
HETATM    7  C   UNK N   1      28.017  26.480  -4.678  0.00  0.00     0.009 C 
HETATM    8  C   UNK N   1      26.773  25.965  -3.935  0.00  0.00    -0.013 C 
HETATM    9  C   UNK N   1      25.969  27.162  -3.398  0.00  0.00     0.009 C 
HETATM   10  C   UNK N   1      25.895  25.168  -4.914  0.00  0.00     0.009 C 
ENDROOT
TORSDOF 0
ENDMDL
MODEL 3
REMARK VINA RESULT:      -4.7      0.038      2.751
REMARK  0 active torsions:
REMARK  status: ('A' for Active; 'I' for Inactive)
ROOT
HETATM    1  C   UNK N   1      28.001  26.520  -4.560  0.00  0.00     0.009 C 
HETATM    2  C   UNK N   1      27.597  27.334  -5.801  0.00  0.00    -0.013 C 
HETATM    3  C   UNK N   1      26.747  26.451  -6.732  0.00  0.00     0.009 C 
HETATM    4  C   UNK N   1      25.484  25.976  -5.997  0.00  0.00    -0.013 C 
HETATM    5  C   UNK N   1      25.900  25.163  -4.759  0.00  0.00     0.009 C 
HETATM    6  C   UNK N   1      26.744  26.037  -3.817  0.00  0.00    -0.013 C 
HETATM    7  C   UNK N   1      25.914  27.256  -3.381  0.00  0.00     0.009 C 
HETATM    8  C   UNK N   1      25.504  28.081  -4.613  0.00  0.00    -0.013 C 
HETATM    9  C   UNK N   1      26.767  28.549  -5.356  0.00  0.00     0.009 C 
HETATM   10  C   UNK N   1      24.665  27.200  -5.553  0.00  0.00     0.009 C 
ENDROOT
TORSDOF 0
ENDMDL
MODEL 4
REMARK VINA RESULT:      -4.7      0.076      2.403
REMARK  0 active torsions:
REMARK  status: ('A' for Active; 'I' for Inactive)
ROOT
HETATM    1  C   UNK N   1      26.657  26.476  -6.811  0.00  0.00     0.009 C 
HETATM    2  C   UNK N   1      25.411  26.001  -6.042  0.00  0.00    -0.013 C 
HETATM    3  C   UNK N   1      25.851  25.140  -4.847  0.00  0.00     0.009 C 
HETATM    4  C   UNK N   1      26.750  25.961  -3.909  0.00  0.00    -0.013 C 
HETATM    5  C   UNK N   1      27.991  26.429  -4.687  0.00  0.00     0.009 C 
HETATM    6  C   UNK N   1      27.565  27.298  -5.881  0.00  0.00    -0.013 C 
HETATM    7  C   UNK N   1      26.788  28.519  -5.364  0.00  0.00     0.009 C 
HETATM    8  C   UNK N   1      25.538  28.060  -4.595  0.00  0.00    -0.013 C 
HETATM    9  C   UNK N   1      24.641  27.229  -5.529  0.00  0.00     0.009 C 
HETATM   10  C   UNK N   1      25.971  27.188  -3.405  0.00  0.00     0.009 C 
ENDROOT
TORSDOF 0
ENDMDL
MODEL 5
REMARK VINA RESULT:      -4.7      0.105      2.349
REMARK  0 active torsions:
REMARK  status: ('A' for Active; 'I' for Inactive)
ROOT
HETATM    1  C   UNK N   1      25.972  27.142  -3.410  0.00  0.00     0.009 C 
HETATM    2  C   UNK N   1      25.527  28.063  -4.559  0.00  0.00    -0.013 C 
HETATM    3  C   UNK N   1      26.769  28.580  -5.305  0.00  0.00     0.009 C 
HETATM    4  C   UNK N   1      27.569  27.397  -5.877  0.00  0.00    -0.013 C 
HETATM    5  C   UNK N   1      28.009  26.485  -4.720  0.00  0.00     0.009 C 
HETATM    6  C   UNK N   1      26.775  25.956  -3.970  0.00  0.00    -0.013 C 
HETATM    7  C   UNK N   1      25.892  25.163  -4.948  0.00  0.00     0.009 C 
HETATM    8  C   UNK N   1      25.437  26.073  -6.101  0.00  0.00    -0.013 C 
HETATM    9  C   UNK N   1      24.646  27.263  -5.531  0.00  0.00     0.009 C 
HETATM   10  C   UNK N   1      26.676  26.602  -6.844  0.00  0.00     0.009 C 
ENDROOT
TORSDOF 0
ENDMDL
MODEL 6
REMARK VINA RESULT:      -4.7      0.068      2.388
REMARK  0 active torsions:
REMARK  status: ('A' for Active; 'I' for Inactive)
ROOT
HETATM    1  C   UNK N   1      25.912  25.181  -4.865  0.00  0.00     0.009 C 
HETATM    2  C   UNK N   1      26.794  26.011  -3.917  0.00  0.00    -0.013 C 
HETATM    3  C   UNK N   1      28.022  26.526  -4.687  0.00  0.00     0.009 C 
HETATM    4  C   UNK N   1      27.573  27.402  -5.868  0.00  0.00    -0.013 C 
HETATM    5  C   UNK N   1      26.694  26.562  -6.808  0.00  0.00     0.009 C 
HETATM    6  C   UNK N   1      25.458  26.047  -6.052  0.00  0.00    -0.013 C 
HETATM    7  C   UNK N   1      24.654  27.247  -5.525  0.00  0.00     0.009 C 
HETATM    8  C   UNK N   1      25.524  28.085  -4.573  0.00  0.00    -0.013 C 
HETATM    9  C   UNK N   1      25.983  27.208  -3.396  0.00  0.00     0.009 C 
HETATM   10  C   UNK N   1      26.759  28.592  -5.334  0.00  0.00     0.009 C 
ENDROOT
TORSDOF 0
ENDMDL
MODEL 7
REMARK VINA RESULT:      -4.7      0.106      2.383
REMARK  0 active torsions:
REMARK  status: ('A' for Active; 'I' for Inactive)
ROOT
HETATM    1  C   UNK N   1      25.961  27.153  -3.407  0.00  0.00     0.009 C 
HETATM    2  C   UNK N   1      26.761  25.964  -3.967  0.00  0.00    -0.013 C 
HETATM    3  C   UNK N   1      25.880  25.179  -4.953  0.00  0.00     0.009 C 
HETATM    4  C   UNK N   1      25.442  26.093  -6.110  0.00  0.00    -0.013 C 
HETATM    5  C   UNK N   1      24.643  27.276  -5.538  0.00  0.00     0.009 C 
HETATM    6  C   UNK N   1      25.516  28.074  -4.556  0.00  0.00    -0.013 C 
HETATM    7  C   UNK N   1      26.758  28.597  -5.295  0.00  0.00     0.009 C 
HETATM    8  C   UNK N   1      27.569  27.418  -5.859  0.00  0.00    -0.013 C 
HETATM    9  C   UNK N   1      27.999  26.497  -4.705  0.00  0.00     0.009 C 
HETATM   10  C   UNK N   1      26.689  26.623  -6.837  0.00  0.00     0.009 C 
ENDROOT
TORSDOF 0
ENDMDL
MODEL 8
REMARK VINA RESULT:      -4.7      0.102      2.409
REMARK  0 active torsions:
REMARK  status: ('A' for Active; 'I' for Inactive)
ROOT
HETATM    1  C   UNK N   1      26.796  28.569  -5.308  0.00  0.00     0.009 C 
HETATM    2  C   UNK N   1      27.591  27.377  -5.867  0.00  0.00    -0.013 C 
HETATM    3  C   UNK N   1      28.011  26.459  -4.707  0.00  0.00     0.009 C 
HETATM    4  C   UNK N   1      26.767  25.943  -3.967  0.00  0.00    -0.013 C 
HETATM    5  C   UNK N   1      25.981  27.143  -3.412  0.00  0.00     0.009 C 
HETATM    6  C   UNK N   1      25.548  28.065  -4.563  0.00  0.00    -0.013 C 
HETATM    7  C   UNK N   1      24.663  27.272  -5.539  0.00  0.00     0.009 C 
HETATM    8  C   UNK N   1      25.446  26.078  -6.108  0.00  0.00    -0.013 C 
HETATM    9  C   UNK N   1      26.698  26.591  -6.840  0.00  0.00     0.009 C 
HETATM   10  C   UNK N   1      25.879  25.162  -4.951  0.00  0.00     0.009 C 
ENDROOT
TORSDOF 0
ENDMDL
MODEL 9
REMARK VINA RESULT:      -4.7      0.110      2.751
REMARK  0 active torsions:
REMARK  status: ('A' for Active; 'I' for Inactive)
ROOT
HETATM    1  C   UNK N   1      24.643  27.249  -5.554  0.00  0.00     0.009 C 
HETATM    2  C   UNK N   1      25.430  26.053  -6.116  0.00  0.00    -0.013 C 
HETATM    3  C   UNK N   1      26.672  26.568  -6.862  0.00  0.00     0.009 C 
HETATM    4  C   UNK N   1      27.570  27.366  -5.902  0.00  0.00    -0.013 C 
HETATM    5  C   UNK N   1      26.774  28.558  -5.347  0.00  0.00     0.009 C 
HETATM    6  C   UNK N   1      25.532  28.056  -4.592  0.00  0.00    -0.013 C 
HETATM    7  C   UNK N   1      25.979  27.148  -3.434  0.00  0.00     0.009 C 
HETATM    8  C   UNK N   1      26.765  25.946  -3.983  0.00  0.00    -0.013 C 
HETATM    9  C   UNK N   1      25.873  25.152  -4.952  0.00  0.00     0.009 C 
HETATM   10  C   UNK N   1      28.002  26.455  -4.740  0.00  0.00     0.009 C 
ENDROOT
TORSDOF 0
ENDMDL
