MODEL 1
REMARK VINA RESULT:      -4.3      0.000      0.000
REMARK  9 active torsions:
REMARK  status: ('A' for Active; 'I' for Inactive)
REMARK    1  A    between atoms: O_1  and  C_2 
REMARK    2  A    between atoms: C_2  and  C_3 
REMARK    3  A    between atoms: C_3  and  N_4 
REMARK    4  A    between atoms: N_4  and  C_5 
REMARK    5  A    between atoms: N_4  and  C_8 
REMARK    6  A    between atoms: C_5  and  C_6 
REMARK    7  A    between atoms: C_6  and  O_7 
REMARK    8  A    between atoms: C_8  and  C_9 
REMARK    9  A    between atoms: C_9  and  O_10 
ROOT
HETATM    1  N   UNK N   1      34.883  16.112   9.197  0.00  0.00     0.102 N 
ENDROOT
BRANCH   1   2
HETATM    2  C   UNK N   1      34.593  15.570  10.518  0.00  0.00     0.299 C 
BRANCH   2   3
HETATM    3  C   UNK N   1      35.741  15.819  11.482  0.00  0.00     0.194 C 
BRANCH   3   4
HETATM    4  O   UNK N   1      36.882  16.166  10.760  0.00  0.00    -0.399 OA
HETATM    5  H   UNK N   1      37.441  15.504  10.322  0.00  0.00     0.209 HD
ENDBRANCH   3   4
ENDBRANCH   2   3
ENDBRANCH   1   2
BRANCH   1   6
HETATM    6  C   UNK N   1      34.514  15.066   8.254  0.00  0.00     0.299 C 
BRANCH   6   7
HETATM    7  C   UNK N   1      35.678  14.755   7.335  0.00  0.00     0.194 C 
BRANCH   7   8
HETATM    8  O   UNK N   1      35.567  15.518   6.173  0.00  0.00    -0.399 OA
HETATM    9  H   UNK N   1      35.523  15.158   5.274  0.00  0.00     0.209 HD
ENDBRANCH   7   8
ENDBRANCH   6   7
ENDBRANCH   1   6
BRANCH   1  10
HETATM   10  C   UNK N   1      33.973  17.233   8.973  0.00  0.00     0.381 C 
BRANCH  10  11
HETATM   11  C   UNK N   1      34.589  18.265   8.079  0.00  0.00     0.169 C 
HETATM   12  O   UNK N   1      34.437  18.190   6.872  0.00  0.00    -0.649 OA
BRANCH  11  13
HETATM   13  O   UNK N   1      35.339  19.255   8.598  0.00  0.00    -0.775 OA
HETATM   14  H   UNK N   1      35.874  19.096   9.351  0.00  0.00     0.167 HD
ENDBRANCH  11  13
ENDBRANCH  10  11
ENDBRANCH   1  10
TORSDOF 9
ENDMDL
MODEL 2
REMARK VINA RESULT:      -4.2      1.835      2.159
REMARK  9 active torsions:
REMARK  status: ('A' for Active; 'I' for Inactive)
REMARK    1  A    between atoms: O_1  and  C_2 
REMARK    2  A    between atoms: C_2  and  C_3 
REMARK    3  A    between atoms: C_3  and  N_4 
REMARK    4  A    between atoms: N_4  and  C_5 
REMARK    5  A    between atoms: N_4  and  C_8 
REMARK    6  A    between atoms: C_5  and  C_6 
REMARK    7  A    between atoms: C_6  and  O_7 
REMARK    8  A    between atoms: C_8  and  C_9 
REMARK    9  A    between atoms: C_9  and  O_10 
ROOT
HETATM    1  N   UNK N   1      34.522  15.872   8.597  0.00  0.00     0.102 N 
ENDROOT
BRANCH   1   2
HETATM    2  C   UNK N   1      35.182  15.214   9.717  0.00  0.00     0.299 C 
BRANCH   2   3
HETATM    3  C   UNK N   1      35.637  16.220  10.761  0.00  0.00     0.194 C 
BRANCH   3   4
HETATM    4  O   UNK N   1      37.022  16.141  10.904  0.00  0.00    -0.399 OA
HETATM    5  H   UNK N   1      37.632  16.344  10.177  0.00  0.00     0.209 HD
ENDBRANCH   3   4
ENDBRANCH   2   3
ENDBRANCH   1   2
BRANCH   1   6
HETATM    6  C   UNK N   1      33.296  15.123   8.367  0.00  0.00     0.299 C 
BRANCH   6   7
HETATM    7  C   UNK N   1      32.130  15.801   9.057  0.00  0.00     0.194 C 
BRANCH   7   8
HETATM    8  O   UNK N   1      31.773  15.067  10.187  0.00  0.00    -0.399 OA
HETATM    9  H   UNK N   1      31.591  15.446  11.062  0.00  0.00     0.209 HD
ENDBRANCH   7   8
ENDBRANCH   6   7
ENDBRANCH   1   6
BRANCH   1  10
HETATM   10  C   UNK N   1      34.132  17.209   9.043  0.00  0.00     0.381 C 
BRANCH  10  11
HETATM   11  C   UNK N   1      34.632  18.264   8.105  0.00  0.00     0.169 C 
HETATM   12  O   UNK N   1      34.423  18.160   6.909  0.00  0.00    -0.649 OA
BRANCH  11  13
HETATM   13  O   UNK N   1      35.343  19.307   8.571  0.00  0.00    -0.775 OA
HETATM   14  H   UNK N   1      35.208  19.617   9.445  0.00  0.00     0.167 HD
ENDBRANCH  11  13
ENDBRANCH  10  11
ENDBRANCH   1  10
TORSDOF 9
ENDMDL
MODEL 3
REMARK VINA RESULT:      -4.1      2.277      3.099
REMARK  9 active torsions:
REMARK  status: ('A' for Active; 'I' for Inactive)
REMARK    1  A    between atoms: O_1  and  C_2 
REMARK    2  A    between atoms: C_2  and  C_3 
REMARK    3  A    between atoms: C_3  and  N_4 
REMARK    4  A    between atoms: N_4  and  C_5 
REMARK    5  A    between atoms: N_4  and  C_8 
REMARK    6  A    between atoms: C_5  and  C_6 
REMARK    7  A    between atoms: C_6  and  O_7 
REMARK    8  A    between atoms: C_8  and  C_9 
REMARK    9  A    between atoms: C_9  and  O_10 
ROOT
HETATM    1  N   UNK N   1      32.785  16.580   8.213  0.00  0.00     0.102 N 
ENDROOT
BRANCH   1   2
HETATM    2  C   UNK N   1      32.512  15.402   9.026  0.00  0.00     0.299 C 
BRANCH   2   3
HETATM    3  C   UNK N   1      33.703  15.045   9.899  0.00  0.00     0.194 C 
BRANCH   3   4
HETATM    4  O   UNK N   1      33.273  14.857  11.212  0.00  0.00    -0.399 OA
HETATM    5  H   UNK N   1      33.812  14.399  11.875  0.00  0.00     0.209 HD
ENDBRANCH   3   4
ENDBRANCH   2   3
ENDBRANCH   1   2
BRANCH   1   6
HETATM    6  C   UNK N   1      31.542  17.336   8.186  0.00  0.00     0.299 C 
BRANCH   6   7
HETATM    7  C   UNK N   1      30.827  17.121   6.867  0.00  0.00     0.194 C 
BRANCH   7   8
HETATM    8  O   UNK N   1      31.733  17.274   5.820  0.00  0.00    -0.399 OA
HETATM    9  H   UNK N   1      32.557  16.771   5.719  0.00  0.00     0.209 HD
ENDBRANCH   7   8
ENDBRANCH   6   7
ENDBRANCH   1   6
BRANCH   1  10
HETATM   10  C   UNK N   1      33.766  17.392   8.932  0.00  0.00     0.381 C 
BRANCH  10  11
HETATM   11  C   UNK N   1      34.542  18.265   7.996  0.00  0.00     0.169 C 
HETATM   12  O   UNK N   1      35.223  19.175   8.439  0.00  0.00    -0.649 OA
BRANCH  11  13
HETATM   13  O   UNK N   1      34.465  18.077   6.666  0.00  0.00    -0.775 OA
HETATM   14  H   UNK N   1      33.798  18.506   6.166  0.00  0.00     0.167 HD
ENDBRANCH  11  13
ENDBRANCH  10  11
ENDBRANCH   1  10
TORSDOF 9
ENDMDL
MODEL 4
REMARK VINA RESULT:      -4.0     14.496     15.491
REMARK  9 active torsions:
REMARK  status: ('A' for Active; 'I' for Inactive)
REMARK    1  A    between atoms: O_1  and  C_2 
REMARK    2  A    between atoms: C_2  and  C_3 
REMARK    3  A    between atoms: C_3  and  N_4 
REMARK    4  A    between atoms: N_4  and  C_5 
REMARK    5  A    between atoms: N_4  and  C_8 
REMARK    6  A    between atoms: C_5  and  C_6 
REMARK    7  A    between atoms: C_6  and  O_7 
REMARK    8  A    between atoms: C_8  and  C_9 
REMARK    9  A    between atoms: C_9  and  O_10 
ROOT
HETATM    1  N   UNK N   1      20.871  18.495   3.197  0.00  0.00     0.102 N 
ENDROOT
BRANCH   1   2
HETATM    2  C   UNK N   1      20.832  17.819   4.486  0.00  0.00     0.299 C 
BRANCH   2   3
HETATM    3  C   UNK N   1      21.935  18.315   5.406  0.00  0.00     0.194 C 
BRANCH   3   4
HETATM    4  O   UNK N   1      21.407  18.546   6.675  0.00  0.00    -0.399 OA
HETATM    5  H   UNK N   1      21.795  18.161   7.477  0.00  0.00     0.209 HD
ENDBRANCH   3   4
ENDBRANCH   2   3
ENDBRANCH   1   2
BRANCH   1   6
HETATM    6  C   UNK N   1      19.696  18.033   2.473  0.00  0.00     0.299 C 
BRANCH   6   7
HETATM    7  C   UNK N   1      20.109  17.344   1.188  0.00  0.00     0.194 C 
BRANCH   7   8
HETATM    8  O   UNK N   1      20.296  18.300   0.191  0.00  0.00    -0.399 OA
HETATM    9  H   UNK N   1      19.608  18.609  -0.419  0.00  0.00     0.209 HD
ENDBRANCH   7   8
ENDBRANCH   6   7
ENDBRANCH   1   6
BRANCH   1  10
HETATM   10  C   UNK N   1      20.689  19.924   3.445  0.00  0.00     0.381 C 
BRANCH  10  11
HETATM   11  C   UNK N   1      21.505  20.751   2.500  0.00  0.00     0.169 C 
HETATM   12  O   UNK N   1      22.527  21.288   2.893  0.00  0.00    -0.649 OA
BRANCH  11  13
HETATM   13  O   UNK N   1      21.099  20.935   1.231  0.00  0.00    -0.775 OA
HETATM   14  H   UNK N   1      21.718  21.167   0.567  0.00  0.00     0.167 HD
ENDBRANCH  11  13
ENDBRANCH  10  11
ENDBRANCH   1  10
TORSDOF 9
ENDMDL
MODEL 5
REMARK VINA RESULT:      -3.9      1.844      3.780
REMARK  9 active torsions:
REMARK  status: ('A' for Active; 'I' for Inactive)
REMARK    1  A    between atoms: O_1  and  C_2 
REMARK    2  A    between atoms: C_2  and  C_3 
REMARK    3  A    between atoms: C_3  and  N_4 
REMARK    4  A    between atoms: N_4  and  C_5 
REMARK    5  A    between atoms: N_4  and  C_8 
REMARK    6  A    between atoms: C_5  and  C_6 
REMARK    7  A    between atoms: C_6  and  O_7 
REMARK    8  A    between atoms: C_8  and  C_9 
REMARK    9  A    between atoms: C_9  and  O_10 
ROOT
HETATM    1  N   UNK N   1      33.791  16.093   8.734  0.00  0.00     0.102 N 
ENDROOT
BRANCH   1   2
HETATM    2  C   UNK N   1      34.318  15.663   7.445  0.00  0.00     0.299 C 
BRANCH   2   3
HETATM    3  C   UNK N   1      34.320  16.803   6.441  0.00  0.00     0.194 C 
BRANCH   3   4
HETATM    4  O   UNK N   1      34.523  18.009   7.112  0.00  0.00    -0.399 OA
HETATM    5  H   UNK N   1      34.607  18.058   8.077  0.00  0.00     0.209 HD
ENDBRANCH   3   4
ENDBRANCH   2   3
ENDBRANCH   1   2
BRANCH   1   6
HETATM    6  C   UNK N   1      32.486  15.460   8.856  0.00  0.00     0.299 C 
BRANCH   6   7
HETATM    7  C   UNK N   1      31.387  16.482   8.651  0.00  0.00     0.194 C 
BRANCH   7   8
HETATM    8  O   UNK N   1      31.892  17.759   8.893  0.00  0.00    -0.399 OA
HETATM    9  H   UNK N   1      31.557  18.371   9.567  0.00  0.00     0.209 HD
ENDBRANCH   7   8
ENDBRANCH   6   7
ENDBRANCH   1   6
BRANCH   1  10
HETATM   10  C   UNK N   1      34.646  15.518   9.771  0.00  0.00     0.381 C 
BRANCH  10  11
HETATM   11  C   UNK N   1      35.633  16.522  10.282  0.00  0.00     0.169 C 
HETATM   12  O   UNK N   1      35.431  17.712  10.111  0.00  0.00    -0.649 OA
BRANCH  11  13
HETATM   13  O   UNK N   1      36.759  16.117  10.898  0.00  0.00    -0.775 OA
HETATM   14  H   UNK N   1      37.586  16.489  10.660  0.00  0.00     0.167 HD
ENDBRANCH  11  13
ENDBRANCH  10  11
ENDBRANCH   1  10
TORSDOF 9
ENDMDL
MODEL 6
REMARK VINA RESULT:      -3.9      3.181      4.182
REMARK  9 active torsions:
REMARK  status: ('A' for Active; 'I' for Inactive)
REMARK    1  A    between atoms: O_1  and  C_2 
REMARK    2  A    between atoms: C_2  and  C_3 
REMARK    3  A    between atoms: C_3  and  N_4 
REMARK    4  A    between atoms: N_4  and  C_5 
REMARK    5  A    between atoms: N_4  and  C_8 
REMARK    6  A    between atoms: C_5  and  C_6 
REMARK    7  A    between atoms: C_6  and  O_7 
REMARK    8  A    between atoms: C_8  and  C_9 
REMARK    9  A    between atoms: C_9  and  O_10 
ROOT
HETATM    1  N   UNK N   1      35.975  14.025  12.148  0.00  0.00     0.102 N 
ENDROOT
BRANCH   1   2
HETATM    2  C   UNK N   1      35.373  13.547  13.385  0.00  0.00     0.299 C 
BRANCH   2   3
HETATM    3  C   UNK N   1      36.277  13.809  14.577  0.00  0.00     0.194 C 
BRANCH   3   4
HETATM    4  O   UNK N   1      37.054  14.939  14.327  0.00  0.00    -0.399 OA
HETATM    5  H   UNK N   1      36.694  15.839  14.376  0.00  0.00     0.209 HD
ENDBRANCH   3   4
ENDBRANCH   2   3
ENDBRANCH   1   2
BRANCH   1   6
HETATM    6  C   UNK N   1      36.031  12.870  11.265  0.00  0.00     0.299 C 
BRANCH   6   7
HETATM    7  C   UNK N   1      37.451  12.349  11.172  0.00  0.00     0.194 C 
BRANCH   7   8
HETATM    8  O   UNK N   1      38.336  13.425  11.131  0.00  0.00    -0.399 OA
HETATM    9  H   UNK N   1      38.595  13.961  11.897  0.00  0.00     0.209 HD
ENDBRANCH   7   8
ENDBRANCH   6   7
ENDBRANCH   1   6
BRANCH   1  10
HETATM   10  C   UNK N   1      35.046  14.980  11.547  0.00  0.00     0.381 C 
BRANCH  10  11
HETATM   11  C   UNK N   1      35.769  16.164  10.982  0.00  0.00     0.169 C 
HETATM   12  O   UNK N   1      35.138  17.143  10.620  0.00  0.00    -0.649 OA
BRANCH  11  13
HETATM   13  O   UNK N   1      37.106  16.140  10.838  0.00  0.00    -0.775 OA
HETATM   14  H   UNK N   1      37.650  16.669  11.388  0.00  0.00     0.167 HD
ENDBRANCH  11  13
ENDBRANCH  10  11
ENDBRANCH   1  10
TORSDOF 9
ENDMDL
MODEL 7
REMARK VINA RESULT:      -3.8     14.565     15.882
REMARK  9 active torsions:
REMARK  status: ('A' for Active; 'I' for Inactive)
REMARK    1  A    between atoms: O_1  and  C_2 
REMARK    2  A    between atoms: C_2  and  C_3 
REMARK    3  A    between atoms: C_3  and  N_4 
REMARK    4  A    between atoms: N_4  and  C_5 
REMARK    5  A    between atoms: N_4  and  C_8 
REMARK    6  A    between atoms: C_5  and  C_6 
REMARK    7  A    between atoms: C_6  and  O_7 
REMARK    8  A    between atoms: C_8  and  C_9 
REMARK    9  A    between atoms: C_9  and  O_10 
ROOT
HETATM    1  N   UNK N   1      20.876  18.638   2.596  0.00  0.00     0.102 N 
ENDROOT
BRANCH   1   2
HETATM    2  C   UNK N   1      19.869  17.687   2.144  0.00  0.00     0.299 C 
BRANCH   2   3
HETATM    3  C   UNK N   1      20.391  16.828   1.005  0.00  0.00     0.194 C 
BRANCH   3   4
HETATM    4  O   UNK N   1      20.246  17.519  -0.197  0.00  0.00    -0.399 OA
HETATM    5  H   UNK N   1      19.704  18.320  -0.274  0.00  0.00     0.209 HD
ENDBRANCH   3   4
ENDBRANCH   2   3
ENDBRANCH   1   2
BRANCH   1   6
HETATM    6  C   UNK N   1      20.339  19.956   2.291  0.00  0.00     0.299 C 
BRANCH   6   7
HETATM    7  C   UNK N   1      21.170  20.624   1.214  0.00  0.00     0.194 C 
BRANCH   7   8
HETATM    8  O   UNK N   1      20.549  20.449  -0.022  0.00  0.00    -0.399 OA
HETATM    9  H   UNK N   1      21.006  20.448  -0.878  0.00  0.00     0.209 HD
ENDBRANCH   7   8
ENDBRANCH   6   7
ENDBRANCH   1   6
BRANCH   1  10
HETATM   10  C   UNK N   1      20.957  18.533   4.052  0.00  0.00     0.381 C 
BRANCH  10  11
HETATM   11  C   UNK N   1      22.379  18.481   4.517  0.00  0.00     0.169 C 
HETATM   12  O   UNK N   1      23.285  18.627   3.715  0.00  0.00    -0.649 OA
BRANCH  11  13
HETATM   13  O   UNK N   1      22.665  18.237   5.809  0.00  0.00    -0.775 OA
HETATM   14  H   UNK N   1      23.531  18.381   6.136  0.00  0.00     0.167 HD
ENDBRANCH  11  13
ENDBRANCH  10  11
ENDBRANCH   1  10
TORSDOF 9
ENDMDL
MODEL 8
REMARK VINA RESULT:      -3.8     15.159     16.510
REMARK  9 active torsions:
REMARK  status: ('A' for Active; 'I' for Inactive)
REMARK    1  A    between atoms: O_1  and  C_2 
REMARK    2  A    between atoms: C_2  and  C_3 
REMARK    3  A    between atoms: C_3  and  N_4 
REMARK    4  A    between atoms: N_4  and  C_5 
REMARK    5  A    between atoms: N_4  and  C_8 
REMARK    6  A    between atoms: C_5  and  C_6 
REMARK    7  A    between atoms: C_6  and  O_7 
REMARK    8  A    between atoms: C_8  and  C_9 
REMARK    9  A    between atoms: C_9  and  O_10 
ROOT
HETATM    1  N   UNK N   1      20.906  18.524   2.486  0.00  0.00     0.102 N 
ENDROOT
BRANCH   1   2
HETATM    2  C   UNK N   1      20.141  19.743   2.258  0.00  0.00     0.299 C 
BRANCH   2   3
HETATM    3  C   UNK N   1      20.885  20.699   1.341  0.00  0.00     0.194 C 
BRANCH   3   4
HETATM    4  O   UNK N   1      20.557  20.417   0.016  0.00  0.00    -0.399 OA
HETATM    5  H   UNK N   1      21.027  19.745  -0.505  0.00  0.00     0.209 HD
ENDBRANCH   3   4
ENDBRANCH   2   3
ENDBRANCH   1   2
BRANCH   1   6
HETATM    6  C   UNK N   1      21.139  18.468   3.921  0.00  0.00     0.299 C 
BRANCH   6   7
HETATM    7  C   UNK N   1      20.525  17.211   4.503  0.00  0.00     0.194 C 
BRANCH   7   8
HETATM    8  O   UNK N   1      20.759  17.176   5.877  0.00  0.00    -0.399 OA
HETATM    9  H   UNK N   1      20.138  16.832   6.538  0.00  0.00     0.209 HD
ENDBRANCH   7   8
ENDBRANCH   6   7
ENDBRANCH   1   6
BRANCH   1  10
HETATM   10  C   UNK N   1      20.043  17.394   2.146  0.00  0.00     0.381 C 
BRANCH  10  11
HETATM   11  C   UNK N   1      20.398  16.818   0.810  0.00  0.00     0.169 C 
HETATM   12  O   UNK N   1      20.883  15.702   0.741  0.00  0.00    -0.649 OA
BRANCH  11  13
HETATM   13  O   UNK N   1      20.219  17.539  -0.312  0.00  0.00    -0.775 OA
HETATM   14  H   UNK N   1      20.838  18.202  -0.550  0.00  0.00     0.167 HD
ENDBRANCH  11  13
ENDBRANCH  10  11
ENDBRANCH   1  10
TORSDOF 9
ENDMDL
MODEL 9
REMARK VINA RESULT:      -3.8      3.167      5.195
REMARK  9 active torsions:
REMARK  status: ('A' for Active; 'I' for Inactive)
REMARK    1  A    between atoms: O_1  and  C_2 
REMARK    2  A    between atoms: C_2  and  C_3 
REMARK    3  A    between atoms: C_3  and  N_4 
REMARK    4  A    between atoms: N_4  and  C_5 
REMARK    5  A    between atoms: N_4  and  C_8 
REMARK    6  A    between atoms: C_5  and  C_6 
REMARK    7  A    between atoms: C_6  and  O_7 
REMARK    8  A    between atoms: C_8  and  C_9 
REMARK    9  A    between atoms: C_9  and  O_10 
ROOT
HETATM    1  N   UNK N   1      35.951  13.850  11.080  0.00  0.00     0.102 N 
ENDROOT
BRANCH   1   2
HETATM    2  C   UNK N   1      36.304  12.721  10.231  0.00  0.00     0.299 C 
BRANCH   2   3
HETATM    3  C   UNK N   1      37.804  12.474  10.233  0.00  0.00     0.194 C 
BRANCH   3   4
HETATM    4  O   UNK N   1      38.425  13.421  11.047  0.00  0.00    -0.399 OA
HETATM    5  H   UNK N   1      37.987  14.246  11.313  0.00  0.00     0.209 HD
ENDBRANCH   3   4
ENDBRANCH   2   3
ENDBRANCH   1   2
BRANCH   1   6
HETATM    6  C   UNK N   1      35.116  14.714  10.259  0.00  0.00     0.299 C 
BRANCH   6   7
HETATM    7  C   UNK N   1      35.613  16.144  10.329  0.00  0.00     0.194 C 
BRANCH   7   8
HETATM    8  O   UNK N   1      36.879  16.164  10.912  0.00  0.00    -0.399 OA
HETATM    9  H   UNK N   1      37.310  15.403  11.331  0.00  0.00     0.209 HD
ENDBRANCH   7   8
ENDBRANCH   6   7
ENDBRANCH   1   6
BRANCH   1  10
HETATM   10  C   UNK N   1      35.109  13.340  12.161  0.00  0.00     0.381 C 
BRANCH  10  11
HETATM   11  C   UNK N   1      35.640  13.741  13.502  0.00  0.00     0.169 C 
HETATM   12  O   UNK N   1      35.007  13.474  14.509  0.00  0.00    -0.649 OA
BRANCH  11  13
HETATM   13  O   UNK N   1      36.794  14.427  13.601  0.00  0.00    -0.775 OA
HETATM   14  H   UNK N   1      37.378  14.474  12.869  0.00  0.00     0.167 HD
ENDBRANCH  11  13
ENDBRANCH  10  11
ENDBRANCH   1  10
TORSDOF 9
ENDMDL
