REMARK  5 active torsions:
REMARK  status: ('A' for Active; 'I' for Inactive)
REMARK    1  A    between atoms: N_4  and  C_14 
REMARK       I    between atoms: C_11  and  N_13 
REMARK    2  A    between atoms: C_15  and  O_22 
REMARK    3  A    between atoms: C_16  and  O_21 
REMARK    4  A    between atoms: C_17  and  C_19 
REMARK    5  A    between atoms: C_19  and  O_20 
ROOT
HETATM    1  C   UNK N   1       1.060  -4.083  -0.050  0.00  0.00     0.157 C 
HETATM    2  N   UNK N   1       0.661  -2.689   0.040  0.00  0.00    -0.340 N 
HETATM    3  C   UNK N   1       1.485  -1.632   0.257  0.00  0.00     0.190 A 
HETATM    4  N   UNK N   1       0.777  -0.470   0.294  0.00  0.00    -0.296 N 
HETATM    5  C   UNK N   1      -0.507  -0.835   0.108  0.00  0.00     0.159 A 
HETATM    6  C   UNK N   1      -0.581  -2.176  -0.038  0.00  0.00     0.149 A 
HETATM    7  C   UNK N   1      -1.814  -2.791  -0.207  0.00  0.00     0.290 A 
HETATM    8  O   UNK N   1      -1.915  -3.999  -0.329  0.00  0.00    -0.265 OA
HETATM    9  N   UNK N   1      -2.936  -1.991  -0.216  0.00  0.00    -0.154 N 
ATOM     10  HN  UNK N   1      -3.855  -2.414  -0.338  1.00  0.00     0.187 HD
HETATM   11  C   UNK N   1      -2.832  -0.630  -0.061  0.00  0.00     0.680 A 
HETATM   12  N   UNK N   1      -1.607  -0.041   0.105  0.00  0.00    -0.174 N 
HETATM   13  N   UNK N   1      -3.995   0.165  -0.061  0.00  0.00    -0.234 N 
HETATM   14  H   UNK N   1      -1.526   0.933   0.219  0.00  0.00     0.186 HD
HETATM   15  H   UNK N   1      -3.920   1.147  -0.060  0.00  0.00     0.174 HD
HETATM   16  H   UNK N   1      -4.882  -0.261  -0.061  0.00  0.00     0.174 HD
ENDROOT
BRANCH   4  17
HETATM   17  C   UNK N   1       1.320   0.864   0.574  0.00  0.00     0.262 C 
HETATM   18  C   UNK N   1       2.540   1.195  -0.251  0.00  0.00     0.198 C 
HETATM   19  C   UNK N   1       2.561   2.659  -0.010  0.00  0.00     0.182 C 
HETATM   20  C   UNK N   1       1.092   2.963  -0.202  0.00  0.00     0.179 C 
HETATM   21  O   UNK N   1       0.367   1.883   0.347  0.00  0.00    -0.353 OA
BRANCH  18  22
HETATM   22  O   UNK N   1       3.680   0.591   0.280  0.00  0.00    -0.388 OA
HETATM   23  H   UNK N   1       3.713  -0.305   0.649  0.00  0.00     0.210 HD
ENDBRANCH  18  22
BRANCH  19  24
HETATM   24  O   UNK N   1       3.361   3.324  -0.939  0.00  0.00    -0.390 OA
HETATM   25  H   UNK N   1       4.040   3.073  -1.585  0.00  0.00     0.210 HD
ENDBRANCH  19  24
BRANCH  20  26
HETATM   26  C   UNK N   1       0.702   4.260   0.490  0.00  0.00     0.198 C 
BRANCH  26  27
HETATM   27  O   UNK N   1       1.313   5.349  -0.132  0.00  0.00    -0.398 OA
HETATM   28  H   UNK N   1       2.181   5.359  -0.564  0.00  0.00     0.209 HD
ENDBRANCH  26  27
ENDBRANCH  20  26
ENDBRANCH   4  17
TORSDOF 5
