MODEL 1
REMARK VINA RESULT:      -4.1      0.000      0.000
REMARK  3 active torsions:
REMARK  status: ('A' for Active; 'I' for Inactive)
REMARK    1  A    between atoms: C_2  and  C_4 
REMARK    2  A    between atoms: C_4  and  C_5 
REMARK    3  A    between atoms: C_5  and  O_6 
ROOT
HETATM    1  C   UNK N   1      22.864  11.621  10.926  0.00  0.00     0.113 C 
ENDROOT
BRANCH   1   2
HETATM    2  C   UNK N   1      21.614  12.496  10.761  0.00  0.00    -0.013 C 
HETATM    3  C   UNK N   1      20.395  12.137  11.585  0.00  0.00     0.010 C 
HETATM    4  C   UNK N   1      21.511  13.693   9.832  0.00  0.00     0.010 C 
ENDBRANCH   1   2
BRANCH   1   5
HETATM    5  C   UNK N   1      23.897  12.024  11.948  0.00  0.00     0.139 C 
HETATM    6  O   UNK N   1      23.655  12.006  13.144  0.00  0.00    -0.650 OA
BRANCH   5   7
HETATM    7  O   UNK N   1      25.115  12.411  11.526  0.00  0.00    -0.776 OA
HETATM    8  H   UNK N   1      25.775  11.771  11.352  0.00  0.00     0.167 HD
ENDBRANCH   5   7
ENDBRANCH   1   5
TORSDOF 3
ENDMDL
MODEL 2
REMARK VINA RESULT:      -3.8     11.561     12.299
REMARK  3 active torsions:
REMARK  status: ('A' for Active; 'I' for Inactive)
REMARK    1  A    between atoms: C_2  and  C_4 
REMARK    2  A    between atoms: C_4  and  C_5 
REMARK    3  A    between atoms: C_5  and  O_6 
ROOT
HETATM    1  C   UNK N   1      33.223  17.512   8.638  0.00  0.00     0.113 C 
ENDROOT
BRANCH   1   2
HETATM    2  C   UNK N   1      31.779  17.550   8.117  0.00  0.00    -0.013 C 
HETATM    3  C   UNK N   1      30.785  18.406   8.874  0.00  0.00     0.010 C 
HETATM    4  C   UNK N   1      31.277  16.793   6.900  0.00  0.00     0.010 C 
ENDBRANCH   1   2
BRANCH   1   5
HETATM    5  C   UNK N   1      34.287  18.250   7.868  0.00  0.00     0.139 C 
HETATM    6  O   UNK N   1      34.976  19.111   8.391  0.00  0.00    -0.650 OA
BRANCH   5   7
HETATM    7  O   UNK N   1      34.479  17.949   6.570  0.00  0.00    -0.776 OA
HETATM    8  H   UNK N   1      35.321  18.077   6.179  0.00  0.00     0.167 HD
ENDBRANCH   5   7
ENDBRANCH   1   5
TORSDOF 3
ENDMDL
MODEL 3
REMARK VINA RESULT:      -3.7      1.742      2.727
REMARK  3 active torsions:
REMARK  status: ('A' for Active; 'I' for Inactive)
REMARK    1  A    between atoms: C_2  and  C_4 
REMARK    2  A    between atoms: C_4  and  C_5 
REMARK    3  A    between atoms: C_5  and  O_6 
ROOT
HETATM    1  C   UNK N   1      23.905  11.919  10.027  0.00  0.00     0.113 C 
ENDROOT
BRANCH   1   2
HETATM    2  C   UNK N   1      22.857  12.096  11.135  0.00  0.00    -0.013 C 
HETATM    3  C   UNK N   1      21.461  12.510  10.718  0.00  0.00     0.010 C 
HETATM    4  C   UNK N   1      23.118  11.888  12.617  0.00  0.00     0.010 C 
ENDBRANCH   1   2
BRANCH   1   5
HETATM    5  C   UNK N   1      24.897  13.029   9.788  0.00  0.00     0.139 C 
HETATM    6  O   UNK N   1      25.011  13.561   8.697  0.00  0.00    -0.650 OA
BRANCH   5   7
HETATM    7  O   UNK N   1      25.673  13.439  10.808  0.00  0.00    -0.776 OA
HETATM    8  H   UNK N   1      26.513  13.047  10.944  0.00  0.00     0.167 HD
ENDBRANCH   5   7
ENDBRANCH   1   5
TORSDOF 3
ENDMDL
MODEL 4
REMARK VINA RESULT:      -3.6      2.735      3.524
REMARK  3 active torsions:
REMARK  status: ('A' for Active; 'I' for Inactive)
REMARK    1  A    between atoms: C_2  and  C_4 
REMARK    2  A    between atoms: C_4  and  C_5 
REMARK    3  A    between atoms: C_5  and  O_6 
ROOT
HETATM    1  C   UNK N   1      21.458  12.293  11.014  0.00  0.00     0.113 C 
ENDROOT
BRANCH   1   2
HETATM    2  C   UNK N   1      22.912  12.122  11.475  0.00  0.00    -0.013 C 
HETATM    3  C   UNK N   1      23.153  11.877  12.951  0.00  0.00     0.010 C 
HETATM    4  C   UNK N   1      24.124  12.179  10.562  0.00  0.00     0.010 C 
ENDBRANCH   1   2
BRANCH   1   5
HETATM    5  C   UNK N   1      21.189  13.076   9.753  0.00  0.00     0.139 C 
HETATM    6  O   UNK N   1      20.968  12.521   8.689  0.00  0.00    -0.650 OA
BRANCH   5   7
HETATM    7  O   UNK N   1      21.195  14.421   9.808  0.00  0.00    -0.776 OA
HETATM    8  H   UNK N   1      20.725  14.863  10.486  0.00  0.00     0.167 HD
ENDBRANCH   5   7
ENDBRANCH   1   5
TORSDOF 3
ENDMDL
MODEL 5
REMARK VINA RESULT:      -3.6     11.014     12.396
REMARK  3 active torsions:
REMARK  status: ('A' for Active; 'I' for Inactive)
REMARK    1  A    between atoms: C_2  and  C_4 
REMARK    2  A    between atoms: C_4  and  C_5 
REMARK    3  A    between atoms: C_5  and  O_6 
ROOT
HETATM    1  C   UNK N   1      20.159  19.335   2.057  0.00  0.00     0.113 C 
ENDROOT
BRANCH   1   2
HETATM    2  C   UNK N   1      20.329  17.824   1.849  0.00  0.00    -0.013 C 
HETATM    3  C   UNK N   1      20.854  17.011   3.014  0.00  0.00     0.010 C 
HETATM    4  C   UNK N   1      20.009  17.085   0.561  0.00  0.00     0.010 C 
ENDBRANCH   1   2
BRANCH   1   5
HETATM    5  C   UNK N   1      20.992  20.276   1.224  0.00  0.00     0.139 C 
HETATM    6  O   UNK N   1      22.012  20.785   1.660  0.00  0.00    -0.650 OA
BRANCH   5   7
HETATM    7  O   UNK N   1      20.597  20.558  -0.031  0.00  0.00    -0.776 OA
HETATM    8  H   UNK N   1      21.142  21.079  -0.587  0.00  0.00     0.167 HD
ENDBRANCH   5   7
ENDBRANCH   1   5
TORSDOF 3
ENDMDL
MODEL 6
REMARK VINA RESULT:      -3.6      8.670      9.687
REMARK  3 active torsions:
REMARK  status: ('A' for Active; 'I' for Inactive)
REMARK    1  A    between atoms: C_2  and  C_4 
REMARK    2  A    between atoms: C_4  and  C_5 
REMARK    3  A    between atoms: C_5  and  O_6 
ROOT
HETATM    1  C   UNK N   1      29.730  18.259   9.369  0.00  0.00     0.113 C 
ENDROOT
BRANCH   1   2
HETATM    2  C   UNK N   1      30.633  17.729   8.247  0.00  0.00    -0.013 C 
HETATM    3  C   UNK N   1      32.130  17.877   8.425  0.00  0.00     0.010 C 
HETATM    4  C   UNK N   1      30.136  17.068   6.973  0.00  0.00     0.010 C 
ENDBRANCH   1   2
BRANCH   1   5
HETATM    5  C   UNK N   1      28.241  18.052   9.255  0.00  0.00     0.139 C 
HETATM    6  O   UNK N   1      27.705  17.029   9.649  0.00  0.00    -0.650 OA
BRANCH   5   7
HETATM    7  O   UNK N   1      27.489  19.022   8.704  0.00  0.00    -0.776 OA
HETATM    8  H   UNK N   1      26.962  19.572   9.249  0.00  0.00     0.167 HD
ENDBRANCH   5   7
ENDBRANCH   1   5
TORSDOF 3
ENDMDL
MODEL 7
REMARK VINA RESULT:      -3.5     11.464     12.071
REMARK  3 active torsions:
REMARK  status: ('A' for Active; 'I' for Inactive)
REMARK    1  A    between atoms: C_2  and  C_4 
REMARK    2  A    between atoms: C_4  and  C_5 
REMARK    3  A    between atoms: C_5  and  O_6 
ROOT
HETATM    1  C   UNK N   1      24.994  19.849   4.039  0.00  0.00     0.113 C 
ENDROOT
BRANCH   1   2
HETATM    2  C   UNK N   1      26.327  20.269   4.673  0.00  0.00    -0.013 C 
HETATM    3  C   UNK N   1      27.598  19.717   4.062  0.00  0.00     0.010 C 
HETATM    4  C   UNK N   1      26.464  21.198   5.867  0.00  0.00     0.010 C 
ENDBRANCH   1   2
BRANCH   1   5
HETATM    5  C   UNK N   1      24.474  20.636   2.863  0.00  0.00     0.139 C 
HETATM    6  O   UNK N   1      25.118  20.750   1.833  0.00  0.00    -0.650 OA
BRANCH   5   7
HETATM    7  O   UNK N   1      23.268  21.227   2.957  0.00  0.00    -0.776 OA
HETATM    8  H   UNK N   1      22.657  21.158   2.251  0.00  0.00     0.167 HD
ENDBRANCH   5   7
ENDBRANCH   1   5
TORSDOF 3
ENDMDL
MODEL 8
REMARK VINA RESULT:      -3.5     11.599     12.929
REMARK  3 active torsions:
REMARK  status: ('A' for Active; 'I' for Inactive)
REMARK    1  A    between atoms: C_2  and  C_4 
REMARK    2  A    between atoms: C_4  and  C_5 
REMARK    3  A    between atoms: C_5  and  O_6 
ROOT
HETATM    1  C   UNK N   1      33.290  17.542   8.674  0.00  0.00     0.113 C 
ENDROOT
BRANCH   1   2
HETATM    2  C   UNK N   1      33.534  16.071   9.036  0.00  0.00    -0.013 C 
HETATM    3  C   UNK N   1      34.971  15.610   9.163  0.00  0.00     0.010 C 
HETATM    4  C   UNK N   1      32.440  15.044   9.276  0.00  0.00     0.010 C 
ENDBRANCH   1   2
BRANCH   1   5
HETATM    5  C   UNK N   1      34.345  18.275   7.884  0.00  0.00     0.139 C 
HETATM    6  O   UNK N   1      35.059  19.120   8.398  0.00  0.00    -0.650 OA
BRANCH   5   7
HETATM    7  O   UNK N   1      34.498  17.986   6.579  0.00  0.00    -0.776 OA
HETATM    8  H   UNK N   1      34.599  18.677   5.955  0.00  0.00     0.167 HD
ENDBRANCH   5   7
ENDBRANCH   1   5
TORSDOF 3
ENDMDL
MODEL 9
REMARK VINA RESULT:      -3.5     10.828     11.877
REMARK  3 active torsions:
REMARK  status: ('A' for Active; 'I' for Inactive)
REMARK    1  A    between atoms: C_2  and  C_4 
REMARK    2  A    between atoms: C_4  and  C_5 
REMARK    3  A    between atoms: C_5  and  O_6 
ROOT
HETATM    1  C   UNK N   1      20.121  19.663   2.457  0.00  0.00     0.113 C 
ENDROOT
BRANCH   1   2
HETATM    2  C   UNK N   1      20.726  18.484   3.232  0.00  0.00    -0.013 C 
HETATM    3  C   UNK N   1      19.827  17.299   3.518  0.00  0.00     0.010 C 
HETATM    4  C   UNK N   1      22.159  18.420   3.733  0.00  0.00     0.010 C 
ENDBRANCH   1   2
BRANCH   1   5
HETATM    5  C   UNK N   1      21.053  20.672   1.835  0.00  0.00     0.139 C 
HETATM    6  O   UNK N   1      21.366  20.616   0.657  0.00  0.00    -0.650 OA
BRANCH   5   7
HETATM    7  O   UNK N   1      21.551  21.658   2.604  0.00  0.00    -0.776 OA
HETATM    8  H   UNK N   1      21.656  21.526   3.525  0.00  0.00     0.167 HD
ENDBRANCH   5   7
ENDBRANCH   1   5
TORSDOF 3
ENDMDL
