MODEL 1
REMARK VINA RESULT:      -6.6      0.000      0.000
REMARK  9 active torsions:
REMARK  status: ('A' for Active; 'I' for Inactive)
REMARK    1  A    between atoms: C_8  and  C_5 
REMARK    2  A    between atoms: C_12  and  C_6 
REMARK    3  A    between atoms: N_18  and  C_6 
REMARK    4  A    between atoms: C_10  and  C_7 
REMARK    5  A    between atoms: O_19  and  C_7 
REMARK    6  A    between atoms: O_20  and  C_9 
REMARK    7  A    between atoms: C_13  and  C_10 
REMARK    8  A    between atoms: C_10  and  N_15 
REMARK    9  A    between atoms: O_22  and  C_12 
ROOT
HETATM    1  C   UNK N   1      36.366  12.292  14.459  0.00  0.00     0.046 C 
HETATM    2  C   UNK N   1      35.971  12.571  13.201  0.00  0.00     0.103 A 
HETATM    3  C   UNK N   1      35.213  13.721  11.502  0.00  0.00     0.112 A 
HETATM    4  C   UNK N   1      35.860  11.668  12.069  0.00  0.00     0.276 A 
HETATM    5  N   UNK N   1      35.548  13.839  12.740  0.00  0.00    -0.339 N 
ATOM      6  HN  UNK N   1      35.514  14.697  13.292  1.00  0.00     0.167 HD
HETATM    7  N   UNK N   1      35.380  12.380  11.033  0.00  0.00    -0.290 N 
HETATM    8  O   UNK N   1      36.096  10.470  12.047  0.00  0.00    -0.265 OA
ENDROOT
BRANCH   1   9
HETATM    9  C   UNK N   1      36.337  13.295  15.560  0.00  0.00    -0.034 A 
HETATM   10  C   UNK N   1      37.158  14.435  15.540  0.00  0.00     0.014 A 
HETATM   11  C   UNK N   1      37.070  15.398  16.545  0.00  0.00     0.037 A 
HETATM   12  C   UNK N   1      36.158  15.232  17.588  0.00  0.00     0.065 A 
HETATM   13  C   UNK N   1      35.339  14.099  17.625  0.00  0.00     0.037 A 
HETATM   14  C   UNK N   1      35.421  13.138  16.611  0.00  0.00     0.014 A 
BRANCH  12  15
HETATM   15  O   UNK N   1      36.069  16.161  18.552  0.00  0.00    -0.361 OA
HETATM   16  H   UNK N   1      36.582  16.943  18.501  0.00  0.00     0.217 HD
ENDBRANCH  12  15
ENDBRANCH   1   9
BRANCH   7  17
HETATM   17  C   UNK N   1      35.009  11.853   9.734  0.00  0.00     0.243 C 
BRANCH  17  18
HETATM   18  C   UNK N   1      33.561  11.471   9.635  0.00  0.00     0.158 C 
HETATM   19  O   UNK N   1      33.237  10.310   9.822  0.00  0.00    -0.649 OA
BRANCH  18  20
HETATM   20  O   UNK N   1      32.618  12.385   9.339  0.00  0.00    -0.775 OA
HETATM   21  H   UNK N   1      31.713  12.470   9.109  0.00  0.00     0.167 HD
ENDBRANCH  18  20
ENDBRANCH  17  18
ENDBRANCH   7  17
BRANCH   3  22
HETATM   22  C   UNK N   1      34.718  14.915  10.710  0.00  0.00     0.166 C 
BRANCH  22  23
HETATM   23  C   UNK N   1      35.392  16.199  11.184  0.00  0.00     0.196 C 
BRANCH  23  24
HETATM   24  O   UNK N   1      36.767  16.161  10.940  0.00  0.00    -0.398 OA
HETATM   25  H   UNK N   1      37.116  15.871  10.083  0.00  0.00     0.209 HD
ENDBRANCH  23  24
ENDBRANCH  22  23
BRANCH  22  26
HETATM   26  N   UNK N   1      33.280  15.080  10.815  0.00  0.00    -0.418 N 
HETATM   27  H   UNK N   1      32.654  14.584  10.180  0.00  0.00     0.150 HD
HETATM   28  H   UNK N   1      32.892  15.695  11.530  0.00  0.00     0.150 HD
ENDBRANCH  22  26
ENDBRANCH   3  22
TORSDOF 9
ENDMDL
MODEL 2
REMARK VINA RESULT:      -6.6     12.428     15.212
REMARK  9 active torsions:
REMARK  status: ('A' for Active; 'I' for Inactive)
REMARK    1  A    between atoms: C_8  and  C_5 
REMARK    2  A    between atoms: C_12  and  C_6 
REMARK    3  A    between atoms: N_18  and  C_6 
REMARK    4  A    between atoms: C_10  and  C_7 
REMARK    5  A    between atoms: O_19  and  C_7 
REMARK    6  A    between atoms: O_20  and  C_9 
REMARK    7  A    between atoms: C_13  and  C_10 
REMARK    8  A    between atoms: C_10  and  N_15 
REMARK    9  A    between atoms: O_22  and  C_12 
ROOT
HETATM    1  C   UNK N   1      26.423  20.042   4.362  0.00  0.00     0.046 C 
HETATM    2  C   UNK N   1      25.140  19.645   4.255  0.00  0.00     0.103 A 
HETATM    3  C   UNK N   1      23.306  18.518   4.650  0.00  0.00     0.112 A 
HETATM    4  C   UNK N   1      24.133  20.090   3.308  0.00  0.00     0.276 A 
HETATM    5  N   UNK N   1      24.519  18.661   5.060  0.00  0.00    -0.339 N 
ATOM      6  HN  UNK N   1      24.956  18.154   5.830  1.00  0.00     0.167 HD
HETATM    7  N   UNK N   1      23.014  19.383   3.548  0.00  0.00    -0.290 N 
HETATM    8  O   UNK N   1      24.266  20.910   2.411  0.00  0.00    -0.265 OA
ENDROOT
BRANCH   1   9
HETATM    9  C   UNK N   1      27.386  19.427   5.318  0.00  0.00    -0.034 A 
HETATM   10  C   UNK N   1      27.445  19.827   6.664  0.00  0.00     0.014 A 
HETATM   11  C   UNK N   1      28.305  19.196   7.561  0.00  0.00     0.037 A 
HETATM   12  C   UNK N   1      29.122  18.153   7.123  0.00  0.00     0.065 A 
HETATM   13  C   UNK N   1      29.079  17.748   5.786  0.00  0.00     0.037 A 
HETATM   14  C   UNK N   1      28.208  18.377   4.887  0.00  0.00     0.014 A 
BRANCH  12  15
HETATM   15  O   UNK N   1      29.945  17.541   7.988  0.00  0.00    -0.361 OA
HETATM   16  H   UNK N   1      30.857  17.457   7.792  0.00  0.00     0.217 HD
ENDBRANCH  12  15
ENDBRANCH   1   9
BRANCH   7  17
HETATM   17  C   UNK N   1      21.794  19.423   2.766  0.00  0.00     0.243 C 
BRANCH  17  18
HETATM   18  C   UNK N   1      21.013  20.693   2.941  0.00  0.00     0.158 C 
HETATM   19  O   UNK N   1      20.204  20.774   3.851  0.00  0.00    -0.649 OA
BRANCH  18  20
HETATM   20  O   UNK N   1      21.186  21.738   2.110  0.00  0.00    -0.775 OA
HETATM   21  H   UNK N   1      21.823  22.368   1.833  0.00  0.00     0.167 HD
ENDBRANCH  18  20
ENDBRANCH  17  18
ENDBRANCH   7  17
BRANCH   3  22
HETATM   22  C   UNK N   1      22.368  17.534   5.318  0.00  0.00     0.166 C 
BRANCH  22  23
HETATM   23  C   UNK N   1      21.358  18.261   6.203  0.00  0.00     0.196 C 
BRANCH  23  24
HETATM   24  O   UNK N   1      21.060  17.510   7.342  0.00  0.00    -0.398 OA
HETATM   25  H   UNK N   1      20.271  17.697   7.874  0.00  0.00     0.209 HD
ENDBRANCH  23  24
ENDBRANCH  22  23
BRANCH  22  26
HETATM   26  N   UNK N   1      23.081  16.565   6.129  0.00  0.00    -0.418 N 
HETATM   27  H   UNK N   1      23.524  16.847   7.003  0.00  0.00     0.150 HD
HETATM   28  H   UNK N   1      23.139  15.594   5.823  0.00  0.00     0.150 HD
ENDBRANCH  22  26
ENDBRANCH   3  22
TORSDOF 9
ENDMDL
MODEL 3
REMARK VINA RESULT:      -6.6      8.313     11.964
REMARK  9 active torsions:
REMARK  status: ('A' for Active; 'I' for Inactive)
REMARK    1  A    between atoms: C_8  and  C_5 
REMARK    2  A    between atoms: C_12  and  C_6 
REMARK    3  A    between atoms: N_18  and  C_6 
REMARK    4  A    between atoms: C_10  and  C_7 
REMARK    5  A    between atoms: O_19  and  C_7 
REMARK    6  A    between atoms: O_20  and  C_9 
REMARK    7  A    between atoms: C_13  and  C_10 
REMARK    8  A    between atoms: C_10  and  N_15 
REMARK    9  A    between atoms: O_22  and  C_12 
ROOT
HETATM    1  C   UNK N   1      29.185  17.813   4.306  0.00  0.00     0.046 C 
HETATM    2  C   UNK N   1      29.775  17.561   5.492  0.00  0.00     0.103 A 
HETATM    3  C   UNK N   1      30.039  17.427   7.659  0.00  0.00     0.112 A 
HETATM    4  C   UNK N   1      31.131  17.105   5.745  0.00  0.00     0.276 A 
HETATM    5  N   UNK N   1      29.169  17.727   6.758  0.00  0.00    -0.339 N 
ATOM      6  HN  UNK N   1      28.210  18.031   6.928  1.00  0.00     0.167 HD
HETATM    7  N   UNK N   1      31.289  17.039   7.080  0.00  0.00    -0.290 N 
HETATM    8  O   UNK N   1      32.004  16.873   4.923  0.00  0.00    -0.265 OA
ENDROOT
BRANCH   1   9
HETATM    9  C   UNK N   1      27.812  18.378   4.188  0.00  0.00    -0.034 A 
HETATM   10  C   UNK N   1      27.584  19.765   4.185  0.00  0.00     0.014 A 
HETATM   11  C   UNK N   1      26.300  20.278   4.006  0.00  0.00     0.037 A 
HETATM   12  C   UNK N   1      25.223  19.409   3.828  0.00  0.00     0.065 A 
HETATM   13  C   UNK N   1      25.434  18.027   3.834  0.00  0.00     0.037 A 
HETATM   14  C   UNK N   1      26.724  17.513   4.005  0.00  0.00     0.014 A 
BRANCH  12  15
HETATM   15  O   UNK N   1      23.988  19.903   3.649  0.00  0.00    -0.361 OA
HETATM   16  H   UNK N   1      23.841  20.828   3.686  0.00  0.00     0.217 HD
ENDBRANCH  12  15
ENDBRANCH   1   9
BRANCH   7  17
HETATM   17  C   UNK N   1      32.523  16.737   7.780  0.00  0.00     0.243 C 
BRANCH  17  18
HETATM   18  C   UNK N   1      33.567  17.806   7.640  0.00  0.00     0.158 C 
HETATM   19  O   UNK N   1      33.634  18.687   8.481  0.00  0.00    -0.649 OA
BRANCH  18  20
HETATM   20  O   UNK N   1      34.424  17.811   6.602  0.00  0.00    -0.775 OA
HETATM   21  H   UNK N   1      35.248  17.465   6.318  0.00  0.00     0.167 HD
ENDBRANCH  18  20
ENDBRANCH  17  18
ENDBRANCH   7  17
BRANCH   3  22
HETATM   22  C   UNK N   1      29.694  17.497   9.132  0.00  0.00     0.166 C 
BRANCH  22  23
HETATM   23  C   UNK N   1      28.205  17.244   9.355  0.00  0.00     0.196 C 
BRANCH  23  24
HETATM   24  O   UNK N   1      27.481  18.437   9.290  0.00  0.00    -0.398 OA
HETATM   25  H   UNK N   1      27.867  19.237   8.900  0.00  0.00     0.209 HD
ENDBRANCH  23  24
ENDBRANCH  22  23
BRANCH  22  26
HETATM   26  N   UNK N   1      30.038  18.781   9.713  0.00  0.00    -0.418 N 
HETATM   27  H   UNK N   1      30.610  19.448   9.194  0.00  0.00     0.150 HD
HETATM   28  H   UNK N   1      29.704  19.021  10.646  0.00  0.00     0.150 HD
ENDBRANCH  22  26
ENDBRANCH   3  22
TORSDOF 9
ENDMDL
MODEL 4
REMARK VINA RESULT:      -6.3      4.305      8.560
REMARK  9 active torsions:
REMARK  status: ('A' for Active; 'I' for Inactive)
REMARK    1  A    between atoms: C_8  and  C_5 
REMARK    2  A    between atoms: C_12  and  C_6 
REMARK    3  A    between atoms: N_18  and  C_6 
REMARK    4  A    between atoms: C_10  and  C_7 
REMARK    5  A    between atoms: O_19  and  C_7 
REMARK    6  A    between atoms: O_20  and  C_9 
REMARK    7  A    between atoms: C_13  and  C_10 
REMARK    8  A    between atoms: C_10  and  N_15 
REMARK    9  A    between atoms: O_22  and  C_12 
ROOT
HETATM    1  C   UNK N   1      33.833  17.577   7.727  0.00  0.00     0.046 C 
HETATM    2  C   UNK N   1      34.164  16.554   8.539  0.00  0.00     0.103 A 
HETATM    3  C   UNK N   1      34.218  14.526   9.358  0.00  0.00     0.112 A 
HETATM    4  C   UNK N   1      34.975  16.584   9.743  0.00  0.00     0.276 A 
HETATM    5  N   UNK N   1      33.741  15.214   8.379  0.00  0.00    -0.339 N 
ATOM      6  HN  UNK N   1      33.159  14.856   7.621  1.00  0.00     0.167 HD
HETATM    7  N   UNK N   1      34.992  15.336  10.248  0.00  0.00    -0.290 N 
HETATM    8  O   UNK N   1      35.508  17.555  10.258  0.00  0.00    -0.265 OA
ENDROOT
BRANCH   1   9
HETATM    9  C   UNK N   1      32.902  17.430   6.573  0.00  0.00    -0.034 A 
HETATM   10  C   UNK N   1      31.519  17.259   6.760  0.00  0.00     0.014 A 
HETATM   11  C   UNK N   1      30.654  17.189   5.669  0.00  0.00     0.037 A 
HETATM   12  C   UNK N   1      31.161  17.288   4.373  0.00  0.00     0.065 A 
HETATM   13  C   UNK N   1      32.534  17.453   4.172  0.00  0.00     0.037 A 
HETATM   14  C   UNK N   1      33.402  17.532   5.268  0.00  0.00     0.014 A 
BRANCH  12  15
HETATM   15  O   UNK N   1      30.327  17.228   3.323  0.00  0.00    -0.361 OA
HETATM   16  H   UNK N   1      30.156  16.408   2.903  0.00  0.00     0.217 HD
ENDBRANCH  12  15
ENDBRANCH   1   9
BRANCH   7  17
HETATM   17  C   UNK N   1      35.592  14.931  11.504  0.00  0.00     0.243 C 
BRANCH  17  18
HETATM   18  C   UNK N   1      36.867  14.158  11.338  0.00  0.00     0.158 C 
HETATM   19  O   UNK N   1      37.451  14.196  10.267  0.00  0.00    -0.649 OA
BRANCH  18  20
HETATM   20  O   UNK N   1      37.372  13.421  12.345  0.00  0.00    -0.775 OA
HETATM   21  H   UNK N   1      37.280  13.260  13.264  0.00  0.00     0.167 HD
ENDBRANCH  18  20
ENDBRANCH  17  18
ENDBRANCH   7  17
BRANCH   3  22
HETATM   22  C   UNK N   1      33.949  13.039   9.471  0.00  0.00     0.166 C 
BRANCH  22  23
HETATM   23  C   UNK N   1      34.920  12.243   8.603  0.00  0.00     0.196 C 
BRANCH  23  24
HETATM   24  O   UNK N   1      35.847  13.086   7.987  0.00  0.00    -0.398 OA
HETATM   25  H   UNK N   1      36.516  12.736   7.379  0.00  0.00     0.209 HD
ENDBRANCH  23  24
ENDBRANCH  22  23
BRANCH  22  26
HETATM   26  N   UNK N   1      32.593  12.700   9.081  0.00  0.00    -0.418 N 
HETATM   27  H   UNK N   1      31.906  13.433   8.905  0.00  0.00     0.150 HD
HETATM   28  H   UNK N   1      32.325  11.721   8.982  0.00  0.00     0.150 HD
ENDBRANCH  22  26
ENDBRANCH   3  22
TORSDOF 9
ENDMDL
MODEL 5
REMARK VINA RESULT:      -6.1      4.066      8.012
REMARK  9 active torsions:
REMARK  status: ('A' for Active; 'I' for Inactive)
REMARK    1  A    between atoms: C_8  and  C_5 
REMARK    2  A    between atoms: C_12  and  C_6 
REMARK    3  A    between atoms: N_18  and  C_6 
REMARK    4  A    between atoms: C_10  and  C_7 
REMARK    5  A    between atoms: O_19  and  C_7 
REMARK    6  A    between atoms: O_20  and  C_9 
REMARK    7  A    between atoms: C_13  and  C_10 
REMARK    8  A    between atoms: C_10  and  N_15 
REMARK    9  A    between atoms: O_22  and  C_12 
ROOT
HETATM    1  C   UNK N   1      33.269  17.561   8.584  0.00  0.00     0.046 C 
HETATM    2  C   UNK N   1      33.868  16.448   9.053  0.00  0.00     0.103 A 
HETATM    3  C   UNK N   1      34.244  14.323   9.410  0.00  0.00     0.112 A 
HETATM    4  C   UNK N   1      35.001  16.345   9.955  0.00  0.00     0.276 A 
HETATM    5  N   UNK N   1      33.469  15.122   8.762  0.00  0.00    -0.339 N 
ATOM      6  HN  UNK N   1      32.702  14.848   8.148  1.00  0.00     0.167 HD
HETATM    7  N   UNK N   1      35.217  15.035  10.180  0.00  0.00    -0.290 N 
HETATM    8  O   UNK N   1      35.625  17.258  10.474  0.00  0.00    -0.265 OA
ENDROOT
BRANCH   1   9
HETATM    9  C   UNK N   1      32.042  17.529   7.740  0.00  0.00    -0.034 A 
HETATM   10  C   UNK N   1      32.101  17.242   6.365  0.00  0.00     0.014 A 
HETATM   11  C   UNK N   1      30.937  17.150   5.603  0.00  0.00     0.037 A 
HETATM   12  C   UNK N   1      29.695  17.345   6.207  0.00  0.00     0.065 A 
HETATM   13  C   UNK N   1      29.621  17.637   7.572  0.00  0.00     0.037 A 
HETATM   14  C   UNK N   1      30.789  17.721   8.339  0.00  0.00     0.014 A 
BRANCH  12  15
HETATM   15  O   UNK N   1      28.574  17.250   5.475  0.00  0.00    -0.361 OA
HETATM   16  H   UNK N   1      27.764  17.015   5.883  0.00  0.00     0.217 HD
ENDBRANCH  12  15
ENDBRANCH   1   9
BRANCH   7  17
HETATM   17  C   UNK N   1      36.180  14.477  11.109  0.00  0.00     0.243 C 
BRANCH  17  18
HETATM   18  C   UNK N   1      35.653  14.339  12.507  0.00  0.00     0.158 C 
HETATM   19  O   UNK N   1      36.262  14.860  13.427  0.00  0.00    -0.649 OA
BRANCH  18  20
HETATM   20  O   UNK N   1      34.526  13.649  12.762  0.00  0.00    -0.775 OA
HETATM   21  H   UNK N   1      34.047  12.887  12.498  0.00  0.00     0.167 HD
ENDBRANCH  18  20
ENDBRANCH  17  18
ENDBRANCH   7  17
BRANCH   3  22
HETATM   22  C   UNK N   1      34.080  12.820   9.304  0.00  0.00     0.166 C 
BRANCH  22  23
HETATM   23  C   UNK N   1      34.780  12.283   8.058  0.00  0.00     0.196 C 
BRANCH  23  24
HETATM   24  O   UNK N   1      35.411  13.312   7.356  0.00  0.00    -0.398 OA
HETATM   25  H   UNK N   1      35.045  14.211   7.347  0.00  0.00     0.209 HD
ENDBRANCH  23  24
ENDBRANCH  22  23
BRANCH  22  26
HETATM   26  N   UNK N   1      32.684  12.427   9.258  0.00  0.00    -0.418 N 
HETATM   27  H   UNK N   1      32.389  11.521   9.624  0.00  0.00     0.150 HD
HETATM   28  H   UNK N   1      31.993  13.060   8.857  0.00  0.00     0.150 HD
ENDBRANCH  22  26
ENDBRANCH   3  22
TORSDOF 9
ENDMDL
MODEL 6
REMARK VINA RESULT:      -6.0      6.453      9.716
REMARK  9 active torsions:
REMARK  status: ('A' for Active; 'I' for Inactive)
REMARK    1  A    between atoms: C_8  and  C_5 
REMARK    2  A    between atoms: C_12  and  C_6 
REMARK    3  A    between atoms: N_18  and  C_6 
REMARK    4  A    between atoms: C_10  and  C_7 
REMARK    5  A    between atoms: O_19  and  C_7 
REMARK    6  A    between atoms: O_20  and  C_9 
REMARK    7  A    between atoms: C_13  and  C_10 
REMARK    8  A    between atoms: C_10  and  N_15 
REMARK    9  A    between atoms: O_22  and  C_12 
ROOT
HETATM    1  C   UNK N   1      29.335  16.703   5.999  0.00  0.00     0.046 C 
HETATM    2  C   UNK N   1      30.496  16.429   6.626  0.00  0.00     0.103 A 
HETATM    3  C   UNK N   1      32.304  16.746   7.814  0.00  0.00     0.112 A 
HETATM    4  C   UNK N   1      31.248  15.187   6.627  0.00  0.00     0.276 A 
HETATM    5  N   UNK N   1      31.239  17.344   7.406  0.00  0.00    -0.339 N 
ATOM      6  HN  UNK N   1      30.978  18.309   7.608  1.00  0.00     0.167 HD
HETATM    7  N   UNK N   1      32.366  15.395   7.349  0.00  0.00    -0.290 N 
HETATM    8  O   UNK N   1      30.973  14.149   6.045  0.00  0.00    -0.265 OA
ENDROOT
BRANCH   1   9
HETATM    9  C   UNK N   1      28.716  18.058   5.994  0.00  0.00    -0.034 A 
HETATM   10  C   UNK N   1      28.545  18.786   4.804  0.00  0.00     0.014 A 
HETATM   11  C   UNK N   1      27.904  20.024   4.808  0.00  0.00     0.037 A 
HETATM   12  C   UNK N   1      27.423  20.553   6.006  0.00  0.00     0.065 A 
HETATM   13  C   UNK N   1      27.590  19.843   7.198  0.00  0.00     0.037 A 
HETATM   14  C   UNK N   1      28.227  18.596   7.192  0.00  0.00     0.014 A 
BRANCH  12  15
HETATM   15  O   UNK N   1      26.799  21.741   6.009  0.00  0.00    -0.361 OA
HETATM   16  H   UNK N   1      26.345  22.033   6.775  0.00  0.00     0.217 HD
ENDBRANCH  12  15
ENDBRANCH   1   9
BRANCH   7  17
HETATM   17  C   UNK N   1      33.458  14.457   7.520  0.00  0.00     0.243 C 
BRANCH  17  18
HETATM   18  C   UNK N   1      33.184  13.401   8.551  0.00  0.00     0.158 C 
HETATM   19  O   UNK N   1      32.929  12.265   8.187  0.00  0.00    -0.649 OA
BRANCH  18  20
HETATM   20  O   UNK N   1      33.210  13.688   9.866  0.00  0.00    -0.775 OA
HETATM   21  H   UNK N   1      32.873  14.291  10.501  0.00  0.00     0.167 HD
ENDBRANCH  18  20
ENDBRANCH  17  18
ENDBRANCH   7  17
BRANCH   3  22
HETATM   22  C   UNK N   1      33.315  17.462   8.687  0.00  0.00     0.166 C 
BRANCH  22  23
HETATM   23  C   UNK N   1      34.513  17.926   7.864  0.00  0.00     0.196 C 
BRANCH  23  24
HETATM   24  O   UNK N   1      35.011  19.139   8.346  0.00  0.00    -0.398 OA
HETATM   25  H   UNK N   1      35.952  19.246   8.558  0.00  0.00     0.209 HD
ENDBRANCH  23  24
ENDBRANCH  22  23
BRANCH  22  26
HETATM   26  N   UNK N   1      33.793  16.621   9.769  0.00  0.00    -0.418 N 
HETATM   27  H   UNK N   1      34.705  16.167   9.708  0.00  0.00     0.150 HD
HETATM   28  H   UNK N   1      33.214  16.482  10.597  0.00  0.00     0.150 HD
ENDBRANCH  22  26
ENDBRANCH   3  22
TORSDOF 9
ENDMDL
MODEL 7
REMARK VINA RESULT:      -5.9      8.227     10.826
REMARK  9 active torsions:
REMARK  status: ('A' for Active; 'I' for Inactive)
REMARK    1  A    between atoms: C_8  and  C_5 
REMARK    2  A    between atoms: C_12  and  C_6 
REMARK    3  A    between atoms: N_18  and  C_6 
REMARK    4  A    between atoms: C_10  and  C_7 
REMARK    5  A    between atoms: O_19  and  C_7 
REMARK    6  A    between atoms: O_20  and  C_9 
REMARK    7  A    between atoms: C_13  and  C_10 
REMARK    8  A    between atoms: C_10  and  N_15 
REMARK    9  A    between atoms: O_22  and  C_12 
ROOT
HETATM    1  C   UNK N   1      30.407  15.936   6.273  0.00  0.00     0.046 C 
HETATM    2  C   UNK N   1      29.196  16.481   6.043  0.00  0.00     0.103 A 
HETATM    3  C   UNK N   1      27.636  18.005   5.880  0.00  0.00     0.112 A 
HETATM    4  C   UNK N   1      27.956  15.809   5.698  0.00  0.00     0.276 A 
HETATM    5  N   UNK N   1      28.892  17.859   6.126  0.00  0.00    -0.339 N 
ATOM      6  HN  UNK N   1      29.551  18.607   6.344  1.00  0.00     0.167 HD
HETATM    7  N   UNK N   1      26.998  16.752   5.614  0.00  0.00    -0.290 N 
HETATM    8  O   UNK N   1      27.772  14.609   5.561  0.00  0.00    -0.265 OA
ENDROOT
BRANCH   1   9
HETATM    9  C   UNK N   1      31.584  16.732   6.722  0.00  0.00    -0.034 A 
HETATM   10  C   UNK N   1      31.693  17.205   8.041  0.00  0.00     0.014 A 
HETATM   11  C   UNK N   1      32.831  17.892   8.462  0.00  0.00     0.037 A 
HETATM   12  C   UNK N   1      33.878  18.116   7.568  0.00  0.00     0.065 A 
HETATM   13  C   UNK N   1      33.781  17.656   6.251  0.00  0.00     0.037 A 
HETATM   14  C   UNK N   1      32.642  16.960   5.831  0.00  0.00     0.014 A 
BRANCH  12  15
HETATM   15  O   UNK N   1      34.976  18.770   7.975  0.00  0.00    -0.361 OA
HETATM   16  H   UNK N   1      35.827  18.423   7.792  0.00  0.00     0.217 HD
ENDBRANCH  12  15
ENDBRANCH   1   9
BRANCH   7  17
HETATM   17  C   UNK N   1      25.584  16.515   5.401  0.00  0.00     0.243 C 
BRANCH  17  18
HETATM   18  C   UNK N   1      25.175  16.593   3.959  0.00  0.00     0.158 C 
HETATM   19  O   UNK N   1      24.434  15.739   3.503  0.00  0.00    -0.649 OA
BRANCH  18  20
HETATM   20  O   UNK N   1      25.615  17.586   3.162  0.00  0.00    -0.775 OA
HETATM   21  H   UNK N   1      26.177  17.756   2.431  0.00  0.00     0.167 HD
ENDBRANCH  18  20
ENDBRANCH  17  18
ENDBRANCH   7  17
BRANCH   3  22
HETATM   22  C   UNK N   1      26.994  19.377   5.884  0.00  0.00     0.166 C 
BRANCH  22  23
HETATM   23  C   UNK N   1      27.612  20.271   4.812  0.00  0.00     0.196 C 
BRANCH  23  24
HETATM   24  O   UNK N   1      27.908  19.537   3.660  0.00  0.00    -0.398 OA
HETATM   25  H   UNK N   1      28.820  19.458   3.338  0.00  0.00     0.209 HD
ENDBRANCH  23  24
ENDBRANCH  22  23
BRANCH  22  26
HETATM   26  N   UNK N   1      27.126  20.037   7.170  0.00  0.00    -0.418 N 
HETATM   27  H   UNK N   1      26.499  19.802   7.939  0.00  0.00     0.150 HD
HETATM   28  H   UNK N   1      27.852  20.740   7.306  0.00  0.00     0.150 HD
ENDBRANCH  22  26
ENDBRANCH   3  22
TORSDOF 9
ENDMDL
MODEL 8
REMARK VINA RESULT:      -5.9      6.842      9.550
REMARK  9 active torsions:
REMARK  status: ('A' for Active; 'I' for Inactive)
REMARK    1  A    between atoms: C_8  and  C_5 
REMARK    2  A    between atoms: C_12  and  C_6 
REMARK    3  A    between atoms: N_18  and  C_6 
REMARK    4  A    between atoms: C_10  and  C_7 
REMARK    5  A    between atoms: O_19  and  C_7 
REMARK    6  A    between atoms: O_20  and  C_9 
REMARK    7  A    between atoms: C_13  and  C_10 
REMARK    8  A    between atoms: C_10  and  N_15 
REMARK    9  A    between atoms: O_22  and  C_12 
ROOT
HETATM    1  C   UNK N   1      32.404  16.819   5.539  0.00  0.00     0.046 C 
HETATM    2  C   UNK N   1      31.081  17.050   5.423  0.00  0.00     0.103 A 
HETATM    3  C   UNK N   1      29.028  17.526   6.009  0.00  0.00     0.112 A 
HETATM    4  C   UNK N   1      30.245  16.938   4.240  0.00  0.00     0.276 A 
HETATM    5  N   UNK N   1      30.223  17.433   6.480  0.00  0.00    -0.339 N 
ATOM      6  HN  UNK N   1      30.502  17.603   7.446  1.00  0.00     0.167 HD
HETATM    7  N   UNK N   1      28.983  17.219   4.612  0.00  0.00    -0.290 N 
HETATM    8  O   UNK N   1      30.587  16.598   3.118  0.00  0.00    -0.265 OA
ENDROOT
BRANCH   1   9
HETATM    9  C   UNK N   1      33.126  16.872   6.840  0.00  0.00    -0.034 A 
HETATM   10  C   UNK N   1      33.880  17.996   7.220  0.00  0.00     0.014 A 
HETATM   11  C   UNK N   1      34.495  18.056   8.469  0.00  0.00     0.037 A 
HETATM   12  C   UNK N   1      34.365  16.990   9.359  0.00  0.00     0.065 A 
HETATM   13  C   UNK N   1      33.623  15.863   8.994  0.00  0.00     0.037 A 
HETATM   14  C   UNK N   1      32.999  15.807   7.742  0.00  0.00     0.014 A 
BRANCH  12  15
HETATM   15  O   UNK N   1      34.951  17.051  10.565  0.00  0.00    -0.361 OA
HETATM   16  H   UNK N   1      34.445  16.917  11.342  0.00  0.00     0.217 HD
ENDBRANCH  12  15
ENDBRANCH   1   9
BRANCH   7  17
HETATM   17  C   UNK N   1      27.804  17.118   3.774  0.00  0.00     0.243 C 
BRANCH  17  18
HETATM   18  C   UNK N   1      27.294  15.715   3.624  0.00  0.00     0.158 C 
HETATM   19  O   UNK N   1      26.428  15.311   4.383  0.00  0.00    -0.649 OA
BRANCH  18  20
HETATM   20  O   UNK N   1      27.779  14.895   2.672  0.00  0.00    -0.775 OA
HETATM   21  H   UNK N   1      27.516  14.258   2.037  0.00  0.00     0.167 HD
ENDBRANCH  18  20
ENDBRANCH  17  18
ENDBRANCH   7  17
BRANCH   3  22
HETATM   22  C   UNK N   1      27.868  17.929   6.897  0.00  0.00     0.166 C 
BRANCH  22  23
HETATM   23  C   UNK N   1      28.369  18.532   8.206  0.00  0.00     0.196 C 
BRANCH  23  24
HETATM   24  O   UNK N   1      27.498  18.236   9.258  0.00  0.00    -0.398 OA
HETATM   25  H   UNK N   1      27.292  18.897   9.938  0.00  0.00     0.209 HD
ENDBRANCH  23  24
ENDBRANCH  22  23
BRANCH  22  26
HETATM   26  N   UNK N   1      27.002  16.806   7.205  0.00  0.00    -0.418 N 
HETATM   27  H   UNK N   1      27.347  15.849   7.126  0.00  0.00     0.150 HD
HETATM   28  H   UNK N   1      26.042  16.974   7.504  0.00  0.00     0.150 HD
ENDBRANCH  22  26
ENDBRANCH   3  22
TORSDOF 9
ENDMDL
MODEL 9
REMARK VINA RESULT:      -5.8     19.312     22.506
REMARK  9 active torsions:
REMARK  status: ('A' for Active; 'I' for Inactive)
REMARK    1  A    between atoms: C_8  and  C_5 
REMARK    2  A    between atoms: C_12  and  C_6 
REMARK    3  A    between atoms: N_18  and  C_6 
REMARK    4  A    between atoms: C_10  and  C_7 
REMARK    5  A    between atoms: O_19  and  C_7 
REMARK    6  A    between atoms: O_20  and  C_9 
REMARK    7  A    between atoms: C_13  and  C_10 
REMARK    8  A    between atoms: C_10  and  N_15 
REMARK    9  A    between atoms: O_22  and  C_12 
ROOT
HETATM    1  C   UNK N   1      30.692  25.518  -3.473  0.00  0.00     0.046 C 
HETATM    2  C   UNK N   1      29.522  25.935  -3.996  0.00  0.00     0.103 A 
HETATM    3  C   UNK N   1      27.619  25.859  -5.072  0.00  0.00     0.112 A 
HETATM    4  C   UNK N   1      28.964  27.275  -4.002  0.00  0.00     0.276 A 
HETATM    5  N   UNK N   1      28.598  25.117  -4.686  0.00  0.00    -0.339 N 
ATOM      6  HN  UNK N   1      28.691  24.114  -4.850  1.00  0.00     0.167 HD
HETATM    7  N   UNK N   1      27.801  27.223  -4.678  0.00  0.00    -0.290 N 
HETATM    8  O   UNK N   1      29.461  28.291  -3.540  0.00  0.00    -0.265 OA
ENDROOT
BRANCH   1   9
HETATM    9  C   UNK N   1      31.199  24.125  -3.625  0.00  0.00    -0.034 A 
HETATM   10  C   UNK N   1      32.154  23.791  -4.600  0.00  0.00     0.014 A 
HETATM   11  C   UNK N   1      32.667  22.497  -4.685  0.00  0.00     0.037 A 
HETATM   12  C   UNK N   1      32.229  21.517  -3.794  0.00  0.00     0.065 A 
HETATM   13  C   UNK N   1      31.275  21.833  -2.822  0.00  0.00     0.037 A 
HETATM   14  C   UNK N   1      30.767  23.134  -2.732  0.00  0.00     0.014 A 
BRANCH  12  15
HETATM   15  O   UNK N   1      32.728  20.273  -3.872  0.00  0.00    -0.361 OA
HETATM   16  H   UNK N   1      32.175  19.558  -4.119  0.00  0.00     0.217 HD
ENDBRANCH  12  15
ENDBRANCH   1   9
BRANCH   7  17
HETATM   17  C   UNK N   1      26.962  28.354  -5.024  0.00  0.00     0.243 C 
BRANCH  17  18
HETATM   18  C   UNK N   1      26.077  28.808  -3.900  0.00  0.00     0.158 C 
HETATM   19  O   UNK N   1      25.445  27.979  -3.267  0.00  0.00    -0.649 OA
BRANCH  18  20
HETATM   20  O   UNK N   1      25.967  30.113  -3.583  0.00  0.00    -0.775 OA
HETATM   21  H   UNK N   1      25.336  30.774  -3.374  0.00  0.00     0.167 HD
ENDBRANCH  18  20
ENDBRANCH  17  18
ENDBRANCH   7  17
BRANCH   3  22
HETATM   22  C   UNK N   1      26.451  25.274  -5.839  0.00  0.00     0.166 C 
BRANCH  22  23
HETATM   23  C   UNK N   1      25.582  24.408  -4.932  0.00  0.00     0.196 C 
BRANCH  23  24
HETATM   24  O   UNK N   1      26.056  24.429  -3.618  0.00  0.00    -0.398 OA
HETATM   25  H   UNK N   1      26.103  23.616  -3.089  0.00  0.00     0.209 HD
ENDBRANCH  23  24
ENDBRANCH  22  23
BRANCH  22  26
HETATM   26  N   UNK N   1      26.887  24.472  -6.967  0.00  0.00    -0.418 N 
HETATM   27  H   UNK N   1      26.205  23.996  -7.558  0.00  0.00     0.150 HD
HETATM   28  H   UNK N   1      27.882  24.384  -7.172  0.00  0.00     0.150 HD
ENDBRANCH  22  26
ENDBRANCH   3  22
TORSDOF 9
ENDMDL
