MODEL 1
REMARK VINA RESULT:      -7.5      0.000      0.000
REMARK  9 active torsions:
REMARK  status: ('A' for Active; 'I' for Inactive)
REMARK    1  A    between atoms: C_15  and  C_12 
REMARK    2  A    between atoms: C_21  and  C_12 
REMARK    3  A    between atoms: C_16  and  C_14 
REMARK    4  A    between atoms: N_30  and  C_14 
REMARK    5  A    between atoms: C_24  and  C_17 
REMARK    6  A    between atoms: C_22  and  C_19 
REMARK    7  A    between atoms: C_23  and  C_21 
REMARK    8  A    between atoms: C_21  and  N_30 
REMARK       I    between atoms: N_30  and  C_22 
REMARK    9  A    between atoms: O_33  and  C_23 
ROOT
HETATM    1  C   UNK N   1      27.302  21.526  -8.163  0.00  0.00     0.256 C 
HETATM    2  N   UNK N   1      27.487  22.893  -8.107  0.00  0.00    -0.329 N 
HETATM    3  O   UNK N   1      26.207  21.048  -7.889  0.00  0.00    -0.267 OA
ENDROOT
BRANCH   2   4
HETATM    4  C   UNK N   1      28.863  23.405  -8.013  0.00  0.00     0.165 C 
BRANCH   4   5
HETATM    5  C   UNK N   1      29.327  23.891  -6.663  0.00  0.00    -0.039 A 
HETATM    6  C   UNK N   1      29.484  25.264  -6.435  0.00  0.00     0.009 A 
HETATM    7  C   UNK N   1      29.870  25.732  -5.177  0.00  0.00     0.001 A 
HETATM    8  C   UNK N   1      30.058  24.834  -4.124  0.00  0.00     0.016 A 
HETATM    9  C   UNK N   1      29.849  23.464  -4.323  0.00  0.00     0.048 A 
HETATM   10  C   UNK N   1      29.478  23.002  -5.595  0.00  0.00     0.025 A 
BRANCH   9  11
HETATM   11  C   UNK N   1      29.997  22.490  -3.189  0.00  0.00     0.417 C 
HETATM   12  F   UNK N   1      31.185  22.737  -2.524  0.00  0.00    -0.166 F 
HETATM   13  F   UNK N   1      28.945  22.639  -2.304  0.00  0.00    -0.166 F 
HETATM   14  F   UNK N   1      30.009  21.184  -3.649  0.00  0.00    -0.166 F 
ENDBRANCH   9  11
ENDBRANCH   4   5
ENDBRANCH   2   4
BRANCH   2  15
HETATM   15  C   UNK N   1      26.343  23.743  -7.734  0.00  0.00     0.190 C 
BRANCH  15  16
HETATM   16  C   UNK N   1      26.042  23.728  -6.217  0.00  0.00     0.074 C 
BRANCH  16  17
HETATM   17  C   UNK N   1      25.952  24.968  -5.356  0.00  0.00    -0.056 A 
HETATM   18  C   UNK N   1      25.364  26.107  -5.921  0.00  0.00     0.007 A 
HETATM   19  C   UNK N   1      25.274  27.297  -5.191  0.00  0.00     0.001 A 
HETATM   20  C   UNK N   1      25.783  27.359  -3.892  0.00  0.00     0.000 A 
HETATM   21  C   UNK N   1      26.379  26.233  -3.324  0.00  0.00     0.001 A 
HETATM   22  C   UNK N   1      26.463  25.044  -4.054  0.00  0.00     0.007 A 
ENDBRANCH  16  17
ENDBRANCH  15  16
BRANCH  15  23
HETATM   23  C   UNK N   1      25.196  23.552  -8.700  0.00  0.00     0.164 C 
HETATM   24  O   UNK N   1      25.209  24.091  -9.795  0.00  0.00    -0.648 OA
BRANCH  23  25
HETATM   25  O   UNK N   1      24.126  22.821  -8.330  0.00  0.00    -0.775 OA
HETATM   26  H   UNK N   1      23.670  22.830  -7.512  0.00  0.00     0.167 HD
ENDBRANCH  23  25
ENDBRANCH  15  23
ENDBRANCH   2  15
BRANCH   1  27
HETATM   27  C   UNK N   1      28.395  20.579  -8.487  0.00  0.00     0.054 A 
HETATM   28  C   UNK N   1      28.930  19.776  -7.469  0.00  0.00     0.020 A 
HETATM   29  C   UNK N   1      29.920  18.831  -7.757  0.00  0.00     0.025 A 
HETATM   30  C   UNK N   1      30.364  18.663  -9.070  0.00  0.00     0.035 A 
HETATM   31  C   UNK N   1      29.807  19.426 -10.097  0.00  0.00     0.048 A 
HETATM   32 Cl   UNK N   1      31.582  17.461  -9.440  0.00  0.00    -0.084 Cl
HETATM   33  C   UNK N   1      28.828  20.382  -9.817  0.00  0.00     0.051 A 
HETATM   34 Cl   UNK N   1      28.051  21.187 -11.166  0.00  0.00    -0.083 Cl
ENDBRANCH   1  27
TORSDOF 9
ENDMDL
MODEL 2
REMARK VINA RESULT:      -7.4      2.716      6.187
REMARK  9 active torsions:
REMARK  status: ('A' for Active; 'I' for Inactive)
REMARK    1  A    between atoms: C_15  and  C_12 
REMARK    2  A    between atoms: C_21  and  C_12 
REMARK    3  A    between atoms: C_16  and  C_14 
REMARK    4  A    between atoms: N_30  and  C_14 
REMARK    5  A    between atoms: C_24  and  C_17 
REMARK    6  A    between atoms: C_22  and  C_19 
REMARK    7  A    between atoms: C_23  and  C_21 
REMARK    8  A    between atoms: C_21  and  N_30 
REMARK       I    between atoms: N_30  and  C_22 
REMARK    9  A    between atoms: O_33  and  C_23 
ROOT
HETATM    1  C   UNK N   1      25.996  24.701  -7.163  0.00  0.00     0.256 C 
HETATM    2  N   UNK N   1      26.435  23.551  -6.537  0.00  0.00    -0.329 N 
HETATM    3  O   UNK N   1      25.484  24.631  -8.275  0.00  0.00    -0.267 OA
ENDROOT
BRANCH   2   4
HETATM    4  C   UNK N   1      27.407  23.684  -5.441  0.00  0.00     0.165 C 
BRANCH   4   5
HETATM    5  C   UNK N   1      28.836  23.310  -5.738  0.00  0.00    -0.039 A 
HETATM    6  C   UNK N   1      29.602  24.110  -6.596  0.00  0.00     0.009 A 
HETATM    7  C   UNK N   1      30.941  23.801  -6.846  0.00  0.00     0.001 A 
HETATM    8  C   UNK N   1      31.538  22.714  -6.205  0.00  0.00     0.016 A 
HETATM    9  C   UNK N   1      30.801  21.939  -5.300  0.00  0.00     0.048 A 
HETATM   10  C   UNK N   1      29.452  22.247  -5.070  0.00  0.00     0.025 A 
BRANCH   9  11
HETATM   11  C   UNK N   1      31.443  20.798  -4.564  0.00  0.00     0.417 C 
HETATM   12  F   UNK N   1      32.619  21.232  -3.978  0.00  0.00    -0.166 F 
HETATM   13  F   UNK N   1      30.590  20.339  -3.577  0.00  0.00    -0.166 F 
HETATM   14  F   UNK N   1      31.735  19.750  -5.422  0.00  0.00    -0.166 F 
ENDBRANCH   9  11
ENDBRANCH   4   5
ENDBRANCH   2   4
BRANCH   2  15
HETATM   15  C   UNK N   1      26.253  22.262  -7.227  0.00  0.00     0.190 C 
BRANCH  15  16
HETATM   16  C   UNK N   1      27.137  22.116  -8.488  0.00  0.00     0.074 C 
BRANCH  16  17
HETATM   17  C   UNK N   1      28.366  21.238  -8.566  0.00  0.00    -0.056 A 
HETATM   18  C   UNK N   1      28.380  20.071  -7.791  0.00  0.00     0.007 A 
HETATM   19  C   UNK N   1      29.496  19.229  -7.794  0.00  0.00     0.001 A 
HETATM   20  C   UNK N   1      30.614  19.553  -8.566  0.00  0.00     0.000 A 
HETATM   21  C   UNK N   1      30.614  20.718  -9.335  0.00  0.00     0.001 A 
HETATM   22  C   UNK N   1      29.495  21.555  -9.333  0.00  0.00     0.007 A 
ENDBRANCH  16  17
ENDBRANCH  15  16
BRANCH  15  23
HETATM   23  C   UNK N   1      24.787  21.910  -7.327  0.00  0.00     0.164 C 
HETATM   24  O   UNK N   1      24.207  21.389  -6.389  0.00  0.00    -0.648 OA
BRANCH  23  25
HETATM   25  O   UNK N   1      24.126  22.128  -8.481  0.00  0.00    -0.775 OA
HETATM   26  H   UNK N   1      24.123  22.898  -9.014  0.00  0.00     0.167 HD
ENDBRANCH  23  25
ENDBRANCH  15  23
ENDBRANCH   2  15
BRANCH   1  27
HETATM   27  C   UNK N   1      26.167  26.051  -6.577  0.00  0.00     0.054 A 
HETATM   28  C   UNK N   1      25.450  26.393  -5.421  0.00  0.00     0.020 A 
HETATM   29  C   UNK N   1      25.636  27.637  -4.812  0.00  0.00     0.025 A 
HETATM   30  C   UNK N   1      26.561  28.541  -5.339  0.00  0.00     0.035 A 
HETATM   31  C   UNK N   1      27.312  28.194  -6.463  0.00  0.00     0.048 A 
HETATM   32 Cl   UNK N   1      26.819  30.088  -4.563  0.00  0.00    -0.084 Cl
HETATM   33  C   UNK N   1      27.122  26.958  -7.086  0.00  0.00     0.051 A 
HETATM   34 Cl   UNK N   1      28.209  26.515  -8.388  0.00  0.00    -0.083 Cl
ENDBRANCH   1  27
TORSDOF 9
ENDMDL
MODEL 3
REMARK VINA RESULT:      -7.4     14.652     16.564
REMARK  9 active torsions:
REMARK  status: ('A' for Active; 'I' for Inactive)
REMARK    1  A    between atoms: C_15  and  C_12 
REMARK    2  A    between atoms: C_21  and  C_12 
REMARK    3  A    between atoms: C_16  and  C_14 
REMARK    4  A    between atoms: N_30  and  C_14 
REMARK    5  A    between atoms: C_24  and  C_17 
REMARK    6  A    between atoms: C_22  and  C_19 
REMARK    7  A    between atoms: C_23  and  C_21 
REMARK    8  A    between atoms: C_21  and  N_30 
REMARK       I    between atoms: N_30  and  C_22 
REMARK    9  A    between atoms: O_33  and  C_23 
ROOT
HETATM    1  C   UNK N   1      20.619  13.556   6.476  0.00  0.00     0.256 C 
HETATM    2  N   UNK N   1      20.857  14.723   5.778  0.00  0.00    -0.329 N 
HETATM    3  O   UNK N   1      19.796  12.752   6.054  0.00  0.00    -0.267 OA
ENDROOT
BRANCH   2   4
HETATM    4  C   UNK N   1      21.496  15.841   6.490  0.00  0.00     0.165 C 
BRANCH   4   5
HETATM    5  C   UNK N   1      22.893  16.218   6.068  0.00  0.00    -0.039 A 
HETATM    6  C   UNK N   1      23.951  15.327   6.290  0.00  0.00     0.009 A 
HETATM    7  C   UNK N   1      25.244  15.644   5.865  0.00  0.00     0.001 A 
HETATM    8  C   UNK N   1      25.480  16.834   5.173  0.00  0.00     0.016 A 
HETATM    9  C   UNK N   1      24.421  17.707   4.894  0.00  0.00     0.048 A 
HETATM   10  C   UNK N   1      23.131  17.388   5.341  0.00  0.00     0.025 A 
BRANCH   9  11
HETATM   11  C   UNK N   1      24.650  18.966   4.107  0.00  0.00     0.417 C 
HETATM   12  F   UNK N   1      23.439  19.442   3.638  0.00  0.00    -0.166 F 
HETATM   13  F   UNK N   1      25.228  19.926   4.918  0.00  0.00    -0.166 F 
HETATM   14  F   UNK N   1      25.485  18.736   3.026  0.00  0.00    -0.166 F 
ENDBRANCH   9  11
ENDBRANCH   4   5
ENDBRANCH   2   4
BRANCH   2  15
HETATM   15  C   UNK N   1      20.119  14.956   4.525  0.00  0.00     0.190 C 
BRANCH  15  16
HETATM   16  C   UNK N   1      21.043  15.120   3.295  0.00  0.00     0.074 C 
BRANCH  16  17
HETATM   17  C   UNK N   1      22.289  14.298   3.053  0.00  0.00    -0.056 A 
HETATM   18  C   UNK N   1      23.436  14.973   2.615  0.00  0.00     0.007 A 
HETATM   19  C   UNK N   1      24.615  14.271   2.344  0.00  0.00     0.001 A 
HETATM   20  C   UNK N   1      24.653  12.884   2.500  0.00  0.00     0.000 A 
HETATM   21  C   UNK N   1      23.513  12.201   2.928  0.00  0.00     0.001 A 
HETATM   22  C   UNK N   1      22.339  12.905   3.202  0.00  0.00     0.007 A 
ENDBRANCH  16  17
ENDBRANCH  15  16
BRANCH  15  23
HETATM   23  C   UNK N   1      19.010  15.961   4.735  0.00  0.00     0.164 C 
HETATM   24  O   UNK N   1      18.142  15.764   5.569  0.00  0.00    -0.648 OA
BRANCH  23  25
HETATM   25  O   UNK N   1      18.951  17.061   3.959  0.00  0.00    -0.775 OA
HETATM   26  H   UNK N   1      19.189  17.941   4.177  0.00  0.00     0.167 HD
ENDBRANCH  23  25
ENDBRANCH  15  23
ENDBRANCH   2  15
BRANCH   1  27
HETATM   27  C   UNK N   1      21.276  13.243   7.767  0.00  0.00     0.054 A 
HETATM   28  C   UNK N   1      20.709  13.718   8.958  0.00  0.00     0.020 A 
HETATM   29  C   UNK N   1      21.273  13.388  10.195  0.00  0.00     0.025 A 
HETATM   30  C   UNK N   1      22.394  12.557  10.251  0.00  0.00     0.035 A 
HETATM   31  C   UNK N   1      22.940  12.043   9.075  0.00  0.00     0.048 A 
HETATM   32 Cl   UNK N   1      23.086  12.117  11.797  0.00  0.00    -0.084 Cl
HETATM   33  C   UNK N   1      22.391  12.379   7.834  0.00  0.00     0.051 A 
HETATM   34 Cl   UNK N   1      23.016  11.570   6.410  0.00  0.00    -0.083 Cl
ENDBRANCH   1  27
TORSDOF 9
ENDMDL
MODEL 4
REMARK VINA RESULT:      -7.4      4.086      5.759
REMARK  9 active torsions:
REMARK  status: ('A' for Active; 'I' for Inactive)
REMARK    1  A    between atoms: C_15  and  C_12 
REMARK    2  A    between atoms: C_21  and  C_12 
REMARK    3  A    between atoms: C_16  and  C_14 
REMARK    4  A    between atoms: N_30  and  C_14 
REMARK    5  A    between atoms: C_24  and  C_17 
REMARK    6  A    between atoms: C_22  and  C_19 
REMARK    7  A    between atoms: C_23  and  C_21 
REMARK    8  A    between atoms: C_21  and  N_30 
REMARK       I    between atoms: N_30  and  C_22 
REMARK    9  A    between atoms: O_33  and  C_23 
ROOT
HETATM    1  C   UNK N   1      27.376  24.467  -3.777  0.00  0.00     0.256 C 
HETATM    2  N   UNK N   1      27.260  25.712  -4.364  0.00  0.00    -0.329 N 
HETATM    3  O   UNK N   1      26.387  23.930  -3.291  0.00  0.00    -0.267 OA
ENDROOT
BRANCH   2   4
HETATM    4  C   UNK N   1      28.482  26.512  -4.544  0.00  0.00     0.165 C 
BRANCH   4   5
HETATM    5  C   UNK N   1      28.680  27.176  -5.883  0.00  0.00    -0.039 A 
HETATM    6  C   UNK N   1      28.490  28.558  -6.009  0.00  0.00     0.009 A 
HETATM    7  C   UNK N   1      28.712  29.194  -7.232  0.00  0.00     0.001 A 
HETATM    8  C   UNK N   1      29.172  28.461  -8.328  0.00  0.00     0.016 A 
HETATM    9  C   UNK N   1      29.422  27.088  -8.201  0.00  0.00     0.048 A 
HETATM   10  C   UNK N   1      29.178  26.456  -6.973  0.00  0.00     0.025 A 
BRANCH   9  11
HETATM   11  C   UNK N   1      29.964  26.295  -9.355  0.00  0.00     0.417 C 
HETATM   12  F   UNK N   1      31.347  26.315  -9.317  0.00  0.00    -0.166 F 
HETATM   13  F   UNK N   1      29.530  24.985  -9.268  0.00  0.00    -0.166 F 
HETATM   14  F   UNK N   1      29.546  26.823 -10.566  0.00  0.00    -0.166 F 
ENDBRANCH   9  11
ENDBRANCH   4   5
ENDBRANCH   2   4
BRANCH   2  15
HETATM   15  C   UNK N   1      25.933  26.349  -4.406  0.00  0.00     0.190 C 
BRANCH  15  16
HETATM   16  C   UNK N   1      25.440  26.636  -5.843  0.00  0.00     0.074 C 
BRANCH  16  17
HETATM   17  C   UNK N   1      25.628  25.692  -7.010  0.00  0.00    -0.056 A 
HETATM   18  C   UNK N   1      25.935  26.255  -8.256  0.00  0.00     0.007 A 
HETATM   19  C   UNK N   1      26.094  25.443  -9.383  0.00  0.00     0.001 A 
HETATM   20  C   UNK N   1      25.936  24.059  -9.275  0.00  0.00     0.000 A 
HETATM   21  C   UNK N   1      25.621  23.490  -8.041  0.00  0.00     0.001 A 
HETATM   22  C   UNK N   1      25.467  24.303  -6.915  0.00  0.00     0.007 A 
ENDBRANCH  16  17
ENDBRANCH  15  16
BRANCH  15  23
HETATM   23  C   UNK N   1      25.835  27.450  -3.375  0.00  0.00     0.164 C 
HETATM   24  O   UNK N   1      25.917  27.197  -2.184  0.00  0.00    -0.648 OA
BRANCH  23  25
HETATM   25  O   UNK N   1      25.605  28.718  -3.772  0.00  0.00    -0.775 OA
HETATM   26  H   UNK N   1      26.225  29.363  -4.049  0.00  0.00     0.167 HD
ENDBRANCH  23  25
ENDBRANCH  15  23
ENDBRANCH   2  15
BRANCH   1  27
HETATM   27  C   UNK N   1      28.670  23.757  -3.646  0.00  0.00     0.054 A 
HETATM   28  C   UNK N   1      29.240  23.599  -2.374  0.00  0.00     0.020 A 
HETATM   29  C   UNK N   1      30.429  22.882  -2.212  0.00  0.00     0.025 A 
HETATM   30  C   UNK N   1      31.044  22.293  -3.320  0.00  0.00     0.035 A 
HETATM   31  C   UNK N   1      30.463  22.407  -4.583  0.00  0.00     0.048 A 
HETATM   32 Cl   UNK N   1      32.518  21.369  -3.118  0.00  0.00    -0.084 Cl
HETATM   33  C   UNK N   1      29.283  23.133  -4.755  0.00  0.00     0.051 A 
HETATM   34 Cl   UNK N   1      28.515  23.099  -6.331  0.00  0.00    -0.083 Cl
ENDBRANCH   1  27
TORSDOF 9
ENDMDL
MODEL 5
REMARK VINA RESULT:      -7.3      3.704      4.950
REMARK  9 active torsions:
REMARK  status: ('A' for Active; 'I' for Inactive)
REMARK    1  A    between atoms: C_15  and  C_12 
REMARK    2  A    between atoms: C_21  and  C_12 
REMARK    3  A    between atoms: C_16  and  C_14 
REMARK    4  A    between atoms: N_30  and  C_14 
REMARK    5  A    between atoms: C_24  and  C_17 
REMARK    6  A    between atoms: C_22  and  C_19 
REMARK    7  A    between atoms: C_23  and  C_21 
REMARK    8  A    between atoms: C_21  and  N_30 
REMARK       I    between atoms: N_30  and  C_22 
REMARK    9  A    between atoms: O_33  and  C_23 
ROOT
HETATM    1  C   UNK N   1      29.271  22.748  -6.452  0.00  0.00     0.256 C 
HETATM    2  N   UNK N   1      28.252  23.643  -6.191  0.00  0.00    -0.329 N 
HETATM    3  O   UNK N   1      29.311  22.171  -7.532  0.00  0.00    -0.267 OA
ENDROOT
BRANCH   2   4
HETATM    4  C   UNK N   1      27.970  23.987  -4.789  0.00  0.00     0.165 C 
BRANCH   4   5
HETATM    5  C   UNK N   1      28.330  25.378  -4.334  0.00  0.00    -0.039 A 
HETATM    6  C   UNK N   1      29.677  25.755  -4.248  0.00  0.00     0.009 A 
HETATM    7  C   UNK N   1      30.025  27.054  -3.870  0.00  0.00     0.001 A 
HETATM    8  C   UNK N   1      29.029  28.001  -3.621  0.00  0.00     0.016 A 
HETATM    9  C   UNK N   1      27.679  27.654  -3.760  0.00  0.00     0.048 A 
HETATM   10  C   UNK N   1      27.340  26.341  -4.122  0.00  0.00     0.025 A 
BRANCH   9  11
HETATM   11  C   UNK N   1      26.597  28.673  -3.545  0.00  0.00     0.417 C 
HETATM   12  F   UNK N   1      26.415  29.402  -4.707  0.00  0.00    -0.166 F 
HETATM   13  F   UNK N   1      25.413  28.037  -3.221  0.00  0.00    -0.166 F 
HETATM   14  F   UNK N   1      26.929  29.546  -2.522  0.00  0.00    -0.166 F 
ENDBRANCH   9  11
ENDBRANCH   4   5
ENDBRANCH   2   4
BRANCH   2  15
HETATM   15  C   UNK N   1      27.248  23.892  -7.241  0.00  0.00     0.190 C 
BRANCH  15  16
HETATM   16  C   UNK N   1      27.694  24.957  -8.270  0.00  0.00     0.074 C 
BRANCH  16  17
HETATM   17  C   UNK N   1      28.287  26.299  -7.901  0.00  0.00    -0.056 A 
HETATM   18  C   UNK N   1      29.684  26.400  -7.856  0.00  0.00     0.007 A 
HETATM   19  C   UNK N   1      30.299  27.603  -7.495  0.00  0.00     0.001 A 
HETATM   20  C   UNK N   1      29.519  28.714  -7.164  0.00  0.00     0.000 A 
HETATM   21  C   UNK N   1      28.127  28.621  -7.197  0.00  0.00     0.001 A 
HETATM   22  C   UNK N   1      27.516  27.419  -7.563  0.00  0.00     0.007 A 
ENDBRANCH  16  17
ENDBRANCH  15  16
BRANCH  15  23
HETATM   23  C   UNK N   1      25.864  23.999  -6.643  0.00  0.00     0.164 C 
HETATM   24  O   UNK N   1      25.263  23.000  -6.285  0.00  0.00    -0.648 OA
BRANCH  23  25
HETATM   25  O   UNK N   1      25.268  25.204  -6.552  0.00  0.00    -0.775 OA
HETATM   26  H   UNK N   1      24.913  25.731  -7.241  0.00  0.00     0.167 HD
ENDBRANCH  23  25
ENDBRANCH  15  23
ENDBRANCH   2  15
BRANCH   1  27
HETATM   27  C   UNK N   1      30.306  22.395  -5.453  0.00  0.00     0.054 A 
HETATM   28  C   UNK N   1      30.073  21.332  -4.569  0.00  0.00     0.020 A 
HETATM   29  C   UNK N   1      31.056  20.937  -3.656  0.00  0.00     0.025 A 
HETATM   30  C   UNK N   1      32.292  21.588  -3.638  0.00  0.00     0.035 A 
HETATM   31  C   UNK N   1      32.551  22.618  -4.542  0.00  0.00     0.048 A 
HETATM   32 Cl   UNK N   1      33.536  21.079  -2.517  0.00  0.00    -0.084 Cl
HETATM   33  C   UNK N   1      31.569  23.027  -5.448  0.00  0.00     0.051 A 
HETATM   34 Cl   UNK N   1      32.011  24.209  -6.665  0.00  0.00    -0.083 Cl
ENDBRANCH   1  27
TORSDOF 9
ENDMDL
MODEL 6
REMARK VINA RESULT:      -7.3     13.102     14.855
REMARK  9 active torsions:
REMARK  status: ('A' for Active; 'I' for Inactive)
REMARK    1  A    between atoms: C_15  and  C_12 
REMARK    2  A    between atoms: C_21  and  C_12 
REMARK    3  A    between atoms: C_16  and  C_14 
REMARK    4  A    between atoms: N_30  and  C_14 
REMARK    5  A    between atoms: C_24  and  C_17 
REMARK    6  A    between atoms: C_22  and  C_19 
REMARK    7  A    between atoms: C_23  and  C_21 
REMARK    8  A    between atoms: C_21  and  N_30 
REMARK       I    between atoms: N_30  and  C_22 
REMARK    9  A    between atoms: O_33  and  C_23 
ROOT
HETATM    1  C   UNK N   1      20.091  15.465   4.368  0.00  0.00     0.256 C 
HETATM    2  N   UNK N   1      20.666  16.489   3.642  0.00  0.00    -0.329 N 
HETATM    3  O   UNK N   1      19.130  14.859   3.909  0.00  0.00    -0.267 OA
ENDROOT
BRANCH   2   4
HETATM    4  C   UNK N   1      21.505  17.464   4.358  0.00  0.00     0.165 C 
BRANCH   4   5
HETATM    5  C   UNK N   1      22.980  17.460   4.052  0.00  0.00    -0.039 A 
HETATM    6  C   UNK N   1      23.622  16.255   3.739  0.00  0.00     0.009 A 
HETATM    7  C   UNK N   1      24.980  16.241   3.410  0.00  0.00     0.001 A 
HETATM    8  C   UNK N   1      25.696  17.438   3.346  0.00  0.00     0.016 A 
HETATM    9  C   UNK N   1      25.053  18.656   3.600  0.00  0.00     0.048 A 
HETATM   10  C   UNK N   1      23.694  18.657   3.948  0.00  0.00     0.025 A 
BRANCH   9  11
HETATM   11  C   UNK N   1      25.796  19.957   3.487  0.00  0.00     0.417 C 
HETATM   12  F   UNK N   1      25.502  20.752   4.580  0.00  0.00    -0.166 F 
HETATM   13  F   UNK N   1      27.158  19.716   3.457  0.00  0.00    -0.166 F 
HETATM   14  F   UNK N   1      25.439  20.638   2.334  0.00  0.00    -0.166 F 
ENDBRANCH   9  11
ENDBRANCH   4   5
ENDBRANCH   2   4
BRANCH   2  15
HETATM   15  C   UNK N   1      20.110  16.809   2.316  0.00  0.00     0.190 C 
BRANCH  15  16
HETATM   16  C   UNK N   1      20.925  16.200   1.151  0.00  0.00     0.074 C 
BRANCH  16  17
HETATM   17  C   UNK N   1      21.213  14.723   0.997  0.00  0.00    -0.056 A 
HETATM   18  C   UNK N   1      22.556  14.330   0.914  0.00  0.00     0.007 A 
HETATM   19  C   UNK N   1      22.894  12.984   0.743  0.00  0.00     0.001 A 
HETATM   20  C   UNK N   1      21.889  12.019   0.643  0.00  0.00     0.000 A 
HETATM   21  C   UNK N   1      20.548  12.401   0.716  0.00  0.00     0.001 A 
HETATM   22  C   UNK N   1      20.214  13.746   0.891  0.00  0.00     0.007 A 
ENDBRANCH  16  17
ENDBRANCH  15  16
BRANCH  15  23
HETATM   23  C   UNK N   1      19.716  18.266   2.238  0.00  0.00     0.164 C 
HETATM   24  O   UNK N   1      20.531  19.114   1.911  0.00  0.00    -0.648 OA
BRANCH  23  25
HETATM   25  O   UNK N   1      18.468  18.640   2.581  0.00  0.00    -0.775 OA
HETATM   26  H   UNK N   1      18.195  19.156   3.313  0.00  0.00     0.167 HD
ENDBRANCH  23  25
ENDBRANCH  15  23
ENDBRANCH   2  15
BRANCH   1  27
HETATM   27  C   UNK N   1      20.546  15.090   5.728  0.00  0.00     0.054 A 
HETATM   28  C   UNK N   1      19.947  15.694   6.843  0.00  0.00     0.020 A 
HETATM   29  C   UNK N   1      20.313  15.316   8.138  0.00  0.00     0.025 A 
HETATM   30  C   UNK N   1      21.263  14.310   8.329  0.00  0.00     0.035 A 
HETATM   31  C   UNK N   1      21.834  13.672   7.228  0.00  0.00     0.048 A 
HETATM   32 Cl   UNK N   1      21.704  13.813   9.949  0.00  0.00    -0.084 Cl
HETATM   33  C   UNK N   1      21.484  14.053   5.930  0.00  0.00     0.051 A 
HETATM   34 Cl   UNK N   1      22.107  13.103   4.594  0.00  0.00    -0.083 Cl
ENDBRANCH   1  27
TORSDOF 9
ENDMDL
MODEL 7
REMARK VINA RESULT:      -7.3     14.241     17.090
REMARK  9 active torsions:
REMARK  status: ('A' for Active; 'I' for Inactive)
REMARK    1  A    between atoms: C_15  and  C_12 
REMARK    2  A    between atoms: C_21  and  C_12 
REMARK    3  A    between atoms: C_16  and  C_14 
REMARK    4  A    between atoms: N_30  and  C_14 
REMARK    5  A    between atoms: C_24  and  C_17 
REMARK    6  A    between atoms: C_22  and  C_19 
REMARK    7  A    between atoms: C_23  and  C_21 
REMARK    8  A    between atoms: C_21  and  N_30 
REMARK       I    between atoms: N_30  and  C_22 
REMARK    9  A    between atoms: O_33  and  C_23 
ROOT
HETATM    1  C   UNK N   1      33.639  14.799   8.931  0.00  0.00     0.256 C 
HETATM    2  N   UNK N   1      33.988  15.919   8.201  0.00  0.00    -0.329 N 
HETATM    3  O   UNK N   1      33.084  14.930  10.016  0.00  0.00    -0.267 OA
ENDROOT
BRANCH   2   4
HETATM    4  C   UNK N   1      35.007  15.773   7.150  0.00  0.00     0.165 C 
BRANCH   4   5
HETATM    5  C   UNK N   1      34.517  15.593   5.736  0.00  0.00    -0.039 A 
HETATM    6  C   UNK N   1      34.996  14.526   4.965  0.00  0.00     0.009 A 
HETATM    7  C   UNK N   1      34.520  14.320   3.668  0.00  0.00     0.001 A 
HETATM    8  C   UNK N   1      33.526  15.152   3.148  0.00  0.00     0.016 A 
HETATM    9  C   UNK N   1      32.997  16.188   3.929  0.00  0.00     0.048 A 
HETATM   10  C   UNK N   1      33.496  16.397   5.223  0.00  0.00     0.025 A 
BRANCH   9  11
HETATM   11  C   UNK N   1      31.893  17.060   3.403  0.00  0.00     0.417 C 
HETATM   12  F   UNK N   1      30.676  16.432   3.603  0.00  0.00    -0.166 F 
HETATM   13  F   UNK N   1      31.892  18.269   4.074  0.00  0.00    -0.166 F 
HETATM   14  F   UNK N   1      32.049  17.303   2.048  0.00  0.00    -0.166 F 
ENDBRANCH   9  11
ENDBRANCH   4   5
ENDBRANCH   2   4
BRANCH   2  15
HETATM   15  C   UNK N   1      33.658  17.246   8.749  0.00  0.00     0.190 C 
BRANCH  15  16
HETATM   16  C   UNK N   1      32.612  18.010   7.905  0.00  0.00     0.074 C 
BRANCH  16  17
HETATM   17  C   UNK N   1      31.116  17.872   8.078  0.00  0.00    -0.056 A 
HETATM   18  C   UNK N   1      30.415  17.150   7.103  0.00  0.00     0.007 A 
HETATM   19  C   UNK N   1      29.026  17.006   7.185  0.00  0.00     0.001 A 
HETATM   20  C   UNK N   1      28.325  17.595   8.240  0.00  0.00     0.000 A 
HETATM   21  C   UNK N   1      29.013  18.324   9.211  0.00  0.00     0.001 A 
HETATM   22  C   UNK N   1      30.400  18.462   9.128  0.00  0.00     0.007 A 
ENDBRANCH  16  17
ENDBRANCH  15  16
BRANCH  15  23
HETATM   23  C   UNK N   1      34.911  17.974   9.179  0.00  0.00     0.164 C 
HETATM   24  O   UNK N   1      35.561  17.582  10.134  0.00  0.00    -0.648 OA
BRANCH  23  25
HETATM   25  O   UNK N   1      35.287  19.096   8.532  0.00  0.00    -0.775 OA
HETATM   26  H   UNK N   1      35.267  19.980   8.841  0.00  0.00     0.167 HD
ENDBRANCH  23  25
ENDBRANCH  15  23
ENDBRANCH   2  15
BRANCH   1  27
HETATM   27  C   UNK N   1      33.960  13.421   8.492  0.00  0.00     0.054 A 
HETATM   28  C   UNK N   1      33.136  12.794   7.546  0.00  0.00     0.020 A 
HETATM   29  C   UNK N   1      33.448  11.517   7.068  0.00  0.00     0.025 A 
HETATM   30  C   UNK N   1      34.602  10.868   7.514  0.00  0.00     0.035 A 
HETATM   31  C   UNK N   1      35.451  11.501   8.421  0.00  0.00     0.048 A 
HETATM   32 Cl   UNK N   1      35.012   9.282   6.897  0.00  0.00    -0.084 Cl
HETATM   33  C   UNK N   1      35.140  12.770   8.914  0.00  0.00     0.051 A 
HETATM   34 Cl   UNK N   1      36.328  13.579   9.919  0.00  0.00    -0.083 Cl
ENDBRANCH   1  27
TORSDOF 9
ENDMDL
MODEL 8
REMARK VINA RESULT:      -7.3      2.399      3.346
REMARK  9 active torsions:
REMARK  status: ('A' for Active; 'I' for Inactive)
REMARK    1  A    between atoms: C_15  and  C_12 
REMARK    2  A    between atoms: C_21  and  C_12 
REMARK    3  A    between atoms: C_16  and  C_14 
REMARK    4  A    between atoms: N_30  and  C_14 
REMARK    5  A    between atoms: C_24  and  C_17 
REMARK    6  A    between atoms: C_22  and  C_19 
REMARK    7  A    between atoms: C_23  and  C_21 
REMARK    8  A    between atoms: C_21  and  N_30 
REMARK       I    between atoms: N_30  and  C_22 
REMARK    9  A    between atoms: O_33  and  C_23 
ROOT
HETATM    1  C   UNK N   1      27.380  23.154  -6.643  0.00  0.00     0.256 C 
HETATM    2  N   UNK N   1      27.354  24.277  -7.445  0.00  0.00    -0.329 N 
HETATM    3  O   UNK N   1      26.346  22.756  -6.120  0.00  0.00    -0.267 OA
ENDROOT
BRANCH   2   4
HETATM    4  C   UNK N   1      28.622  24.977  -7.703  0.00  0.00     0.165 C 
BRANCH   4   5
HETATM    5  C   UNK N   1      28.842  26.289  -6.994  0.00  0.00    -0.039 A 
HETATM    6  C   UNK N   1      28.304  27.467  -7.528  0.00  0.00     0.009 A 
HETATM    7  C   UNK N   1      28.461  28.684  -6.860  0.00  0.00     0.001 A 
HETATM    8  C   UNK N   1      29.118  28.725  -5.629  0.00  0.00     0.016 A 
HETATM    9  C   UNK N   1      29.610  27.546  -5.055  0.00  0.00     0.048 A 
HETATM   10  C   UNK N   1      29.463  26.332  -5.742  0.00  0.00     0.025 A 
BRANCH   9  11
HETATM   11  C   UNK N   1      30.274  27.565  -3.707  0.00  0.00     0.417 C 
HETATM   12  F   UNK N   1      30.319  26.279  -3.198  0.00  0.00    -0.166 F 
HETATM   13  F   UNK N   1      31.564  28.048  -3.828  0.00  0.00    -0.166 F 
HETATM   14  F   UNK N   1      29.579  28.369  -2.819  0.00  0.00    -0.166 F 
ENDBRANCH   9  11
ENDBRANCH   4   5
ENDBRANCH   2   4
BRANCH   2  15
HETATM   15  C   UNK N   1      26.065  24.955  -7.664  0.00  0.00     0.190 C 
BRANCH  15  16
HETATM   16  C   UNK N   1      25.263  25.175  -6.359  0.00  0.00     0.074 C 
BRANCH  16  17
HETATM   17  C   UNK N   1      25.638  26.179  -5.292  0.00  0.00    -0.056 A 
HETATM   18  C   UNK N   1      26.301  25.699  -4.155  0.00  0.00     0.007 A 
HETATM   19  C   UNK N   1      26.651  26.567  -3.116  0.00  0.00     0.001 A 
HETATM   20  C   UNK N   1      26.330  27.924  -3.202  0.00  0.00     0.000 A 
HETATM   21  C   UNK N   1      25.662  28.411  -4.326  0.00  0.00     0.001 A 
HETATM   22  C   UNK N   1      25.317  27.541  -5.364  0.00  0.00     0.007 A 
ENDBRANCH  16  17
ENDBRANCH  15  16
BRANCH  15  23
HETATM   23  C   UNK N   1      25.350  24.373  -8.862  0.00  0.00     0.164 C 
HETATM   24  O   UNK N   1      25.438  24.903  -9.957  0.00  0.00    -0.648 OA
BRANCH  23  25
HETATM   25  O   UNK N   1      24.566  23.287  -8.708  0.00  0.00    -0.775 OA
HETATM   26  H   UNK N   1      24.056  23.038  -7.963  0.00  0.00     0.167 HD
ENDBRANCH  23  25
ENDBRANCH  15  23
ENDBRANCH   2  15
BRANCH   1  27
HETATM   27  C   UNK N   1      28.629  22.421  -6.325  0.00  0.00     0.054 A 
HETATM   28  C   UNK N   1      29.324  22.731  -5.147  0.00  0.00     0.020 A 
HETATM   29  C   UNK N   1      30.472  22.016  -4.791  0.00  0.00     0.025 A 
HETATM   30  C   UNK N   1      30.918  20.966  -5.598  0.00  0.00     0.035 A 
HETATM   31  C   UNK N   1      30.209  20.621  -6.748  0.00  0.00     0.048 A 
HETATM   32 Cl   UNK N   1      32.337  20.049  -5.141  0.00  0.00    -0.084 Cl
HETATM   33  C   UNK N   1      29.069  21.339  -7.118  0.00  0.00     0.051 A 
HETATM   34 Cl   UNK N   1      28.130  20.753  -8.478  0.00  0.00    -0.083 Cl
ENDBRANCH   1  27
TORSDOF 9
ENDMDL
MODEL 9
REMARK VINA RESULT:      -7.2     15.033     16.801
REMARK  9 active torsions:
REMARK  status: ('A' for Active; 'I' for Inactive)
REMARK    1  A    between atoms: C_15  and  C_12 
REMARK    2  A    between atoms: C_21  and  C_12 
REMARK    3  A    between atoms: C_16  and  C_14 
REMARK    4  A    between atoms: N_30  and  C_14 
REMARK    5  A    between atoms: C_24  and  C_17 
REMARK    6  A    between atoms: C_22  and  C_19 
REMARK    7  A    between atoms: C_23  and  C_21 
REMARK    8  A    between atoms: C_21  and  N_30 
REMARK       I    between atoms: N_30  and  C_22 
REMARK    9  A    between atoms: O_33  and  C_23 
ROOT
HETATM    1  C   UNK N   1      20.793  13.148   6.634  0.00  0.00     0.256 C 
HETATM    2  N   UNK N   1      20.762  14.354   5.964  0.00  0.00    -0.329 N 
HETATM    3  O   UNK N   1      20.018  12.254   6.312  0.00  0.00    -0.267 OA
ENDROOT
BRANCH   2   4
HETATM    4  C   UNK N   1      21.366  15.527   6.616  0.00  0.00     0.165 C 
BRANCH   4   5
HETATM    5  C   UNK N   1      22.640  16.068   6.019  0.00  0.00    -0.039 A 
HETATM    6  C   UNK N   1      22.637  17.322   5.394  0.00  0.00     0.009 A 
HETATM    7  C   UNK N   1      23.819  17.857   4.875  0.00  0.00     0.001 A 
HETATM    8  C   UNK N   1      25.022  17.162   5.017  0.00  0.00     0.016 A 
HETATM    9  C   UNK N   1      25.049  15.933   5.690  0.00  0.00     0.048 A 
HETATM   10  C   UNK N   1      23.854  15.397   6.192  0.00  0.00     0.025 A 
BRANCH   9  11
HETATM   11  C   UNK N   1      26.342  15.197   5.895  0.00  0.00     0.417 C 
HETATM   12  F   UNK N   1      27.096  15.852   6.853  0.00  0.00    -0.166 F 
HETATM   13  F   UNK N   1      26.084  13.909   6.327  0.00  0.00    -0.166 F 
HETATM   14  F   UNK N   1      27.074  15.135   4.721  0.00  0.00    -0.166 F 
ENDBRANCH   9  11
ENDBRANCH   4   5
ENDBRANCH   2   4
BRANCH   2  15
HETATM   15  C   UNK N   1      19.802  14.522   4.859  0.00  0.00     0.190 C 
BRANCH  15  16
HETATM   16  C   UNK N   1      20.423  14.258   3.467  0.00  0.00     0.074 C 
BRANCH  16  17
HETATM   17  C   UNK N   1      21.905  14.092   3.216  0.00  0.00    -0.056 A 
HETATM   18  C   UNK N   1      22.557  15.102   2.495  0.00  0.00     0.007 A 
HETATM   19  C   UNK N   1      23.920  15.000   2.202  0.00  0.00     0.001 A 
HETATM   20  C   UNK N   1      24.642  13.880   2.620  0.00  0.00     0.000 A 
HETATM   21  C   UNK N   1      24.001  12.865   3.330  0.00  0.00     0.001 A 
HETATM   22  C   UNK N   1      22.640  12.972   3.625  0.00  0.00     0.007 A 
ENDBRANCH  16  17
ENDBRANCH  15  16
BRANCH  15  23
HETATM   23  C   UNK N   1      18.972  15.769   5.055  0.00  0.00     0.164 C 
HETATM   24  O   UNK N   1      18.149  15.834   5.953  0.00  0.00    -0.648 OA
BRANCH  23  25
HETATM   25  O   UNK N   1      19.106  16.802   4.199  0.00  0.00    -0.775 OA
HETATM   26  H   UNK N   1      19.873  17.305   4.010  0.00  0.00     0.167 HD
ENDBRANCH  23  25
ENDBRANCH  15  23
ENDBRANCH   2  15
BRANCH   1  27
HETATM   27  C   UNK N   1      21.690  12.889   7.784  0.00  0.00     0.054 A 
HETATM   28  C   UNK N   1      22.923  12.259   7.564  0.00  0.00     0.020 A 
HETATM   29  C   UNK N   1      23.816  12.056   8.621  0.00  0.00     0.025 A 
HETATM   30  C   UNK N   1      23.493  12.506   9.903  0.00  0.00     0.035 A 
HETATM   31  C   UNK N   1      22.289  13.173  10.125  0.00  0.00     0.048 A 
HETATM   32 Cl   UNK N   1      24.621  12.281  11.223  0.00  0.00    -0.084 Cl
HETATM   33  C   UNK N   1      21.385  13.368   9.077  0.00  0.00     0.051 A 
HETATM   34 Cl   UNK N   1      19.969  14.356   9.382  0.00  0.00    -0.083 Cl
ENDBRANCH   1  27
TORSDOF 9
ENDMDL
