MODEL 1
REMARK VINA RESULT:      -6.1      0.000      0.000
REMARK WARNING: 32 MAX_TORS EXCEEDED!!!
REMARK  50 active torsions:
REMARK  status: ('A' for Active; 'I' for Inactive)
REMARK    1  A    between atoms: C_5  and  C_3 
REMARK    2  A    between atoms: C_6  and  C_4 
REMARK    3  A    between atoms: C_7  and  C_5 
REMARK    4  A    between atoms: C_8  and  C_6 
REMARK    5  A    between atoms: C_9  and  C_7 
REMARK    6  A    between atoms: C_10  and  C_8 
REMARK    7  A    between atoms: C_11  and  C_9 
REMARK    8  A    between atoms: C_12  and  C_10 
REMARK    9  A    between atoms: C_13  and  C_11 
REMARK   10  A    between atoms: C_14  and  C_12 
REMARK   11  A    between atoms: C_15  and  C_13 
REMARK   12  A    between atoms: C_16  and  C_14 
REMARK   13  A    between atoms: C_17  and  C_15 
REMARK   14  A    between atoms: C_18  and  C_16 
REMARK   15  A    between atoms: C_19  and  C_17 
REMARK   16  A    between atoms: C_20  and  C_18 
REMARK   17  A    between atoms: C_21  and  C_19 
REMARK   18  A    between atoms: C_22  and  C_20 
REMARK   19  A    between atoms: C_23  and  C_21 
REMARK   20  A    between atoms: C_24  and  C_22 
REMARK   21  A    between atoms: C_25  and  C_23 
REMARK   22  A    between atoms: C_26  and  C_24 
REMARK   23  A    between atoms: C_27  and  C_25 
REMARK   24  A    between atoms: C_28  and  C_26 
REMARK   25  A    between atoms: C_29  and  C_27 
REMARK   26  A    between atoms: C_30  and  C_28 
REMARK   27  A    between atoms: C_31  and  C_29 
REMARK   28  A    between atoms: C_32  and  C_30 
REMARK   29  A    between atoms: C_33  and  C_31 
REMARK   30  A    between atoms: C_34  and  C_32 
REMARK   31  A    between atoms: C_42  and  C_33 
REMARK   32  A    between atoms: C_43  and  C_34 
REMARK   33  A    between atoms: C_40  and  C_35 
REMARK   34  A    between atoms: O_52  and  C_35 
REMARK   35  A    between atoms: C_39  and  C_36 
REMARK   36  A    between atoms: O_61  and  C_36 
REMARK   37  A    between atoms: C_39  and  C_37 
REMARK   38  A    between atoms: O_62  and  C_37 
REMARK   39  A    between atoms: C_41  and  C_38 
REMARK   40  A    between atoms: O_63  and  C_38 
REMARK   41  A    between atoms: C_39  and  O_64 
REMARK   42  A    between atoms: O_61  and  C_42 
REMARK   43  A    between atoms: O_64  and  C_43 
REMARK   44  A    between atoms: C_44  and  O_55 
REMARK   45  A    between atoms: C_45  and  O_56 
REMARK   46  A    between atoms: C_46  and  O_57 
REMARK   47  A    between atoms: C_48  and  O_59 
REMARK   48  A    between atoms: C_49  and  O_60 
REMARK   49  A    between atoms: C_50  and  O_62 
REMARK   50  A    between atoms: C_51  and  O_63 
ROOT
HETATM    1  C   UNK N   1      20.219  15.154   7.828  0.00  0.00     0.180 C 
HETATM    2  C   UNK N   1      19.701  15.613   9.219  0.00  0.00     0.180 C 
HETATM    3  C   UNK N   1      19.248  17.075   9.160  0.00  0.00     0.183 C 
HETATM    4  C   UNK N   1      20.382  17.919   8.577  0.00  0.00     0.204 C 
HETATM    5  C   UNK N   1      20.774  17.351   7.197  0.00  0.00     0.291 C 
HETATM    6  O   UNK N   1      18.107  17.196   8.356  0.00  0.00    -0.390 OA
HETATM    7  O   UNK N   1      21.249  16.018   7.369  0.00  0.00    -0.348 OA
HETATM    8  H   UNK N   1      17.370  17.388   7.756  0.00  0.00     0.210 HD
ENDROOT
BRANCH   2   9
HETATM    9  O   UNK N   1      18.628  14.823   9.642  0.00  0.00    -0.390 OA
HETATM   10  H   UNK N   1      17.808  14.691   9.142  0.00  0.00     0.210 HD
ENDBRANCH   2   9
BRANCH   4  11
HETATM   11  O   UNK N   1      19.967  19.248   8.467  0.00  0.00    -0.388 OA
HETATM   12  H   UNK N   1      19.090  19.581   8.219  0.00  0.00     0.210 HD
ENDBRANCH   4  11
BRANCH   1  13
HETATM   13  C   UNK N   1      20.845  13.755   7.872  0.00  0.00     0.205 C 
BRANCH  13  14
HETATM   14  O   UNK N   1      20.563  13.049   9.053  0.00  0.00    -0.356 OA
BRANCH  14  15
HETATM   15  C   UNK N   1      21.732  12.425   9.524  0.00  0.00     0.291 C 
HETATM   16  C   UNK N   1      21.620  12.361  11.058  0.00  0.00     0.204 C 
HETATM   17  C   UNK N   1      22.885  11.719  11.631  0.00  0.00     0.183 C 
HETATM   18  C   UNK N   1      24.106  12.497  11.132  0.00  0.00     0.180 C 
HETATM   19  C   UNK N   1      24.064  12.550   9.592  0.00  0.00     0.179 C 
HETATM   20  O   UNK N   1      22.875  13.192   9.159  0.00  0.00    -0.348 OA
BRANCH  16  21
HETATM   21  O   UNK N   1      20.497  11.618  11.431  0.00  0.00    -0.388 OA
HETATM   22  H   UNK N   1      20.595  10.723  11.793  0.00  0.00     0.210 HD
ENDBRANCH  16  21
BRANCH  17  23
HETATM   23  O   UNK N   1      22.841  11.731  13.027  0.00  0.00    -0.390 OA
HETATM   24  H   UNK N   1      22.786  12.568  13.514  0.00  0.00     0.210 HD
ENDBRANCH  17  23
BRANCH  18  25
HETATM   25  O   UNK N   1      25.277  11.870  11.569  0.00  0.00    -0.390 OA
HETATM   26  H   UNK N   1      26.052  12.094  12.106  0.00  0.00     0.210 HD
ENDBRANCH  18  25
BRANCH  19  27
HETATM   27  C   UNK N   1      25.259  13.338   9.073  0.00  0.00     0.198 C 
BRANCH  27  28
HETATM   28  O   UNK N   1      25.820  14.096  10.100  0.00  0.00    -0.398 OA
HETATM   29  H   UNK N   1      26.535  13.733  10.645  0.00  0.00     0.209 HD
ENDBRANCH  27  28
ENDBRANCH  19  27
ENDBRANCH  14  15
ENDBRANCH  13  14
ENDBRANCH   1  13
BRANCH   5  30
HETATM   30  O   UNK N   1      21.746  18.213   6.628  0.00  0.00    -0.356 OA
BRANCH  30  31
HETATM   31  C   UNK N   1      22.260  17.734   5.413  0.00  0.00     0.205 C 
BRANCH  31  32
HETATM   32  C   UNK N   1      22.793  18.828   4.479  0.00  0.00     0.180 C 
BRANCH  32  33
HETATM   33  C   UNK N   1      24.261  18.597   4.111  0.00  0.00     0.213 C 
BRANCH  33  34
HETATM   34  O   UNK N   1      24.460  17.278   3.765  0.00  0.00    -0.319 OA
BRANCH  34  35
HETATM   35  C   UNK N   1      25.571  16.605   4.161  0.00  0.00     0.258 C 
HETATM   36  O   UNK N   1      25.537  15.949   5.190  0.00  0.00    -0.265 OA
BRANCH  35  37
HETATM   37  C   UNK N   1      26.833  16.656   3.323  0.00  0.00     0.111 C 
BRANCH  37  38
HETATM   38  C   UNK N   1      27.691  15.402   3.403  0.00  0.00     0.010 C 
BRANCH  38  39
HETATM   39  C   UNK N   1      28.975  15.667   4.173  0.00  0.00     0.000 C 
BRANCH  39  40
HETATM   40  C   UNK N   1      29.874  16.608   3.396  0.00  0.00     0.000 C 
BRANCH  40  41
HETATM   41  C   UNK N   1      31.330  16.365   3.750  0.00  0.00     0.000 C 
BRANCH  41  42
HETATM   42  C   UNK N   1      32.025  17.677   4.085  0.00  0.00     0.000 C 
BRANCH  42  43
HETATM   43  C   UNK N   1      33.076  17.511   5.177  0.00  0.00     0.000 C 
BRANCH  43  44
HETATM   44  C   UNK N   1      32.865  16.218   5.943  0.00  0.00     0.000 C 
BRANCH  44  45
HETATM   45  C   UNK N   1      32.961  16.479   7.436  0.00  0.00     0.000 C 
BRANCH  45  46
HETATM   46  C   UNK N   1      31.976  17.566   7.838  0.00  0.00     0.000 C 
BRANCH  46  47
HETATM   47  C   UNK N   1      30.630  16.991   8.253  0.00  0.00     0.000 C 
BRANCH  47  48
HETATM   48  C   UNK N   1      29.542  17.328   7.248  0.00  0.00     0.000 C 
BRANCH  48  49
HETATM   49  C   UNK N   1      28.386  18.021   7.950  0.00  0.00     0.000 C 
BRANCH  49  50
HETATM   50  C   UNK N   1      27.980  19.268   7.190  0.00  0.00     0.000 C 
BRANCH  50  51
HETATM   51  C   UNK N   1      28.223  19.077   5.704  0.00  0.00    -0.000 C 
BRANCH  51  52
HETATM   52  C   UNK N   1      27.599  20.225   4.942  0.00  0.00    -0.005 C 
HETATM   53  C   UNK N   1      27.195  21.311   5.914  0.00  0.00     0.005 C 
ENDBRANCH  51  52
ENDBRANCH  50  51
ENDBRANCH  49  50
ENDBRANCH  48  49
ENDBRANCH  47  48
ENDBRANCH  46  47
ENDBRANCH  45  46
ENDBRANCH  44  45
ENDBRANCH  43  44
ENDBRANCH  42  43
ENDBRANCH  41  42
ENDBRANCH  40  41
ENDBRANCH  39  40
ENDBRANCH  38  39
ENDBRANCH  37  38
ENDBRANCH  35  37
ENDBRANCH  34  35
ENDBRANCH  33  34
ENDBRANCH  32  33
BRANCH  32  54
HETATM   54  O   UNK N   1      21.997  19.052   3.362  0.00  0.00    -0.312 OA
BRANCH  54  55
HETATM   55  C   UNK N   1      20.700  19.473   3.380  0.00  0.00     0.259 C 
HETATM   56  O   UNK N   1      20.382  20.521   3.922  0.00  0.00    -0.265 OA
BRANCH  55  57
HETATM   57  C   UNK N   1      19.639  18.609   2.773  0.00  0.00     0.111 C 
BRANCH  57  58
HETATM   58  C   UNK N   1      20.182  17.772   1.622  0.00  0.00     0.010 C 
BRANCH  58  59
HETATM   59  C   UNK N   1      20.080  16.291   1.936  0.00  0.00     0.000 C 
BRANCH  59  60
HETATM   60  C   UNK N   1      20.145  15.485   0.658  0.00  0.00     0.000 C 
BRANCH  60  61
HETATM   61  C   UNK N   1      19.093  14.397   0.684  0.00  0.00     0.000 C 
BRANCH  61  62
HETATM   62  C   UNK N   1      19.645  13.135   1.320  0.00  0.00     0.000 C 
BRANCH  62  63
HETATM   63  C   UNK N   1      18.881  12.791   2.588  0.00  0.00     0.000 C 
BRANCH  63  64
HETATM   64  C   UNK N   1      19.817  12.783   3.782  0.00  0.00     0.000 C 
BRANCH  64  65
HETATM   65  C   UNK N   1      21.255  12.956   3.322  0.00  0.00     0.000 C 
BRANCH  65  66
HETATM   66  C   UNK N   1      21.964  14.023   4.142  0.00  0.00     0.000 C 
BRANCH  66  67
HETATM   67  C   UNK N   1      23.174  13.442   4.858  0.00  0.00     0.000 C 
BRANCH  67  68
HETATM   68  C   UNK N   1      23.833  12.385   3.995  0.00  0.00     0.000 C 
BRANCH  68  69
HETATM   69  C   UNK N   1      25.145  12.909   3.463  0.00  0.00     0.000 C 
BRANCH  69  70
HETATM   70  C   UNK N   1      25.121  12.851   1.949  0.00  0.00     0.000 C 
BRANCH  70  71
HETATM   71  C   UNK N   1      24.755  14.211   1.386  0.00  0.00    -0.000 C 
BRANCH  71  72
HETATM   72  C   UNK N   1      23.411  14.136   0.683  0.00  0.00    -0.005 C 
HETATM   73  C   UNK N   1      23.249  12.773   0.044  0.00  0.00     0.005 C 
ENDBRANCH  71  72
ENDBRANCH  70  71
ENDBRANCH  69  70
ENDBRANCH  68  69
ENDBRANCH  67  68
ENDBRANCH  66  67
ENDBRANCH  65  66
ENDBRANCH  64  65
ENDBRANCH  63  64
ENDBRANCH  62  63
ENDBRANCH  61  62
ENDBRANCH  60  61
ENDBRANCH  59  60
ENDBRANCH  58  59
ENDBRANCH  57  58
ENDBRANCH  55  57
ENDBRANCH  54  55
ENDBRANCH  32  54
ENDBRANCH  31  32
ENDBRANCH  30  31
ENDBRANCH   5  30
TORSDOF 50
ENDMDL
MODEL 2
REMARK VINA RESULT:      -6.1      2.699      7.756
REMARK WARNING: 32 MAX_TORS EXCEEDED!!!
REMARK  50 active torsions:
REMARK  status: ('A' for Active; 'I' for Inactive)
REMARK    1  A    between atoms: C_5  and  C_3 
REMARK    2  A    between atoms: C_6  and  C_4 
REMARK    3  A    between atoms: C_7  and  C_5 
REMARK    4  A    between atoms: C_8  and  C_6 
REMARK    5  A    between atoms: C_9  and  C_7 
REMARK    6  A    between atoms: C_10  and  C_8 
REMARK    7  A    between atoms: C_11  and  C_9 
REMARK    8  A    between atoms: C_12  and  C_10 
REMARK    9  A    between atoms: C_13  and  C_11 
REMARK   10  A    between atoms: C_14  and  C_12 
REMARK   11  A    between atoms: C_15  and  C_13 
REMARK   12  A    between atoms: C_16  and  C_14 
REMARK   13  A    between atoms: C_17  and  C_15 
REMARK   14  A    between atoms: C_18  and  C_16 
REMARK   15  A    between atoms: C_19  and  C_17 
REMARK   16  A    between atoms: C_20  and  C_18 
REMARK   17  A    between atoms: C_21  and  C_19 
REMARK   18  A    between atoms: C_22  and  C_20 
REMARK   19  A    between atoms: C_23  and  C_21 
REMARK   20  A    between atoms: C_24  and  C_22 
REMARK   21  A    between atoms: C_25  and  C_23 
REMARK   22  A    between atoms: C_26  and  C_24 
REMARK   23  A    between atoms: C_27  and  C_25 
REMARK   24  A    between atoms: C_28  and  C_26 
REMARK   25  A    between atoms: C_29  and  C_27 
REMARK   26  A    between atoms: C_30  and  C_28 
REMARK   27  A    between atoms: C_31  and  C_29 
REMARK   28  A    between atoms: C_32  and  C_30 
REMARK   29  A    between atoms: C_33  and  C_31 
REMARK   30  A    between atoms: C_34  and  C_32 
REMARK   31  A    between atoms: C_42  and  C_33 
REMARK   32  A    between atoms: C_43  and  C_34 
REMARK   33  A    between atoms: C_40  and  C_35 
REMARK   34  A    between atoms: O_52  and  C_35 
REMARK   35  A    between atoms: C_39  and  C_36 
REMARK   36  A    between atoms: O_61  and  C_36 
REMARK   37  A    between atoms: C_39  and  C_37 
REMARK   38  A    between atoms: O_62  and  C_37 
REMARK   39  A    between atoms: C_41  and  C_38 
REMARK   40  A    between atoms: O_63  and  C_38 
REMARK   41  A    between atoms: C_39  and  O_64 
REMARK   42  A    between atoms: O_61  and  C_42 
REMARK   43  A    between atoms: O_64  and  C_43 
REMARK   44  A    between atoms: C_44  and  O_55 
REMARK   45  A    between atoms: C_45  and  O_56 
REMARK   46  A    between atoms: C_46  and  O_57 
REMARK   47  A    between atoms: C_48  and  O_59 
REMARK   48  A    between atoms: C_49  and  O_60 
REMARK   49  A    between atoms: C_50  and  O_62 
REMARK   50  A    between atoms: C_51  and  O_63 
ROOT
HETATM    1  C   UNK N   1      22.422  18.663   4.136  0.00  0.00     0.180 C 
HETATM    2  C   UNK N   1      22.271  19.663   2.956  0.00  0.00     0.180 C 
HETATM    3  C   UNK N   1      20.790  19.947   2.688  0.00  0.00     0.183 C 
HETATM    4  C   UNK N   1      20.057  18.616   2.512  0.00  0.00     0.204 C 
HETATM    5  C   UNK N   1      20.289  17.745   3.763  0.00  0.00     0.291 C 
HETATM    6  O   UNK N   1      20.232  20.656   3.760  0.00  0.00    -0.390 OA
HETATM    7  O   UNK N   1      21.684  17.477   3.883  0.00  0.00    -0.348 OA
HETATM    8  H   UNK N   1      19.741  21.073   4.485  0.00  0.00     0.210 HD
ENDROOT
BRANCH   2   9
HETATM    9  O   UNK N   1      22.921  20.869   3.233  0.00  0.00    -0.390 OA
HETATM   10  H   UNK N   1      23.015  21.603   2.606  0.00  0.00     0.210 HD
ENDBRANCH   2   9
BRANCH   4  11
HETATM   11  O   UNK N   1      18.695  18.855   2.318  0.00  0.00    -0.388 OA
HETATM   12  H   UNK N   1      18.281  19.569   1.807  0.00  0.00     0.210 HD
ENDBRANCH   4  11
BRANCH   1  13
HETATM   13  C   UNK N   1      23.873  18.210   4.335  0.00  0.00     0.205 C 
BRANCH  13  14
HETATM   14  O   UNK N   1      24.756  18.710   3.364  0.00  0.00    -0.356 OA
BRANCH  14  15
HETATM   15  C   UNK N   1      26.077  18.644   3.845  0.00  0.00     0.291 C 
HETATM   16  C   UNK N   1      26.416  17.152   4.021  0.00  0.00     0.204 C 
HETATM   17  C   UNK N   1      27.836  17.020   4.576  0.00  0.00     0.183 C 
HETATM   18  C   UNK N   1      27.942  17.835   5.868  0.00  0.00     0.180 C 
HETATM   19  C   UNK N   1      27.510  19.285   5.575  0.00  0.00     0.179 C 
HETATM   20  O   UNK N   1      26.173  19.308   5.100  0.00  0.00    -0.348 OA
BRANCH  16  21
HETATM   21  O   UNK N   1      26.318  16.485   2.797  0.00  0.00    -0.388 OA
HETATM   22  H   UNK N   1      25.604  16.695   2.176  0.00  0.00     0.210 HD
ENDBRANCH  16  21
BRANCH  17  23
HETATM   23  O   UNK N   1      28.131  15.677   4.825  0.00  0.00    -0.390 OA
HETATM   24  H   UNK N   1      28.547  15.407   5.659  0.00  0.00     0.210 HD
ENDBRANCH  17  23
BRANCH  18  25
HETATM   25  O   UNK N   1      29.258  17.802   6.340  0.00  0.00    -0.390 OA
HETATM   26  H   UNK N   1      29.909  18.429   6.692  0.00  0.00     0.210 HD
ENDBRANCH  18  25
BRANCH  19  27
HETATM   27  C   UNK N   1      27.588  20.112   6.851  0.00  0.00     0.198 C 
BRANCH  27  28
HETATM   28  O   UNK N   1      26.307  20.467   7.274  0.00  0.00    -0.398 OA
HETATM   29  H   UNK N   1      25.595  19.809   7.288  0.00  0.00     0.209 HD
ENDBRANCH  27  28
ENDBRANCH  19  27
ENDBRANCH  14  15
ENDBRANCH  13  14
ENDBRANCH   1  13
BRANCH   5  30
HETATM   30  O   UNK N   1      19.511  16.567   3.626  0.00  0.00    -0.356 OA
BRANCH  30  31
HETATM   31  C   UNK N   1      19.109  16.028   4.859  0.00  0.00     0.205 C 
BRANCH  31  32
HETATM   32  C   UNK N   1      19.433  14.539   5.032  0.00  0.00     0.180 C 
BRANCH  32  33
HETATM   33  C   UNK N   1      20.181  14.267   6.339  0.00  0.00     0.213 C 
BRANCH  33  34
HETATM   34  O   UNK N   1      20.676  15.444   6.855  0.00  0.00    -0.319 OA
BRANCH  34  35
HETATM   35  C   UNK N   1      20.561  15.738   8.177  0.00  0.00     0.258 C 
HETATM   36  O   UNK N   1      20.736  16.887   8.551  0.00  0.00    -0.265 OA
BRANCH  35  37
HETATM   37  C   UNK N   1      20.203  14.652   9.171  0.00  0.00     0.111 C 
BRANCH  37  38
HETATM   38  C   UNK N   1      21.402  13.960   9.803  0.00  0.00     0.010 C 
BRANCH  38  39
HETATM   39  C   UNK N   1      20.972  12.732  10.590  0.00  0.00     0.000 C 
BRANCH  39  40
HETATM   40  C   UNK N   1      22.146  12.150  11.349  0.00  0.00     0.000 C 
BRANCH  40  41
HETATM   41  C   UNK N   1      23.209  11.653  10.385  0.00  0.00     0.000 C 
BRANCH  41  42
HETATM   42  C   UNK N   1      24.572  12.223  10.752  0.00  0.00     0.000 C 
BRANCH  42  43
HETATM   43  C   UNK N   1      25.100  13.182   9.691  0.00  0.00     0.000 C 
BRANCH  43  44
HETATM   44  C   UNK N   1      24.540  12.841   8.322  0.00  0.00     0.000 C 
BRANCH  44  45
HETATM   45  C   UNK N   1      25.167  13.738   7.268  0.00  0.00     0.000 C 
BRANCH  45  46
HETATM   46  C   UNK N   1      24.151  14.757   6.780  0.00  0.00     0.000 C 
BRANCH  46  47
HETATM   47  C   UNK N   1      23.906  14.645   5.283  0.00  0.00     0.000 C 
BRANCH  47  48
HETATM   48  C   UNK N   1      24.242  13.259   4.761  0.00  0.00     0.000 C 
BRANCH  48  49
HETATM   49  C   UNK N   1      22.965  12.466   4.537  0.00  0.00     0.000 C 
BRANCH  49  50
HETATM   50  C   UNK N   1      23.037  11.136   5.261  0.00  0.00     0.000 C 
BRANCH  50  51
HETATM   51  C   UNK N   1      24.381  10.478   5.013  0.00  0.00    -0.000 C 
BRANCH  51  52
HETATM   52  C   UNK N   1      24.547   9.304   5.952  0.00  0.00    -0.005 C 
HETATM   53  C   UNK N   1      23.588   9.454   7.114  0.00  0.00     0.005 C 
ENDBRANCH  51  52
ENDBRANCH  50  51
ENDBRANCH  49  50
ENDBRANCH  48  49
ENDBRANCH  47  48
ENDBRANCH  46  47
ENDBRANCH  45  46
ENDBRANCH  44  45
ENDBRANCH  43  44
ENDBRANCH  42  43
ENDBRANCH  41  42
ENDBRANCH  40  41
ENDBRANCH  39  40
ENDBRANCH  38  39
ENDBRANCH  37  38
ENDBRANCH  35  37
ENDBRANCH  34  35
ENDBRANCH  33  34
ENDBRANCH  32  33
BRANCH  32  54
HETATM   54  O   UNK N   1      18.337  13.701   4.865  0.00  0.00    -0.312 OA
BRANCH  54  55
HETATM   55  C   UNK N   1      18.279  12.620   4.036  0.00  0.00     0.259 C 
HETATM   56  O   UNK N   1      17.280  11.917   3.983  0.00  0.00    -0.265 OA
BRANCH  55  57
HETATM   57  C   UNK N   1      19.479  12.255   3.220  0.00  0.00     0.111 C 
BRANCH  57  58
HETATM   58  C   UNK N   1      19.154  12.200   1.732  0.00  0.00     0.010 C 
BRANCH  58  59
HETATM   59  C   UNK N   1      20.081  13.106   0.944  0.00  0.00     0.000 C 
BRANCH  59  60
HETATM   60  C   UNK N   1      20.940  13.915   1.889  0.00  0.00     0.000 C 
BRANCH  60  61
HETATM   61  C   UNK N   1      21.797  14.883   1.103  0.00  0.00     0.000 C 
BRANCH  61  62
HETATM   62  C   UNK N   1      23.236  14.835   1.581  0.00  0.00     0.000 C 
BRANCH  62  63
HETATM   63  C   UNK N   1      24.104  14.064   0.600  0.00  0.00     0.000 C 
BRANCH  63  64
HETATM   64  C   UNK N   1      24.946  13.037   1.336  0.00  0.00     0.000 C 
BRANCH  64  65
HETATM   65  C   UNK N   1      24.708  11.652   0.759  0.00  0.00     0.000 C 
BRANCH  65  66
HETATM   66  C   UNK N   1      23.499  11.647  -0.165  0.00  0.00     0.000 C 
BRANCH  66  67
HETATM   67  C   UNK N   1      22.489  10.597   0.270  0.00  0.00     0.000 C 
BRANCH  67  68
HETATM   68  C   UNK N   1      22.954   9.921   1.544  0.00  0.00     0.000 C 
BRANCH  68  69
HETATM   69  C   UNK N   1      21.760   9.415   2.316  0.00  0.00     0.000 C 
BRANCH  69  70
HETATM   70  C   UNK N   1      22.077   8.040   2.868  0.00  0.00     0.000 C 
BRANCH  70  71
HETATM   71  C   UNK N   1      21.521   7.904   4.271  0.00  0.00    -0.000 C 
BRANCH  71  72
HETATM   72  C   UNK N   1      20.042   8.250   4.278  0.00  0.00    -0.005 C 
HETATM   73  C   UNK N   1      19.775   9.316   5.319  0.00  0.00     0.005 C 
ENDBRANCH  71  72
ENDBRANCH  70  71
ENDBRANCH  69  70
ENDBRANCH  68  69
ENDBRANCH  67  68
ENDBRANCH  66  67
ENDBRANCH  65  66
ENDBRANCH  64  65
ENDBRANCH  63  64
ENDBRANCH  62  63
ENDBRANCH  61  62
ENDBRANCH  60  61
ENDBRANCH  59  60
ENDBRANCH  58  59
ENDBRANCH  57  58
ENDBRANCH  55  57
ENDBRANCH  54  55
ENDBRANCH  32  54
ENDBRANCH  31  32
ENDBRANCH  30  31
ENDBRANCH   5  30
TORSDOF 50
ENDMDL
MODEL 3
REMARK VINA RESULT:      -6.0      1.135      3.187
REMARK WARNING: 32 MAX_TORS EXCEEDED!!!
REMARK  50 active torsions:
REMARK  status: ('A' for Active; 'I' for Inactive)
REMARK    1  A    between atoms: C_5  and  C_3 
REMARK    2  A    between atoms: C_6  and  C_4 
REMARK    3  A    between atoms: C_7  and  C_5 
REMARK    4  A    between atoms: C_8  and  C_6 
REMARK    5  A    between atoms: C_9  and  C_7 
REMARK    6  A    between atoms: C_10  and  C_8 
REMARK    7  A    between atoms: C_11  and  C_9 
REMARK    8  A    between atoms: C_12  and  C_10 
REMARK    9  A    between atoms: C_13  and  C_11 
REMARK   10  A    between atoms: C_14  and  C_12 
REMARK   11  A    between atoms: C_15  and  C_13 
REMARK   12  A    between atoms: C_16  and  C_14 
REMARK   13  A    between atoms: C_17  and  C_15 
REMARK   14  A    between atoms: C_18  and  C_16 
REMARK   15  A    between atoms: C_19  and  C_17 
REMARK   16  A    between atoms: C_20  and  C_18 
REMARK   17  A    between atoms: C_21  and  C_19 
REMARK   18  A    between atoms: C_22  and  C_20 
REMARK   19  A    between atoms: C_23  and  C_21 
REMARK   20  A    between atoms: C_24  and  C_22 
REMARK   21  A    between atoms: C_25  and  C_23 
REMARK   22  A    between atoms: C_26  and  C_24 
REMARK   23  A    between atoms: C_27  and  C_25 
REMARK   24  A    between atoms: C_28  and  C_26 
REMARK   25  A    between atoms: C_29  and  C_27 
REMARK   26  A    between atoms: C_30  and  C_28 
REMARK   27  A    between atoms: C_31  and  C_29 
REMARK   28  A    between atoms: C_32  and  C_30 
REMARK   29  A    between atoms: C_33  and  C_31 
REMARK   30  A    between atoms: C_34  and  C_32 
REMARK   31  A    between atoms: C_42  and  C_33 
REMARK   32  A    between atoms: C_43  and  C_34 
REMARK   33  A    between atoms: C_40  and  C_35 
REMARK   34  A    between atoms: O_52  and  C_35 
REMARK   35  A    between atoms: C_39  and  C_36 
REMARK   36  A    between atoms: O_61  and  C_36 
REMARK   37  A    between atoms: C_39  and  C_37 
REMARK   38  A    between atoms: O_62  and  C_37 
REMARK   39  A    between atoms: C_41  and  C_38 
REMARK   40  A    between atoms: O_63  and  C_38 
REMARK   41  A    between atoms: C_39  and  O_64 
REMARK   42  A    between atoms: O_61  and  C_42 
REMARK   43  A    between atoms: O_64  and  C_43 
REMARK   44  A    between atoms: C_44  and  O_55 
REMARK   45  A    between atoms: C_45  and  O_56 
REMARK   46  A    between atoms: C_46  and  O_57 
REMARK   47  A    between atoms: C_48  and  O_59 
REMARK   48  A    between atoms: C_49  and  O_60 
REMARK   49  A    between atoms: C_50  and  O_62 
REMARK   50  A    between atoms: C_51  and  O_63 
ROOT
HETATM    1  C   UNK N   1      20.279  15.007   7.908  0.00  0.00     0.180 C 
HETATM    2  C   UNK N   1      19.727  15.422   9.300  0.00  0.00     0.180 C 
HETATM    3  C   UNK N   1      19.171  16.848   9.248  0.00  0.00     0.183 C 
HETATM    4  C   UNK N   1      20.244  17.773   8.670  0.00  0.00     0.204 C 
HETATM    5  C   UNK N   1      20.676  17.241   7.289  0.00  0.00     0.291 C 
HETATM    6  O   UNK N   1      18.026  16.891   8.442  0.00  0.00    -0.390 OA
HETATM    7  O   UNK N   1      21.245  15.944   7.455  0.00  0.00    -0.348 OA
HETATM    8  H   UNK N   1      17.278  17.034   7.842  0.00  0.00     0.210 HD
ENDROOT
BRANCH   2   9
HETATM    9  O   UNK N   1      18.712  14.555   9.718  0.00  0.00    -0.390 OA
HETATM   10  H   UNK N   1      17.963  14.810  10.278  0.00  0.00     0.210 HD
ENDBRANCH   2   9
BRANCH   4  11
HETATM   11  O   UNK N   1      19.735  19.070   8.567  0.00  0.00    -0.388 OA
HETATM   12  H   UNK N   1      19.325  19.490   7.793  0.00  0.00     0.210 HD
ENDBRANCH   4  11
BRANCH   1  13
HETATM   13  C   UNK N   1      21.003  13.656   7.946  0.00  0.00     0.205 C 
BRANCH  13  14
HETATM   14  O   UNK N   1      20.671  12.872   9.063  0.00  0.00    -0.356 OA
BRANCH  14  15
HETATM   15  C   UNK N   1      21.835  12.285   9.592  0.00  0.00     0.291 C 
HETATM   16  C   UNK N   1      21.672  12.264  11.123  0.00  0.00     0.204 C 
HETATM   17  C   UNK N   1      22.928  11.663  11.757  0.00  0.00     0.183 C 
HETATM   18  C   UNK N   1      24.151  12.449  11.276  0.00  0.00     0.180 C 
HETATM   19  C   UNK N   1      24.161  12.455   9.735  0.00  0.00     0.179 C 
HETATM   20  O   UNK N   1      22.976  13.062   9.243  0.00  0.00    -0.348 OA
BRANCH  16  21
HETATM   21  O   UNK N   1      20.550  11.511  11.481  0.00  0.00    -0.388 OA
HETATM   22  H   UNK N   1      19.661  11.790  11.210  0.00  0.00     0.210 HD
ENDBRANCH  16  21
BRANCH  17  23
HETATM   23  O   UNK N   1      22.835  11.716  13.150  0.00  0.00    -0.390 OA
HETATM   24  H   UNK N   1      23.609  11.530  13.706  0.00  0.00     0.210 HD
ENDBRANCH  17  23
BRANCH  18  25
HETATM   25  O   UNK N   1      25.317  11.857  11.771  0.00  0.00    -0.390 OA
HETATM   26  H   UNK N   1      25.568  11.259  12.492  0.00  0.00     0.210 HD
ENDBRANCH  18  25
BRANCH  19  27
HETATM   27  C   UNK N   1      25.359  13.249   9.233  0.00  0.00     0.198 C 
BRANCH  27  28
HETATM   28  O   UNK N   1      25.898  14.014  10.266  0.00  0.00    -0.398 OA
HETATM   29  H   UNK N   1      26.525  14.729  10.073  0.00  0.00     0.209 HD
ENDBRANCH  27  28
ENDBRANCH  19  27
ENDBRANCH  14  15
ENDBRANCH  13  14
ENDBRANCH   1  13
BRANCH   5  30
HETATM   30  O   UNK N   1      21.586  18.173   6.726  0.00  0.00    -0.356 OA
BRANCH  30  31
HETATM   31  C   UNK N   1      22.235  17.683   5.582  0.00  0.00     0.205 C 
BRANCH  31  32
HETATM   32  C   UNK N   1      22.894  18.766   4.719  0.00  0.00     0.180 C 
BRANCH  32  33
HETATM   33  C   UNK N   1      24.419  18.636   4.707  0.00  0.00     0.213 C 
BRANCH  33  34
HETATM   34  O   UNK N   1      24.999  19.883   4.629  0.00  0.00    -0.319 OA
BRANCH  34  35
HETATM   35  C   UNK N   1      26.085  20.108   3.843  0.00  0.00     0.258 C 
HETATM   36  O   UNK N   1      25.923  20.458   2.685  0.00  0.00    -0.265 OA
BRANCH  35  37
HETATM   37  C   UNK N   1      27.482  19.941   4.408  0.00  0.00     0.111 C 
BRANCH  37  38
HETATM   38  C   UNK N   1      27.784  20.828   5.607  0.00  0.00     0.010 C 
BRANCH  38  39
HETATM   39  C   UNK N   1      27.659  20.049   6.907  0.00  0.00     0.000 C 
BRANCH  39  40
HETATM   40  C   UNK N   1      27.784  18.562   6.648  0.00  0.00     0.000 C 
BRANCH  40  41
HETATM   41  C   UNK N   1      29.035  18.010   7.308  0.00  0.00     0.000 C 
BRANCH  41  42
HETATM   42  C   UNK N   1      29.495  16.741   6.604  0.00  0.00     0.000 C 
BRANCH  42  43
HETATM   43  C   UNK N   1      28.341  16.001   5.938  0.00  0.00     0.000 C 
BRANCH  43  44
HETATM   44  C   UNK N   1      28.694  15.609   4.515  0.00  0.00     0.000 C 
BRANCH  44  45
HETATM   45  C   UNK N   1      29.382  16.767   3.814  0.00  0.00     0.000 C 
BRANCH  45  46
HETATM   46  C   UNK N   1      30.277  16.244   2.702  0.00  0.00     0.000 C 
BRANCH  46  47
HETATM   47  C   UNK N   1      31.748  16.284   3.088  0.00  0.00     0.000 C 
BRANCH  47  48
HETATM   48  C   UNK N   1      32.146  17.640   3.647  0.00  0.00     0.000 C 
BRANCH  48  49
HETATM   49  C   UNK N   1      33.127  17.459   4.793  0.00  0.00     0.000 C 
BRANCH  49  50
HETATM   50  C   UNK N   1      32.958  16.090   5.420  0.00  0.00     0.000 C 
BRANCH  50  51
HETATM   51  C   UNK N   1      33.234  16.158   6.910  0.00  0.00    -0.000 C 
BRANCH  51  52
HETATM   52  C   UNK N   1      33.526  17.589   7.302  0.00  0.00    -0.005 C 
HETATM   53  C   UNK N   1      32.592  18.004   8.418  0.00  0.00     0.005 C 
ENDBRANCH  51  52
ENDBRANCH  50  51
ENDBRANCH  49  50
ENDBRANCH  48  49
ENDBRANCH  47  48
ENDBRANCH  46  47
ENDBRANCH  45  46
ENDBRANCH  44  45
ENDBRANCH  43  44
ENDBRANCH  42  43
ENDBRANCH  41  42
ENDBRANCH  40  41
ENDBRANCH  39  40
ENDBRANCH  38  39
ENDBRANCH  37  38
ENDBRANCH  35  37
ENDBRANCH  34  35
ENDBRANCH  33  34
ENDBRANCH  32  33
BRANCH  32  54
HETATM   54  O   UNK N   1      22.362  18.867   3.439  0.00  0.00    -0.312 OA
BRANCH  54  55
HETATM   55  C   UNK N   1      21.567  19.878   2.983  0.00  0.00     0.259 C 
HETATM   56  O   UNK N   1      22.042  20.953   2.648  0.00  0.00    -0.265 OA
BRANCH  55  57
HETATM   57  C   UNK N   1      20.084  19.686   2.946  0.00  0.00     0.111 C 
BRANCH  57  58
HETATM   58  C   UNK N   1      19.708  18.261   2.558  0.00  0.00     0.010 C 
BRANCH  58  59
HETATM   59  C   UNK N   1      20.123  17.963   1.130  0.00  0.00     0.000 C 
BRANCH  59  60
HETATM   60  C   UNK N   1      20.457  16.496   0.983  0.00  0.00     0.000 C 
BRANCH  60  61
HETATM   61  C   UNK N   1      20.742  15.895   2.343  0.00  0.00     0.000 C 
BRANCH  61  62
HETATM   62  C   UNK N   1      20.120  14.516   2.460  0.00  0.00     0.000 C 
BRANCH  62  63
HETATM   63  C   UNK N   1      19.681  14.006   1.098  0.00  0.00     0.000 C 
BRANCH  63  64
HETATM   64  C   UNK N   1      20.289  12.642   0.825  0.00  0.00     0.000 C 
BRANCH  64  65
HETATM   65  C   UNK N   1      21.024  12.140   2.057  0.00  0.00     0.000 C 
BRANCH  65  66
HETATM   66  C   UNK N   1      22.174  11.223   1.668  0.00  0.00     0.000 C 
BRANCH  66  67
HETATM   67  C   UNK N   1      22.702  11.571   0.285  0.00  0.00     0.000 C 
BRANCH  67  68
HETATM   68  C   UNK N   1      24.013  12.322   0.401  0.00  0.00     0.000 C 
BRANCH  68  69
HETATM   69  C   UNK N   1      23.761  13.806   0.292  0.00  0.00     0.000 C 
BRANCH  69  70
HETATM   70  C   UNK N   1      24.052  14.455   1.630  0.00  0.00     0.000 C 
BRANCH  70  71
HETATM   71  C   UNK N   1      25.086  13.642   2.385  0.00  0.00    -0.000 C 
BRANCH  71  72
HETATM   72  C   UNK N   1      25.095  14.047   3.849  0.00  0.00    -0.005 C 
HETATM   73  C   UNK N   1      23.705  14.479   4.264  0.00  0.00     0.005 C 
ENDBRANCH  71  72
ENDBRANCH  70  71
ENDBRANCH  69  70
ENDBRANCH  68  69
ENDBRANCH  67  68
ENDBRANCH  66  67
ENDBRANCH  65  66
ENDBRANCH  64  65
ENDBRANCH  63  64
ENDBRANCH  62  63
ENDBRANCH  61  62
ENDBRANCH  60  61
ENDBRANCH  59  60
ENDBRANCH  58  59
ENDBRANCH  57  58
ENDBRANCH  55  57
ENDBRANCH  54  55
ENDBRANCH  32  54
ENDBRANCH  31  32
ENDBRANCH  30  31
ENDBRANCH   5  30
TORSDOF 50
ENDMDL
MODEL 4
REMARK VINA RESULT:      -6.0      2.141      5.488
REMARK WARNING: 32 MAX_TORS EXCEEDED!!!
REMARK  50 active torsions:
REMARK  status: ('A' for Active; 'I' for Inactive)
REMARK    1  A    between atoms: C_5  and  C_3 
REMARK    2  A    between atoms: C_6  and  C_4 
REMARK    3  A    between atoms: C_7  and  C_5 
REMARK    4  A    between atoms: C_8  and  C_6 
REMARK    5  A    between atoms: C_9  and  C_7 
REMARK    6  A    between atoms: C_10  and  C_8 
REMARK    7  A    between atoms: C_11  and  C_9 
REMARK    8  A    between atoms: C_12  and  C_10 
REMARK    9  A    between atoms: C_13  and  C_11 
REMARK   10  A    between atoms: C_14  and  C_12 
REMARK   11  A    between atoms: C_15  and  C_13 
REMARK   12  A    between atoms: C_16  and  C_14 
REMARK   13  A    between atoms: C_17  and  C_15 
REMARK   14  A    between atoms: C_18  and  C_16 
REMARK   15  A    between atoms: C_19  and  C_17 
REMARK   16  A    between atoms: C_20  and  C_18 
REMARK   17  A    between atoms: C_21  and  C_19 
REMARK   18  A    between atoms: C_22  and  C_20 
REMARK   19  A    between atoms: C_23  and  C_21 
REMARK   20  A    between atoms: C_24  and  C_22 
REMARK   21  A    between atoms: C_25  and  C_23 
REMARK   22  A    between atoms: C_26  and  C_24 
REMARK   23  A    between atoms: C_27  and  C_25 
REMARK   24  A    between atoms: C_28  and  C_26 
REMARK   25  A    between atoms: C_29  and  C_27 
REMARK   26  A    between atoms: C_30  and  C_28 
REMARK   27  A    between atoms: C_31  and  C_29 
REMARK   28  A    between atoms: C_32  and  C_30 
REMARK   29  A    between atoms: C_33  and  C_31 
REMARK   30  A    between atoms: C_34  and  C_32 
REMARK   31  A    between atoms: C_42  and  C_33 
REMARK   32  A    between atoms: C_43  and  C_34 
REMARK   33  A    between atoms: C_40  and  C_35 
REMARK   34  A    between atoms: O_52  and  C_35 
REMARK   35  A    between atoms: C_39  and  C_36 
REMARK   36  A    between atoms: O_61  and  C_36 
REMARK   37  A    between atoms: C_39  and  C_37 
REMARK   38  A    between atoms: O_62  and  C_37 
REMARK   39  A    between atoms: C_41  and  C_38 
REMARK   40  A    between atoms: O_63  and  C_38 
REMARK   41  A    between atoms: C_39  and  O_64 
REMARK   42  A    between atoms: O_61  and  C_42 
REMARK   43  A    between atoms: O_64  and  C_43 
REMARK   44  A    between atoms: C_44  and  O_55 
REMARK   45  A    between atoms: C_45  and  O_56 
REMARK   46  A    between atoms: C_46  and  O_57 
REMARK   47  A    between atoms: C_48  and  O_59 
REMARK   48  A    between atoms: C_49  and  O_60 
REMARK   49  A    between atoms: C_50  and  O_62 
REMARK   50  A    between atoms: C_51  and  O_63 
ROOT
HETATM    1  C   UNK N   1      20.122  15.388   3.479  0.00  0.00     0.180 C 
HETATM    2  C   UNK N   1      20.007  14.582   2.156  0.00  0.00     0.180 C 
HETATM    3  C   UNK N   1      20.506  15.424   0.977  0.00  0.00     0.183 C 
HETATM    4  C   UNK N   1      19.775  16.767   0.988  0.00  0.00     0.204 C 
HETATM    5  C   UNK N   1      19.995  17.449   2.354  0.00  0.00     0.291 C 
HETATM    6  O   UNK N   1      21.886  15.635   1.083  0.00  0.00    -0.390 OA
HETATM    7  O   UNK N   1      19.434  16.625   3.373  0.00  0.00    -0.348 OA
HETATM    8  H   UNK N   1      22.818  15.901   1.116  0.00  0.00     0.210 HD
ENDROOT
BRANCH   2   9
HETATM    9  O   UNK N   1      20.754  13.402   2.218  0.00  0.00    -0.390 OA
HETATM   10  H   UNK N   1      20.848  12.848   3.008  0.00  0.00     0.210 HD
ENDBRANCH   2   9
BRANCH   4  11
HETATM   11  O   UNK N   1      20.255  17.568  -0.050  0.00  0.00    -0.388 OA
HETATM   12  H   UNK N   1      19.774  18.243  -0.555  0.00  0.00     0.210 HD
ENDBRANCH   4  11
BRANCH   1  13
HETATM   13  C   UNK N   1      19.478  14.659   4.665  0.00  0.00     0.205 C 
BRANCH  13  14
HETATM   14  O   UNK N   1      19.986  15.056   5.912  0.00  0.00    -0.356 OA
BRANCH  14  15
HETATM   15  C   UNK N   1      20.438  13.928   6.621  0.00  0.00     0.291 C 
HETATM   16  C   UNK N   1      20.874  14.418   8.015  0.00  0.00     0.204 C 
HETATM   17  C   UNK N   1      21.408  13.235   8.822  0.00  0.00     0.183 C 
HETATM   18  C   UNK N   1      22.528  12.556   8.027  0.00  0.00     0.180 C 
HETATM   19  C   UNK N   1      21.988  12.180   6.634  0.00  0.00     0.179 C 
HETATM   20  O   UNK N   1      21.550  13.345   5.951  0.00  0.00    -0.348 OA
BRANCH  16  21
HETATM   21  O   UNK N   1      19.793  15.002   8.682  0.00  0.00    -0.388 OA
HETATM   22  H   UNK N   1      19.236  15.660   8.239  0.00  0.00     0.210 HD
ENDBRANCH  16  21
BRANCH  17  23
HETATM   23  O   UNK N   1      21.889  13.673  10.058  0.00  0.00    -0.390 OA
HETATM   24  H   UNK N   1      21.855  14.613  10.299  0.00  0.00     0.210 HD
ENDBRANCH  17  23
BRANCH  18  25
HETATM   25  O   UNK N   1      22.967  11.416   8.707  0.00  0.00    -0.390 OA
HETATM   26  H   UNK N   1      23.088  11.131   9.626  0.00  0.00     0.210 HD
ENDBRANCH  18  25
BRANCH  19  27
HETATM   27  C   UNK N   1      23.091  11.522   5.816  0.00  0.00     0.198 C 
BRANCH  27  28
HETATM   28  O   UNK N   1      23.148  10.157   6.093  0.00  0.00    -0.398 OA
HETATM   29  H   UNK N   1      22.399   9.710   6.517  0.00  0.00     0.209 HD
ENDBRANCH  27  28
ENDBRANCH  19  27
ENDBRANCH  14  15
ENDBRANCH  13  14
ENDBRANCH   1  13
BRANCH   5  30
HETATM   30  O   UNK N   1      19.405  18.738   2.300  0.00  0.00    -0.356 OA
BRANCH  30  31
HETATM   31  C   UNK N   1      20.094  19.689   3.070  0.00  0.00     0.205 C 
BRANCH  31  32
HETATM   32  C   UNK N   1      21.604  19.439   3.176  0.00  0.00     0.180 C 
BRANCH  32  33
HETATM   33  C   UNK N   1      22.407  20.438   2.340  0.00  0.00     0.213 C 
BRANCH  33  34
HETATM   34  O   UNK N   1      23.417  20.986   3.100  0.00  0.00    -0.319 OA
BRANCH  34  35
HETATM   35  C   UNK N   1      24.718  20.654   2.888  0.00  0.00     0.258 C 
HETATM   36  O   UNK N   1      25.161  20.670   1.750  0.00  0.00    -0.265 OA
BRANCH  35  37
HETATM   37  C   UNK N   1      25.611  20.286   4.055  0.00  0.00     0.111 C 
BRANCH  37  38
HETATM   38  C   UNK N   1      27.078  20.108   3.692  0.00  0.00     0.010 C 
BRANCH  38  39
HETATM   39  C   UNK N   1      27.939  19.988   4.940  0.00  0.00     0.000 C 
BRANCH  39  40
HETATM   40  C   UNK N   1      27.486  20.978   5.993  0.00  0.00     0.000 C 
BRANCH  40  41
HETATM   41  C   UNK N   1      27.264  20.277   7.322  0.00  0.00     0.000 C 
BRANCH  41  42
HETATM   42  C   UNK N   1      28.263  19.143   7.501  0.00  0.00     0.000 C 
BRANCH  42  43
HETATM   43  C   UNK N   1      27.977  18.315   8.748  0.00  0.00     0.000 C 
BRANCH  43  44
HETATM   44  C   UNK N   1      29.263  17.787   9.358  0.00  0.00     0.000 C 
BRANCH  44  45
HETATM   45  C   UNK N   1      30.417  18.711   9.014  0.00  0.00     0.000 C 
BRANCH  45  46
HETATM   46  C   UNK N   1      31.514  17.932   8.304  0.00  0.00     0.000 C 
BRANCH  46  47
HETATM   47  C   UNK N   1      31.079  16.514   7.968  0.00  0.00     0.000 C 
BRANCH  47  48
HETATM   48  C   UNK N   1      32.227  15.527   8.103  0.00  0.00     0.000 C 
BRANCH  48  49
HETATM   49  C   UNK N   1      33.311  15.853   7.089  0.00  0.00     0.000 C 
BRANCH  49  50
HETATM   50  C   UNK N   1      32.837  15.522   5.688  0.00  0.00     0.000 C 
BRANCH  50  51
HETATM   51  C   UNK N   1      33.444  16.489   4.688  0.00  0.00    -0.000 C 
BRANCH  51  52
HETATM   52  C   UNK N   1      32.375  16.950   3.723  0.00  0.00    -0.005 C 
HETATM   53  C   UNK N   1      31.275  17.650   4.490  0.00  0.00     0.005 C 
ENDBRANCH  51  52
ENDBRANCH  50  51
ENDBRANCH  49  50
ENDBRANCH  48  49
ENDBRANCH  47  48
ENDBRANCH  46  47
ENDBRANCH  45  46
ENDBRANCH  44  45
ENDBRANCH  43  44
ENDBRANCH  42  43
ENDBRANCH  41  42
ENDBRANCH  40  41
ENDBRANCH  39  40
ENDBRANCH  38  39
ENDBRANCH  37  38
ENDBRANCH  35  37
ENDBRANCH  34  35
ENDBRANCH  33  34
ENDBRANCH  32  33
BRANCH  32  54
HETATM   54  O   UNK N   1      22.069  19.349   4.483  0.00  0.00    -0.312 OA
BRANCH  54  55
HETATM   55  C   UNK N   1      22.412  18.198   5.130  0.00  0.00     0.259 C 
HETATM   56  O   UNK N   1      21.855  17.865   6.166  0.00  0.00    -0.265 OA
BRANCH  55  57
HETATM   57  C   UNK N   1      23.527  17.357   4.592  0.00  0.00     0.111 C 
BRANCH  57  58
HETATM   58  C   UNK N   1      23.426  15.913   5.067  0.00  0.00     0.010 C 
BRANCH  58  59
HETATM   59  C   UNK N   1      24.758  15.428   5.605  0.00  0.00     0.000 C 
BRANCH  59  60
HETATM   60  C   UNK N   1      25.781  16.540   5.534  0.00  0.00     0.000 C 
BRANCH  60  61
HETATM   61  C   UNK N   1      27.098  16.064   6.109  0.00  0.00     0.000 C 
BRANCH  61  62
HETATM   62  C   UNK N   1      28.119  15.858   5.006  0.00  0.00     0.000 C 
BRANCH  62  63
HETATM   63  C   UNK N   1      27.694  16.576   3.736  0.00  0.00     0.000 C 
BRANCH  63  64
HETATM   64  C   UNK N   1      27.541  15.585   2.597  0.00  0.00     0.000 C 
BRANCH  64  65
HETATM   65  C   UNK N   1      26.148  15.686   1.997  0.00  0.00     0.000 C 
BRANCH  65  66
HETATM   66  C   UNK N   1      25.490  14.317   1.917  0.00  0.00     0.000 C 
BRANCH  66  67
HETATM   67  C   UNK N   1      26.337  13.265   2.616  0.00  0.00     0.000 C 
BRANCH  67  68
HETATM   68  C   UNK N   1      26.606  12.105   1.679  0.00  0.00     0.000 C 
BRANCH  68  69
HETATM   69  C   UNK N   1      27.997  11.570   1.918  0.00  0.00     0.000 C 
BRANCH  69  70
HETATM   70  C   UNK N   1      29.004  12.538   1.328  0.00  0.00     0.000 C 
BRANCH  70  71
HETATM   71  C   UNK N   1      30.372  12.293   1.934  0.00  0.00    -0.000 C 
BRANCH  71  72
HETATM   72  C   UNK N   1      30.788  13.487   2.774  0.00  0.00    -0.005 C 
HETATM   73  C   UNK N   1      30.351  13.275   4.208  0.00  0.00     0.005 C 
ENDBRANCH  71  72
ENDBRANCH  70  71
ENDBRANCH  69  70
ENDBRANCH  68  69
ENDBRANCH  67  68
ENDBRANCH  66  67
ENDBRANCH  65  66
ENDBRANCH  64  65
ENDBRANCH  63  64
ENDBRANCH  62  63
ENDBRANCH  61  62
ENDBRANCH  60  61
ENDBRANCH  59  60
ENDBRANCH  58  59
ENDBRANCH  57  58
ENDBRANCH  55  57
ENDBRANCH  54  55
ENDBRANCH  32  54
ENDBRANCH  31  32
ENDBRANCH  30  31
ENDBRANCH   5  30
TORSDOF 50
ENDMDL
MODEL 5
REMARK VINA RESULT:      -6.0      1.202      7.192
REMARK WARNING: 32 MAX_TORS EXCEEDED!!!
REMARK  50 active torsions:
REMARK  status: ('A' for Active; 'I' for Inactive)
REMARK    1  A    between atoms: C_5  and  C_3 
REMARK    2  A    between atoms: C_6  and  C_4 
REMARK    3  A    between atoms: C_7  and  C_5 
REMARK    4  A    between atoms: C_8  and  C_6 
REMARK    5  A    between atoms: C_9  and  C_7 
REMARK    6  A    between atoms: C_10  and  C_8 
REMARK    7  A    between atoms: C_11  and  C_9 
REMARK    8  A    between atoms: C_12  and  C_10 
REMARK    9  A    between atoms: C_13  and  C_11 
REMARK   10  A    between atoms: C_14  and  C_12 
REMARK   11  A    between atoms: C_15  and  C_13 
REMARK   12  A    between atoms: C_16  and  C_14 
REMARK   13  A    between atoms: C_17  and  C_15 
REMARK   14  A    between atoms: C_18  and  C_16 
REMARK   15  A    between atoms: C_19  and  C_17 
REMARK   16  A    between atoms: C_20  and  C_18 
REMARK   17  A    between atoms: C_21  and  C_19 
REMARK   18  A    between atoms: C_22  and  C_20 
REMARK   19  A    between atoms: C_23  and  C_21 
REMARK   20  A    between atoms: C_24  and  C_22 
REMARK   21  A    between atoms: C_25  and  C_23 
REMARK   22  A    between atoms: C_26  and  C_24 
REMARK   23  A    between atoms: C_27  and  C_25 
REMARK   24  A    between atoms: C_28  and  C_26 
REMARK   25  A    between atoms: C_29  and  C_27 
REMARK   26  A    between atoms: C_30  and  C_28 
REMARK   27  A    between atoms: C_31  and  C_29 
REMARK   28  A    between atoms: C_32  and  C_30 
REMARK   29  A    between atoms: C_33  and  C_31 
REMARK   30  A    between atoms: C_34  and  C_32 
REMARK   31  A    between atoms: C_42  and  C_33 
REMARK   32  A    between atoms: C_43  and  C_34 
REMARK   33  A    between atoms: C_40  and  C_35 
REMARK   34  A    between atoms: O_52  and  C_35 
REMARK   35  A    between atoms: C_39  and  C_36 
REMARK   36  A    between atoms: O_61  and  C_36 
REMARK   37  A    between atoms: C_39  and  C_37 
REMARK   38  A    between atoms: O_62  and  C_37 
REMARK   39  A    between atoms: C_41  and  C_38 
REMARK   40  A    between atoms: O_63  and  C_38 
REMARK   41  A    between atoms: C_39  and  O_64 
REMARK   42  A    between atoms: O_61  and  C_42 
REMARK   43  A    between atoms: O_64  and  C_43 
REMARK   44  A    between atoms: C_44  and  O_55 
REMARK   45  A    between atoms: C_45  and  O_56 
REMARK   46  A    between atoms: C_46  and  O_57 
REMARK   47  A    between atoms: C_48  and  O_59 
REMARK   48  A    between atoms: C_49  and  O_60 
REMARK   49  A    between atoms: C_50  and  O_62 
REMARK   50  A    between atoms: C_51  and  O_63 
ROOT
HETATM    1  C   UNK N   1      20.199  15.067   8.033  0.00  0.00     0.180 C 
HETATM    2  C   UNK N   1      19.587  15.414   9.419  0.00  0.00     0.180 C 
HETATM    3  C   UNK N   1      18.963  16.812   9.387  0.00  0.00     0.183 C 
HETATM    4  C   UNK N   1      20.003  17.805   8.867  0.00  0.00     0.204 C 
HETATM    5  C   UNK N   1      20.501  17.334   7.485  0.00  0.00     0.291 C 
HETATM    6  O   UNK N   1      17.840  16.822   8.550  0.00  0.00    -0.390 OA
HETATM    7  O   UNK N   1      21.129  16.062   7.633  0.00  0.00    -0.348 OA
HETATM    8  H   UNK N   1      17.103  16.944   7.932  0.00  0.00     0.210 HD
ENDROOT
BRANCH   2   9
HETATM    9  O   UNK N   1      18.606  14.487   9.782  0.00  0.00    -0.390 OA
HETATM   10  H   UNK N   1      18.485  14.133  10.677  0.00  0.00     0.210 HD
ENDBRANCH   2   9
BRANCH   4  11
HETATM   11  O   UNK N   1      19.434  19.077   8.782  0.00  0.00    -0.388 OA
HETATM   12  H   UNK N   1      18.572  19.322   8.408  0.00  0.00     0.210 HD
ENDBRANCH   4  11
BRANCH   1  13
HETATM   13  C   UNK N   1      20.988  13.752   8.056  0.00  0.00     0.205 C 
BRANCH  13  14
HETATM   14  O   UNK N   1      20.644  12.909   9.125  0.00  0.00    -0.356 OA
BRANCH  14  15
HETATM   15  C   UNK N   1      21.804  12.308   9.648  0.00  0.00     0.291 C 
HETATM   16  C   UNK N   1      21.659  12.311  11.181  0.00  0.00     0.204 C 
HETATM   17  C   UNK N   1      22.912  11.697  11.808  0.00  0.00     0.183 C 
HETATM   18  C   UNK N   1      24.143  12.455  11.302  0.00  0.00     0.180 C 
HETATM   19  C   UNK N   1      24.134  12.440   9.761  0.00  0.00     0.179 C 
HETATM   20  O   UNK N   1      22.953  13.061   9.275  0.00  0.00    -0.348 OA
BRANCH  16  21
HETATM   21  O   UNK N   1      20.529  11.583  11.563  0.00  0.00    -0.388 OA
HETATM   22  H   UNK N   1      19.847  11.986  12.122  0.00  0.00     0.210 HD
ENDBRANCH  16  21
BRANCH  17  23
HETATM   23  O   UNK N   1      22.838  11.770  13.201  0.00  0.00    -0.390 OA
HETATM   24  H   UNK N   1      23.048  12.595  13.667  0.00  0.00     0.210 HD
ENDBRANCH  17  23
BRANCH  18  25
HETATM   25  O   UNK N   1      25.304  11.850  11.790  0.00  0.00    -0.390 OA
HETATM   26  H   UNK N   1      26.000  12.049  12.436  0.00  0.00     0.210 HD
ENDBRANCH  18  25
BRANCH  19  27
HETATM   27  C   UNK N   1      25.339  13.207   9.233  0.00  0.00     0.198 C 
BRANCH  27  28
HETATM   28  O   UNK N   1      25.903  13.977  10.249  0.00  0.00    -0.398 OA
HETATM   29  H   UNK N   1      25.364  14.270  11.001  0.00  0.00     0.209 HD
ENDBRANCH  27  28
ENDBRANCH  19  27
ENDBRANCH  14  15
ENDBRANCH  13  14
ENDBRANCH   1  13
BRANCH   5  30
HETATM   30  O   UNK N   1      21.378  18.325   6.974  0.00  0.00    -0.356 OA
BRANCH  30  31
HETATM   31  C   UNK N   1      21.169  18.592   5.612  0.00  0.00     0.205 C 
BRANCH  31  32
HETATM   32  C   UNK N   1      22.264  18.044   4.687  0.00  0.00     0.180 C 
BRANCH  32  33
HETATM   33  C   UNK N   1      22.825  19.128   3.764  0.00  0.00     0.213 C 
BRANCH  33  34
HETATM   34  O   UNK N   1      21.895  20.130   3.591  0.00  0.00    -0.319 OA
BRANCH  34  35
HETATM   35  C   UNK N   1      21.183  20.238   2.439  0.00  0.00     0.258 C 
HETATM   36  O   UNK N   1      21.455  21.129   1.650  0.00  0.00    -0.265 OA
BRANCH  35  37
HETATM   37  C   UNK N   1      20.074  19.252   2.133  0.00  0.00     0.111 C 
BRANCH  37  38
HETATM   38  C   UNK N   1      20.489  18.101   1.227  0.00  0.00     0.010 C 
BRANCH  38  39
HETATM   39  C   UNK N   1      19.932  16.780   1.732  0.00  0.00     0.000 C 
BRANCH  39  40
HETATM   40  C   UNK N   1      20.533  15.622   0.961  0.00  0.00     0.000 C 
BRANCH  40  41
HETATM   41  C   UNK N   1      19.476  14.572   0.670  0.00  0.00     0.000 C 
BRANCH  41  42
HETATM   42  C   UNK N   1      20.050  13.173   0.844  0.00  0.00     0.000 C 
BRANCH  42  43
HETATM   43  C   UNK N   1      21.395  13.187   1.561  0.00  0.00     0.000 C 
BRANCH  43  44
HETATM   44  C   UNK N   1      22.470  12.527   0.718  0.00  0.00     0.000 C 
BRANCH  44  45
HETATM   45  C   UNK N   1      23.620  13.493   0.494  0.00  0.00     0.000 C 
BRANCH  45  46
HETATM   46  C   UNK N   1      24.927  12.859   0.941  0.00  0.00     0.000 C 
BRANCH  46  47
HETATM   47  C   UNK N   1      25.512  13.558   2.159  0.00  0.00     0.000 C 
BRANCH  47  48
HETATM   48  C   UNK N   1      25.003  14.984   2.287  0.00  0.00     0.000 C 
BRANCH  48  49
HETATM   49  C   UNK N   1      26.173  15.937   2.467  0.00  0.00     0.000 C 
BRANCH  49  50
HETATM   50  C   UNK N   1      25.670  17.340   2.745  0.00  0.00     0.000 C 
BRANCH  50  51
HETATM   51  C   UNK N   1      26.500  17.986   3.838  0.00  0.00    -0.000 C 
BRANCH  51  52
HETATM   52  C   UNK N   1      26.637  19.466   3.557  0.00  0.00    -0.005 C 
HETATM   53  C   UNK N   1      26.932  20.196   4.849  0.00  0.00     0.005 C 
ENDBRANCH  51  52
ENDBRANCH  50  51
ENDBRANCH  49  50
ENDBRANCH  48  49
ENDBRANCH  47  48
ENDBRANCH  46  47
ENDBRANCH  45  46
ENDBRANCH  44  45
ENDBRANCH  43  44
ENDBRANCH  42  43
ENDBRANCH  41  42
ENDBRANCH  40  41
ENDBRANCH  39  40
ENDBRANCH  38  39
ENDBRANCH  37  38
ENDBRANCH  35  37
ENDBRANCH  34  35
ENDBRANCH  33  34
ENDBRANCH  32  33
BRANCH  32  54
HETATM   54  O   UNK N   1      23.265  17.345   5.352  0.00  0.00    -0.312 OA
BRANCH  54  55
HETATM   55  C   UNK N   1      23.386  15.988   5.410  0.00  0.00     0.259 C 
HETATM   56  O   UNK N   1      22.758  15.265   4.651  0.00  0.00    -0.265 OA
BRANCH  55  57
HETATM   57  C   UNK N   1      24.259  15.373   6.458  0.00  0.00     0.111 C 
BRANCH  57  58
HETATM   58  C   UNK N   1      25.733  15.672   6.214  0.00  0.00     0.010 C 
BRANCH  58  59
HETATM   59  C   UNK N   1      26.473  14.420   5.785  0.00  0.00     0.000 C 
BRANCH  59  60
HETATM   60  C   UNK N   1      27.909  14.757   5.452  0.00  0.00     0.000 C 
BRANCH  60  61
HETATM   61  C   UNK N   1      28.313  16.037   6.152  0.00  0.00     0.000 C 
BRANCH  61  62
HETATM   62  C   UNK N   1      29.488  16.686   5.445  0.00  0.00     0.000 C 
BRANCH  62  63
HETATM   63  C   UNK N   1      30.032  15.775   4.357  0.00  0.00     0.000 C 
BRANCH  63  64
HETATM   64  C   UNK N   1      31.437  16.197   3.970  0.00  0.00     0.000 C 
BRANCH  64  65
HETATM   65  C   UNK N   1      31.768  17.547   4.584  0.00  0.00     0.000 C 
BRANCH  65  66
HETATM   66  C   UNK N   1      33.155  17.537   5.207  0.00  0.00     0.000 C 
BRANCH  66  67
HETATM   67  C   UNK N   1      33.149  16.794   6.534  0.00  0.00     0.000 C 
BRANCH  67  68
HETATM   68  C   UNK N   1      32.781  17.740   7.660  0.00  0.00     0.000 C 
BRANCH  68  69
HETATM   69  C   UNK N   1      31.612  17.180   8.433  0.00  0.00     0.000 C 
BRANCH  69  70
HETATM   70  C   UNK N   1      30.623  18.296   8.706  0.00  0.00     0.000 C 
BRANCH  70  71
HETATM   71  C   UNK N   1      29.632  17.859   9.767  0.00  0.00    -0.000 C 
BRANCH  71  72
HETATM   72  C   UNK N   1      28.215  17.983   9.236  0.00  0.00    -0.005 C 
HETATM   73  C   UNK N   1      28.173  19.034   8.146  0.00  0.00     0.005 C 
ENDBRANCH  71  72
ENDBRANCH  70  71
ENDBRANCH  69  70
ENDBRANCH  68  69
ENDBRANCH  67  68
ENDBRANCH  66  67
ENDBRANCH  65  66
ENDBRANCH  64  65
ENDBRANCH  63  64
ENDBRANCH  62  63
ENDBRANCH  61  62
ENDBRANCH  60  61
ENDBRANCH  59  60
ENDBRANCH  58  59
ENDBRANCH  57  58
ENDBRANCH  55  57
ENDBRANCH  54  55
ENDBRANCH  32  54
ENDBRANCH  31  32
ENDBRANCH  30  31
ENDBRANCH   5  30
TORSDOF 50
ENDMDL
MODEL 6
REMARK VINA RESULT:      -6.0      2.664      7.979
REMARK WARNING: 32 MAX_TORS EXCEEDED!!!
REMARK  50 active torsions:
REMARK  status: ('A' for Active; 'I' for Inactive)
REMARK    1  A    between atoms: C_5  and  C_3 
REMARK    2  A    between atoms: C_6  and  C_4 
REMARK    3  A    between atoms: C_7  and  C_5 
REMARK    4  A    between atoms: C_8  and  C_6 
REMARK    5  A    between atoms: C_9  and  C_7 
REMARK    6  A    between atoms: C_10  and  C_8 
REMARK    7  A    between atoms: C_11  and  C_9 
REMARK    8  A    between atoms: C_12  and  C_10 
REMARK    9  A    between atoms: C_13  and  C_11 
REMARK   10  A    between atoms: C_14  and  C_12 
REMARK   11  A    between atoms: C_15  and  C_13 
REMARK   12  A    between atoms: C_16  and  C_14 
REMARK   13  A    between atoms: C_17  and  C_15 
REMARK   14  A    between atoms: C_18  and  C_16 
REMARK   15  A    between atoms: C_19  and  C_17 
REMARK   16  A    between atoms: C_20  and  C_18 
REMARK   17  A    between atoms: C_21  and  C_19 
REMARK   18  A    between atoms: C_22  and  C_20 
REMARK   19  A    between atoms: C_23  and  C_21 
REMARK   20  A    between atoms: C_24  and  C_22 
REMARK   21  A    between atoms: C_25  and  C_23 
REMARK   22  A    between atoms: C_26  and  C_24 
REMARK   23  A    between atoms: C_27  and  C_25 
REMARK   24  A    between atoms: C_28  and  C_26 
REMARK   25  A    between atoms: C_29  and  C_27 
REMARK   26  A    between atoms: C_30  and  C_28 
REMARK   27  A    between atoms: C_31  and  C_29 
REMARK   28  A    between atoms: C_32  and  C_30 
REMARK   29  A    between atoms: C_33  and  C_31 
REMARK   30  A    between atoms: C_34  and  C_32 
REMARK   31  A    between atoms: C_42  and  C_33 
REMARK   32  A    between atoms: C_43  and  C_34 
REMARK   33  A    between atoms: C_40  and  C_35 
REMARK   34  A    between atoms: O_52  and  C_35 
REMARK   35  A    between atoms: C_39  and  C_36 
REMARK   36  A    between atoms: O_61  and  C_36 
REMARK   37  A    between atoms: C_39  and  C_37 
REMARK   38  A    between atoms: O_62  and  C_37 
REMARK   39  A    between atoms: C_41  and  C_38 
REMARK   40  A    between atoms: O_63  and  C_38 
REMARK   41  A    between atoms: C_39  and  O_64 
REMARK   42  A    between atoms: O_61  and  C_42 
REMARK   43  A    between atoms: O_64  and  C_43 
REMARK   44  A    between atoms: C_44  and  O_55 
REMARK   45  A    between atoms: C_45  and  O_56 
REMARK   46  A    between atoms: C_46  and  O_57 
REMARK   47  A    between atoms: C_48  and  O_59 
REMARK   48  A    between atoms: C_49  and  O_60 
REMARK   49  A    between atoms: C_50  and  O_62 
REMARK   50  A    between atoms: C_51  and  O_63 
ROOT
HETATM    1  C   UNK N   1      27.009  18.144   5.626  0.00  0.00     0.180 C 
HETATM    2  C   UNK N   1      27.707  18.741   4.372  0.00  0.00     0.180 C 
HETATM    3  C   UNK N   1      26.785  19.751   3.682  0.00  0.00     0.183 C 
HETATM    4  C   UNK N   1      25.433  19.084   3.420  0.00  0.00     0.204 C 
HETATM    5  C   UNK N   1      24.864  18.559   4.754  0.00  0.00     0.291 C 
HETATM    6  O   UNK N   1      26.607  20.877   4.495  0.00  0.00    -0.390 OA
HETATM    7  O   UNK N   1      25.755  17.576   5.277  0.00  0.00    -0.348 OA
HETATM    8  H   UNK N   1      26.361  21.655   5.019  0.00  0.00     0.210 HD
ENDROOT
BRANCH   2   9
HETATM    9  O   UNK N   1      28.901  19.380   4.718  0.00  0.00    -0.390 OA
HETATM   10  H   UNK N   1      28.969  20.298   5.022  0.00  0.00     0.210 HD
ENDBRANCH   2   9
BRANCH   4  11
HETATM   11  O   UNK N   1      24.562  20.007   2.838  0.00  0.00    -0.388 OA
HETATM   12  H   UNK N   1      24.195  19.997   1.939  0.00  0.00     0.210 HD
ENDBRANCH   4  11
BRANCH   1  13
HETATM   13  C   UNK N   1      27.817  17.002   6.255  0.00  0.00     0.205 C 
BRANCH  13  14
HETATM   14  O   UNK N   1      28.647  17.416   7.309  0.00  0.00    -0.356 OA
BRANCH  14  15
HETATM   15  C   UNK N   1      29.938  16.884   7.133  0.00  0.00     0.291 C 
HETATM   16  C   UNK N   1      30.787  17.362   8.326  0.00  0.00     0.204 C 
HETATM   17  C   UNK N   1      32.216  16.839   8.170  0.00  0.00     0.183 C 
HETATM   18  C   UNK N   1      32.760  17.278   6.807  0.00  0.00     0.180 C 
HETATM   19  C   UNK N   1      31.788  16.802   5.710  0.00  0.00     0.179 C 
HETATM   20  O   UNK N   1      30.503  17.367   5.919  0.00  0.00    -0.348 OA
BRANCH  16  21
HETATM   21  O   UNK N   1      30.239  16.902   9.526  0.00  0.00    -0.388 OA
HETATM   22  H   UNK N   1      29.616  17.451  10.027  0.00  0.00     0.210 HD
ENDBRANCH  16  21
BRANCH  17  23
HETATM   23  O   UNK N   1      33.024  17.334   9.196  0.00  0.00    -0.390 OA
HETATM   24  H   UNK N   1      33.308  18.261   9.200  0.00  0.00     0.210 HD
ENDBRANCH  17  23
BRANCH  18  25
HETATM   25  O   UNK N   1      34.031  16.731   6.607  0.00  0.00    -0.390 OA
HETATM   26  H   UNK N   1      34.809  16.907   6.055  0.00  0.00     0.210 HD
ENDBRANCH  18  25
BRANCH  19  27
HETATM   27  C   UNK N   1      32.298  17.247   4.345  0.00  0.00     0.198 C 
BRANCH  27  28
HETATM   28  O   UNK N   1      31.404  18.147   3.767  0.00  0.00    -0.398 OA
HETATM   29  H   UNK N   1      31.612  18.569   2.918  0.00  0.00     0.209 HD
ENDBRANCH  27  28
ENDBRANCH  19  27
ENDBRANCH  14  15
ENDBRANCH  13  14
ENDBRANCH   1  13
BRANCH   5  30
HETATM   30  O   UNK N   1      23.565  18.047   4.505  0.00  0.00    -0.356 OA
BRANCH  30  31
HETATM   31  C   UNK N   1      22.981  17.459   5.638  0.00  0.00     0.205 C 
BRANCH  31  32
HETATM   32  C   UNK N   1      21.497  17.798   5.829  0.00  0.00     0.180 C 
BRANCH  32  33
HETATM   33  C   UNK N   1      20.594  16.909   4.971  0.00  0.00     0.213 C 
BRANCH  33  34
HETATM   34  O   UNK N   1      20.333  17.522   3.766  0.00  0.00    -0.319 OA
BRANCH  34  35
HETATM   35  C   UNK N   1      20.483  16.859   2.590  0.00  0.00     0.258 C 
HETATM   36  O   UNK N   1      20.019  17.341   1.569  0.00  0.00    -0.265 OA
BRANCH  35  37
HETATM   37  C   UNK N   1      21.235  15.544   2.547  0.00  0.00     0.111 C 
BRANCH  37  38
HETATM   38  C   UNK N   1      21.491  15.012   1.145  0.00  0.00     0.010 C 
BRANCH  38  39
HETATM   39  C   UNK N   1      20.842  13.650   0.951  0.00  0.00     0.000 C 
BRANCH  39  40
HETATM   40  C   UNK N   1      21.866  12.637   0.482  0.00  0.00     0.000 C 
BRANCH  40  41
HETATM   41  C   UNK N   1      23.207  13.308   0.243  0.00  0.00     0.000 C 
BRANCH  41  42
HETATM   42  C   UNK N   1      24.346  12.404   0.693  0.00  0.00     0.000 C 
BRANCH  42  43
HETATM   43  C   UNK N   1      25.379  13.149   1.530  0.00  0.00     0.000 C 
BRANCH  43  44
HETATM   44  C   UNK N   1      24.967  14.594   1.743  0.00  0.00     0.000 C 
BRANCH  44  45
HETATM   45  C   UNK N   1      26.182  15.499   1.644  0.00  0.00     0.000 C 
BRANCH  45  46
HETATM   46  C   UNK N   1      26.971  15.456   2.943  0.00  0.00     0.000 C 
BRANCH  46  47
HETATM   47  C   UNK N   1      28.472  15.493   2.699  0.00  0.00     0.000 C 
BRANCH  47  48
HETATM   48  C   UNK N   1      28.961  14.229   2.011  0.00  0.00     0.000 C 
BRANCH  48  49
HETATM   49  C   UNK N   1      29.920  13.481   2.922  0.00  0.00     0.000 C 
BRANCH  49  50
HETATM   50  C   UNK N   1      29.155  12.773   4.023  0.00  0.00     0.000 C 
BRANCH  50  51
HETATM   51  C   UNK N   1      28.119  11.841   3.424  0.00  0.00    -0.000 C 
BRANCH  51  52
HETATM   52  C   UNK N   1      27.118  11.451   4.488  0.00  0.00    -0.005 C 
HETATM   53  C   UNK N   1      26.877   9.958   4.427  0.00  0.00     0.005 C 
ENDBRANCH  51  52
ENDBRANCH  50  51
ENDBRANCH  49  50
ENDBRANCH  48  49
ENDBRANCH  47  48
ENDBRANCH  46  47
ENDBRANCH  45  46
ENDBRANCH  44  45
ENDBRANCH  43  44
ENDBRANCH  42  43
ENDBRANCH  41  42
ENDBRANCH  40  41
ENDBRANCH  39  40
ENDBRANCH  38  39
ENDBRANCH  37  38
ENDBRANCH  35  37
ENDBRANCH  34  35
ENDBRANCH  33  34
ENDBRANCH  32  33
BRANCH  32  54
HETATM   54  O   UNK N   1      21.094  17.834   7.159  0.00  0.00    -0.312 OA
BRANCH  54  55
HETATM   55  C   UNK N   1      20.412  16.851   7.812  0.00  0.00     0.259 C 
HETATM   56  O   UNK N   1      19.207  16.933   7.999  0.00  0.00    -0.265 OA
BRANCH  55  57
HETATM   57  C   UNK N   1      21.162  15.676   8.360  0.00  0.00     0.111 C 
BRANCH  57  58
HETATM   58  C   UNK N   1      20.692  14.367   7.738  0.00  0.00     0.010 C 
BRANCH  58  59
HETATM   59  C   UNK N   1      21.224  13.179   8.517  0.00  0.00     0.000 C 
BRANCH  59  60
HETATM   60  C   UNK N   1      21.445  13.565   9.963  0.00  0.00     0.000 C 
BRANCH  60  61
HETATM   61  C   UNK N   1      22.133  12.434  10.697  0.00  0.00     0.000 C 
BRANCH  61  62
HETATM   62  C   UNK N   1      23.246  11.845   9.850  0.00  0.00     0.000 C 
BRANCH  62  63
HETATM   63  C   UNK N   1      24.601  12.356  10.310  0.00  0.00     0.000 C 
BRANCH  63  64
HETATM   64  C   UNK N   1      25.085  13.465   9.395  0.00  0.00     0.000 C 
BRANCH  64  65
HETATM   65  C   UNK N   1      24.850  13.086   7.942  0.00  0.00     0.000 C 
BRANCH  65  66
HETATM   66  C   UNK N   1      24.630  14.324   7.086  0.00  0.00     0.000 C 
BRANCH  66  67
HETATM   67  C   UNK N   1      24.548  13.956   5.612  0.00  0.00     0.000 C 
BRANCH  67  68
HETATM   68  C   UNK N   1      23.105  13.713   5.215  0.00  0.00     0.000 C 
BRANCH  68  69
HETATM   69  C   UNK N   1      23.049  12.702   4.096  0.00  0.00     0.000 C 
BRANCH  69  70
HETATM   70  C   UNK N   1      23.187  11.311   4.683  0.00  0.00     0.000 C 
BRANCH  70  71
HETATM   71  C   UNK N   1      22.084  11.064   5.693  0.00  0.00    -0.000 C 
BRANCH  71  72
HETATM   72  C   UNK N   1      22.543  10.047   6.723  0.00  0.00    -0.005 C 
HETATM   73  C   UNK N   1      24.040   9.851   6.609  0.00  0.00     0.005 C 
ENDBRANCH  71  72
ENDBRANCH  70  71
ENDBRANCH  69  70
ENDBRANCH  68  69
ENDBRANCH  67  68
ENDBRANCH  66  67
ENDBRANCH  65  66
ENDBRANCH  64  65
ENDBRANCH  63  64
ENDBRANCH  62  63
ENDBRANCH  61  62
ENDBRANCH  60  61
ENDBRANCH  59  60
ENDBRANCH  58  59
ENDBRANCH  57  58
ENDBRANCH  55  57
ENDBRANCH  54  55
ENDBRANCH  32  54
ENDBRANCH  31  32
ENDBRANCH  30  31
ENDBRANCH   5  30
TORSDOF 50
ENDMDL
MODEL 7
REMARK VINA RESULT:      -6.0      2.130      5.310
REMARK WARNING: 32 MAX_TORS EXCEEDED!!!
REMARK  50 active torsions:
REMARK  status: ('A' for Active; 'I' for Inactive)
REMARK    1  A    between atoms: C_5  and  C_3 
REMARK    2  A    between atoms: C_6  and  C_4 
REMARK    3  A    between atoms: C_7  and  C_5 
REMARK    4  A    between atoms: C_8  and  C_6 
REMARK    5  A    between atoms: C_9  and  C_7 
REMARK    6  A    between atoms: C_10  and  C_8 
REMARK    7  A    between atoms: C_11  and  C_9 
REMARK    8  A    between atoms: C_12  and  C_10 
REMARK    9  A    between atoms: C_13  and  C_11 
REMARK   10  A    between atoms: C_14  and  C_12 
REMARK   11  A    between atoms: C_15  and  C_13 
REMARK   12  A    between atoms: C_16  and  C_14 
REMARK   13  A    between atoms: C_17  and  C_15 
REMARK   14  A    between atoms: C_18  and  C_16 
REMARK   15  A    between atoms: C_19  and  C_17 
REMARK   16  A    between atoms: C_20  and  C_18 
REMARK   17  A    between atoms: C_21  and  C_19 
REMARK   18  A    between atoms: C_22  and  C_20 
REMARK   19  A    between atoms: C_23  and  C_21 
REMARK   20  A    between atoms: C_24  and  C_22 
REMARK   21  A    between atoms: C_25  and  C_23 
REMARK   22  A    between atoms: C_26  and  C_24 
REMARK   23  A    between atoms: C_27  and  C_25 
REMARK   24  A    between atoms: C_28  and  C_26 
REMARK   25  A    between atoms: C_29  and  C_27 
REMARK   26  A    between atoms: C_30  and  C_28 
REMARK   27  A    between atoms: C_31  and  C_29 
REMARK   28  A    between atoms: C_32  and  C_30 
REMARK   29  A    between atoms: C_33  and  C_31 
REMARK   30  A    between atoms: C_34  and  C_32 
REMARK   31  A    between atoms: C_42  and  C_33 
REMARK   32  A    between atoms: C_43  and  C_34 
REMARK   33  A    between atoms: C_40  and  C_35 
REMARK   34  A    between atoms: O_52  and  C_35 
REMARK   35  A    between atoms: C_39  and  C_36 
REMARK   36  A    between atoms: O_61  and  C_36 
REMARK   37  A    between atoms: C_39  and  C_37 
REMARK   38  A    between atoms: O_62  and  C_37 
REMARK   39  A    between atoms: C_41  and  C_38 
REMARK   40  A    between atoms: O_63  and  C_38 
REMARK   41  A    between atoms: C_39  and  O_64 
REMARK   42  A    between atoms: O_61  and  C_42 
REMARK   43  A    between atoms: O_64  and  C_43 
REMARK   44  A    between atoms: C_44  and  O_55 
REMARK   45  A    between atoms: C_45  and  O_56 
REMARK   46  A    between atoms: C_46  and  O_57 
REMARK   47  A    between atoms: C_48  and  O_59 
REMARK   48  A    between atoms: C_49  and  O_60 
REMARK   49  A    between atoms: C_50  and  O_62 
REMARK   50  A    between atoms: C_51  and  O_63 
ROOT
HETATM    1  C   UNK N   1      19.890  15.646   3.688  0.00  0.00     0.180 C 
HETATM    2  C   UNK N   1      19.567  14.795   2.429  0.00  0.00     0.180 C 
HETATM    3  C   UNK N   1      20.192  15.431   1.184  0.00  0.00     0.183 C 
HETATM    4  C   UNK N   1      19.758  16.896   1.109  0.00  0.00     0.204 C 
HETATM    5  C   UNK N   1      20.159  17.607   2.418  0.00  0.00     0.291 C 
HETATM    6  O   UNK N   1      21.588  15.355   1.250  0.00  0.00    -0.390 OA
HETATM    7  O   UNK N   1      19.471  16.990   3.504  0.00  0.00    -0.348 OA
HETATM    8  H   UNK N   1      22.556  15.420   1.247  0.00  0.00     0.210 HD
ENDROOT
BRANCH   2   9
HETATM    9  O   UNK N   1      20.053  13.491   2.564  0.00  0.00    -0.390 OA
HETATM   10  H   UNK N   1      19.499  12.703   2.673  0.00  0.00     0.210 HD
ENDBRANCH   2   9
BRANCH   4  11
HETATM   11  O   UNK N   1      20.360  17.506   0.007  0.00  0.00    -0.388 OA
HETATM   12  H   UNK N   1      21.054  18.185   0.006  0.00  0.00     0.210 HD
ENDBRANCH   4  11
BRANCH   1  13
HETATM   13  C   UNK N   1      19.146  15.151   4.934  0.00  0.00     0.205 C 
BRANCH  13  14
HETATM   14  O   UNK N   1      19.377  13.796   5.225  0.00  0.00    -0.356 OA
BRANCH  14  15
HETATM   15  C   UNK N   1      20.458  13.680   6.118  0.00  0.00     0.291 C 
HETATM   16  C   UNK N   1      21.026  12.258   5.953  0.00  0.00     0.204 C 
HETATM   17  C   UNK N   1      22.189  12.062   6.927  0.00  0.00     0.183 C 
HETATM   18  C   UNK N   1      21.705  12.374   8.346  0.00  0.00     0.180 C 
HETATM   19  C   UNK N   1      21.097  13.791   8.362  0.00  0.00     0.179 C 
HETATM   20  O   UNK N   1      20.007  13.862   7.456  0.00  0.00    -0.348 OA
BRANCH  16  21
HETATM   21  O   UNK N   1      21.465  12.061   4.641  0.00  0.00    -0.388 OA
HETATM   22  H   UNK N   1      22.300  12.449   4.336  0.00  0.00     0.210 HD
ENDBRANCH  16  21
BRANCH  17  23
HETATM   23  O   UNK N   1      22.662  10.750   6.854  0.00  0.00    -0.390 OA
HETATM   24  H   UNK N   1      22.533  10.220   6.052  0.00  0.00     0.210 HD
ENDBRANCH  17  23
BRANCH  18  25
HETATM   25  O   UNK N   1      22.777  12.292   9.240  0.00  0.00    -0.390 OA
HETATM   26  H   UNK N   1      23.432  11.631   9.516  0.00  0.00     0.210 HD
ENDBRANCH  18  25
BRANCH  19  27
HETATM   27  C   UNK N   1      20.589  14.115   9.760  0.00  0.00     0.198 C 
BRANCH  27  28
HETATM   28  O   UNK N   1      20.237  12.944  10.430  0.00  0.00    -0.398 OA
HETATM   29  H   UNK N   1      20.181  12.102   9.951  0.00  0.00     0.209 HD
ENDBRANCH  27  28
ENDBRANCH  19  27
ENDBRANCH  14  15
ENDBRANCH  13  14
ENDBRANCH   1  13
BRANCH   5  30
HETATM   30  O   UNK N   1      19.849  18.984   2.281  0.00  0.00    -0.356 OA
BRANCH  30  31
HETATM   31  C   UNK N   1      20.990  19.797   2.191  0.00  0.00     0.205 C 
BRANCH  31  32
HETATM   32  C   UNK N   1      22.049  19.518   3.266  0.00  0.00     0.180 C 
BRANCH  32  33
HETATM   33  C   UNK N   1      23.247  20.462   3.144  0.00  0.00     0.213 C 
BRANCH  33  34
HETATM   34  O   UNK N   1      24.422  19.753   3.271  0.00  0.00    -0.319 OA
BRANCH  34  35
HETATM   35  C   UNK N   1      25.622  20.320   2.982  0.00  0.00     0.258 C 
HETATM   36  O   UNK N   1      25.750  20.953   1.947  0.00  0.00    -0.265 OA
BRANCH  35  37
HETATM   37  C   UNK N   1      26.783  20.180   3.946  0.00  0.00     0.111 C 
BRANCH  37  38
HETATM   38  C   UNK N   1      26.392  19.691   5.333  0.00  0.00     0.010 C 
BRANCH  38  39
HETATM   39  C   UNK N   1      27.367  20.194   6.385  0.00  0.00     0.000 C 
BRANCH  39  40
HETATM   40  C   UNK N   1      27.803  19.060   7.290  0.00  0.00     0.000 C 
BRANCH  40  41
HETATM   41  C   UNK N   1      28.608  18.037   6.510  0.00  0.00     0.000 C 
BRANCH  41  42
HETATM   42  C   UNK N   1      29.091  16.923   7.429  0.00  0.00     0.000 C 
BRANCH  42  43
HETATM   43  C   UNK N   1      30.180  17.396   8.385  0.00  0.00     0.000 C 
BRANCH  43  44
HETATM   44  C   UNK N   1      31.528  17.452   7.692  0.00  0.00     0.000 C 
BRANCH  44  45
HETATM   45  C   UNK N   1      32.586  16.796   8.562  0.00  0.00     0.000 C 
BRANCH  45  46
HETATM   46  C   UNK N   1      32.561  15.288   8.364  0.00  0.00     0.000 C 
BRANCH  46  47
HETATM   47  C   UNK N   1      32.366  14.908   6.904  0.00  0.00     0.000 C 
BRANCH  47  48
HETATM   48  C   UNK N   1      33.625  14.302   6.308  0.00  0.00     0.000 C 
BRANCH  48  49
HETATM   49  C   UNK N   1      34.142  15.185   5.184  0.00  0.00     0.000 C 
BRANCH  49  50
HETATM   50  C   UNK N   1      33.195  15.138   4.001  0.00  0.00     0.000 C 
BRANCH  50  51
HETATM   51  C   UNK N   1      33.246  16.449   3.238  0.00  0.00    -0.000 C 
BRANCH  51  52
HETATM   52  C   UNK N   1      32.868  17.583   4.164  0.00  0.00    -0.005 C 
HETATM   53  C   UNK N   1      31.360  17.667   4.265  0.00  0.00     0.005 C 
ENDBRANCH  51  52
ENDBRANCH  50  51
ENDBRANCH  49  50
ENDBRANCH  48  49
ENDBRANCH  47  48
ENDBRANCH  46  47
ENDBRANCH  45  46
ENDBRANCH  44  45
ENDBRANCH  43  44
ENDBRANCH  42  43
ENDBRANCH  41  42
ENDBRANCH  40  41
ENDBRANCH  39  40
ENDBRANCH  38  39
ENDBRANCH  37  38
ENDBRANCH  35  37
ENDBRANCH  34  35
ENDBRANCH  33  34
ENDBRANCH  32  33
BRANCH  32  54
HETATM   54  O   UNK N   1      21.540  19.474   4.559  0.00  0.00    -0.312 OA
BRANCH  54  55
HETATM   55  C   UNK N   1      21.910  18.593   5.531  0.00  0.00     0.259 C 
HETATM   56  O   UNK N   1      21.267  18.485   6.565  0.00  0.00    -0.265 OA
BRANCH  55  57
HETATM   57  C   UNK N   1      23.157  17.784   5.354  0.00  0.00     0.111 C 
BRANCH  57  58
HETATM   58  C   UNK N   1      22.857  16.292   5.277  0.00  0.00     0.010 C 
BRANCH  58  59
HETATM   59  C   UNK N   1      23.505  15.552   6.431  0.00  0.00     0.000 C 
BRANCH  59  60
HETATM   60  C   UNK N   1      25.010  15.682   6.350  0.00  0.00     0.000 C 
BRANCH  60  61
HETATM   61  C   UNK N   1      25.663  14.411   6.850  0.00  0.00     0.000 C 
BRANCH  61  62
HETATM   62  C   UNK N   1      26.435  13.732   5.733  0.00  0.00     0.000 C 
BRANCH  62  63
HETATM   63  C   UNK N   1      25.496  12.964   4.819  0.00  0.00     0.000 C 
BRANCH  63  64
HETATM   64  C   UNK N   1      26.117  12.797   3.445  0.00  0.00     0.000 C 
BRANCH  64  65
HETATM   65  C   UNK N   1      25.175  13.323   2.375  0.00  0.00     0.000 C 
BRANCH  65  66
HETATM   66  C   UNK N   1      24.779  14.764   2.659  0.00  0.00     0.000 C 
BRANCH  66  67
HETATM   67  C   UNK N   1      25.843  15.728   2.157  0.00  0.00     0.000 C 
BRANCH  67  68
HETATM   68  C   UNK N   1      26.379  16.558   3.307  0.00  0.00     0.000 C 
BRANCH  68  69
HETATM   69  C   UNK N   1      27.867  16.750   3.146  0.00  0.00     0.000 C 
BRANCH  69  70
HETATM   70  C   UNK N   1      28.582  15.520   3.669  0.00  0.00     0.000 C 
BRANCH  70  71
HETATM   71  C   UNK N   1      29.235  14.775   2.522  0.00  0.00    -0.000 C 
BRANCH  71  72
HETATM   72  C   UNK N   1      30.039  13.603   3.058  0.00  0.00    -0.005 C 
HETATM   73  C   UNK N   1      29.874  13.519   4.561  0.00  0.00     0.005 C 
ENDBRANCH  71  72
ENDBRANCH  70  71
ENDBRANCH  69  70
ENDBRANCH  68  69
ENDBRANCH  67  68
ENDBRANCH  66  67
ENDBRANCH  65  66
ENDBRANCH  64  65
ENDBRANCH  63  64
ENDBRANCH  62  63
ENDBRANCH  61  62
ENDBRANCH  60  61
ENDBRANCH  59  60
ENDBRANCH  58  59
ENDBRANCH  57  58
ENDBRANCH  55  57
ENDBRANCH  54  55
ENDBRANCH  32  54
ENDBRANCH  31  32
ENDBRANCH  30  31
ENDBRANCH   5  30
TORSDOF 50
ENDMDL
MODEL 8
REMARK VINA RESULT:      -5.9      2.504      7.801
REMARK WARNING: 32 MAX_TORS EXCEEDED!!!
REMARK  50 active torsions:
REMARK  status: ('A' for Active; 'I' for Inactive)
REMARK    1  A    between atoms: C_5  and  C_3 
REMARK    2  A    between atoms: C_6  and  C_4 
REMARK    3  A    between atoms: C_7  and  C_5 
REMARK    4  A    between atoms: C_8  and  C_6 
REMARK    5  A    between atoms: C_9  and  C_7 
REMARK    6  A    between atoms: C_10  and  C_8 
REMARK    7  A    between atoms: C_11  and  C_9 
REMARK    8  A    between atoms: C_12  and  C_10 
REMARK    9  A    between atoms: C_13  and  C_11 
REMARK   10  A    between atoms: C_14  and  C_12 
REMARK   11  A    between atoms: C_15  and  C_13 
REMARK   12  A    between atoms: C_16  and  C_14 
REMARK   13  A    between atoms: C_17  and  C_15 
REMARK   14  A    between atoms: C_18  and  C_16 
REMARK   15  A    between atoms: C_19  and  C_17 
REMARK   16  A    between atoms: C_20  and  C_18 
REMARK   17  A    between atoms: C_21  and  C_19 
REMARK   18  A    between atoms: C_22  and  C_20 
REMARK   19  A    between atoms: C_23  and  C_21 
REMARK   20  A    between atoms: C_24  and  C_22 
REMARK   21  A    between atoms: C_25  and  C_23 
REMARK   22  A    between atoms: C_26  and  C_24 
REMARK   23  A    between atoms: C_27  and  C_25 
REMARK   24  A    between atoms: C_28  and  C_26 
REMARK   25  A    between atoms: C_29  and  C_27 
REMARK   26  A    between atoms: C_30  and  C_28 
REMARK   27  A    between atoms: C_31  and  C_29 
REMARK   28  A    between atoms: C_32  and  C_30 
REMARK   29  A    between atoms: C_33  and  C_31 
REMARK   30  A    between atoms: C_34  and  C_32 
REMARK   31  A    between atoms: C_42  and  C_33 
REMARK   32  A    between atoms: C_43  and  C_34 
REMARK   33  A    between atoms: C_40  and  C_35 
REMARK   34  A    between atoms: O_52  and  C_35 
REMARK   35  A    between atoms: C_39  and  C_36 
REMARK   36  A    between atoms: O_61  and  C_36 
REMARK   37  A    between atoms: C_39  and  C_37 
REMARK   38  A    between atoms: O_62  and  C_37 
REMARK   39  A    between atoms: C_41  and  C_38 
REMARK   40  A    between atoms: O_63  and  C_38 
REMARK   41  A    between atoms: C_39  and  O_64 
REMARK   42  A    between atoms: O_61  and  C_42 
REMARK   43  A    between atoms: O_64  and  C_43 
REMARK   44  A    between atoms: C_44  and  O_55 
REMARK   45  A    between atoms: C_45  and  O_56 
REMARK   46  A    between atoms: C_46  and  O_57 
REMARK   47  A    between atoms: C_48  and  O_59 
REMARK   48  A    between atoms: C_49  and  O_60 
REMARK   49  A    between atoms: C_50  and  O_62 
REMARK   50  A    between atoms: C_51  and  O_63 
ROOT
HETATM    1  C   UNK N   1      26.539  18.578   5.336  0.00  0.00     0.180 C 
HETATM    2  C   UNK N   1      27.368  19.106   4.133  0.00  0.00     0.180 C 
HETATM    3  C   UNK N   1      26.596  20.206   3.398  0.00  0.00     0.183 C 
HETATM    4  C   UNK N   1      25.203  19.680   3.048  0.00  0.00     0.204 C 
HETATM    5  C   UNK N   1      24.504  19.210   4.340  0.00  0.00     0.291 C 
HETATM    6  O   UNK N   1      26.483  21.342   4.209  0.00  0.00    -0.390 OA
HETATM    7  O   UNK N   1      25.258  18.141   4.906  0.00  0.00    -0.348 OA
HETATM    8  H   UNK N   1      26.285  22.139   4.725  0.00  0.00     0.210 HD
ENDROOT
BRANCH   2   9
HETATM    9  O   UNK N   1      28.597  19.621   4.556  0.00  0.00    -0.390 OA
HETATM   10  H   UNK N   1      28.725  20.171   5.344  0.00  0.00     0.210 HD
ENDBRANCH   2   9
BRANCH   4  11
HETATM   11  O   UNK N   1      24.467  20.688   2.423  0.00  0.00    -0.388 OA
HETATM   12  H   UNK N   1      24.330  21.601   2.723  0.00  0.00     0.210 HD
ENDBRANCH   4  11
BRANCH   1  13
HETATM   13  C   UNK N   1      27.188  17.359   6.002  0.00  0.00     0.205 C 
BRANCH  13  14
HETATM   14  O   UNK N   1      28.020  17.687   7.085  0.00  0.00    -0.356 OA
BRANCH  14  15
HETATM   15  C   UNK N   1      29.277  17.078   6.918  0.00  0.00     0.291 C 
HETATM   16  C   UNK N   1      30.138  17.485   8.129  0.00  0.00     0.204 C 
HETATM   17  C   UNK N   1      31.533  16.876   7.984  0.00  0.00     0.183 C 
HETATM   18  C   UNK N   1      32.123  17.300   6.635  0.00  0.00     0.180 C 
HETATM   19  C   UNK N   1      31.139  16.901   5.518  0.00  0.00     0.179 C 
HETATM   20  O   UNK N   1      29.888  17.542   5.719  0.00  0.00    -0.348 OA
BRANCH  16  21
HETATM   21  O   UNK N   1      29.545  17.044   9.315  0.00  0.00    -0.388 OA
HETATM   22  H   UNK N   1      30.090  16.814  10.084  0.00  0.00     0.210 HD
ENDBRANCH  16  21
BRANCH  17  23
HETATM   23  O   UNK N   1      32.356  17.305   9.028  0.00  0.00    -0.390 OA
HETATM   24  H   UNK N   1      33.293  17.502   8.872  0.00  0.00     0.210 HD
ENDBRANCH  17  23
BRANCH  18  25
HETATM   25  O   UNK N   1      33.360  16.677   6.444  0.00  0.00    -0.390 OA
HETATM   26  H   UNK N   1      33.990  16.158   6.967  0.00  0.00     0.210 HD
ENDBRANCH  18  25
BRANCH  19  27
HETATM   27  C   UNK N   1      31.695  17.332   4.167  0.00  0.00     0.198 C 
BRANCH  27  28
HETATM   28  O   UNK N   1      30.799  17.002   3.150  0.00  0.00    -0.398 OA
HETATM   29  H   UNK N   1      29.843  17.024   3.311  0.00  0.00     0.209 HD
ENDBRANCH  27  28
ENDBRANCH  19  27
ENDBRANCH  14  15
ENDBRANCH  13  14
ENDBRANCH   1  13
BRANCH   5  30
HETATM   30  O   UNK N   1      23.178  18.833   4.007  0.00  0.00    -0.356 OA
BRANCH  30  31
HETATM   31  C   UNK N   1      22.944  17.457   4.160  0.00  0.00     0.205 C 
BRANCH  31  32
HETATM   32  C   UNK N   1      21.592  17.115   4.799  0.00  0.00     0.180 C 
BRANCH  32  33
HETATM   33  C   UNK N   1      21.281  18.019   5.994  0.00  0.00     0.213 C 
BRANCH  33  34
HETATM   34  O   UNK N   1      21.457  17.324   7.171  0.00  0.00    -0.319 OA
BRANCH  34  35
HETATM   35  C   UNK N   1      20.462  17.231   8.091  0.00  0.00     0.258 C 
HETATM   36  O   UNK N   1      19.961  18.252   8.535  0.00  0.00    -0.265 OA
BRANCH  35  37
HETATM   37  C   UNK N   1      19.969  15.872   8.546  0.00  0.00     0.111 C 
BRANCH  37  38
HETATM   38  C   UNK N   1      21.066  14.936   9.030  0.00  0.00     0.010 C 
BRANCH  38  39
HETATM   39  C   UNK N   1      21.038  13.620   8.267  0.00  0.00     0.000 C 
BRANCH  39  40
HETATM   40  C   UNK N   1      20.813  13.869   6.790  0.00  0.00     0.000 C 
BRANCH  40  41
HETATM   41  C   UNK N   1      20.756  12.555   6.032  0.00  0.00     0.000 C 
BRANCH  41  42
HETATM   42  C   UNK N   1      21.833  11.602   6.531  0.00  0.00     0.000 C 
BRANCH  42  43
HETATM   43  C   UNK N   1      22.752  11.133   5.409  0.00  0.00     0.000 C 
BRANCH  43  44
HETATM   44  C   UNK N   1      23.244  12.306   4.581  0.00  0.00     0.000 C 
BRANCH  44  45
HETATM   45  C   UNK N   1      24.535  12.848   5.168  0.00  0.00     0.000 C 
BRANCH  45  46
HETATM   46  C   UNK N   1      24.352  14.302   5.575  0.00  0.00     0.000 C 
BRANCH  46  47
HETATM   47  C   UNK N   1      24.674  14.527   7.045  0.00  0.00     0.000 C 
BRANCH  47  48
HETATM   48  C   UNK N   1      24.996  13.223   7.755  0.00  0.00     0.000 C 
BRANCH  48  49
HETATM   49  C   UNK N   1      24.849  13.403   9.257  0.00  0.00     0.000 C 
BRANCH  49  50
HETATM   50  C   UNK N   1      24.031  12.270   9.845  0.00  0.00     0.000 C 
BRANCH  50  51
HETATM   51  C   UNK N   1      24.490  11.973  11.261  0.00  0.00    -0.000 C 
BRANCH  51  52
HETATM   52  C   UNK N   1      23.299  12.008  12.192  0.00  0.00    -0.005 C 
HETATM   53  C   UNK N   1      22.025  12.026  11.376  0.00  0.00     0.005 C 
ENDBRANCH  51  52
ENDBRANCH  50  51
ENDBRANCH  49  50
ENDBRANCH  48  49
ENDBRANCH  47  48
ENDBRANCH  46  47
ENDBRANCH  45  46
ENDBRANCH  44  45
ENDBRANCH  43  44
ENDBRANCH  42  43
ENDBRANCH  41  42
ENDBRANCH  40  41
ENDBRANCH  39  40
ENDBRANCH  38  39
ENDBRANCH  37  38
ENDBRANCH  35  37
ENDBRANCH  34  35
ENDBRANCH  33  34
ENDBRANCH  32  33
BRANCH  32  54
HETATM   54  O   UNK N   1      20.540  17.057   3.892  0.00  0.00    -0.312 OA
BRANCH  54  55
HETATM   55  C   UNK N   1      19.947  15.918   3.431  0.00  0.00     0.259 C 
HETATM   56  O   UNK N   1      19.142  15.303   4.114  0.00  0.00    -0.265 OA
BRANCH  55  57
HETATM   57  C   UNK N   1      20.332  15.383   2.087  0.00  0.00     0.111 C 
BRANCH  57  58
HETATM   58  C   UNK N   1      20.485  13.867   2.106  0.00  0.00     0.010 C 
BRANCH  58  59
HETATM   59  C   UNK N   1      20.091  13.269   0.768  0.00  0.00     0.000 C 
BRANCH  59  60
HETATM   60  C   UNK N   1      20.036  11.762   0.872  0.00  0.00     0.000 C 
BRANCH  60  61
HETATM   61  C   UNK N   1      20.804  11.302   2.092  0.00  0.00     0.000 C 
BRANCH  61  62
HETATM   62  C   UNK N   1      21.298   9.879   1.908  0.00  0.00     0.000 C 
BRANCH  62  63
HETATM   63  C   UNK N   1      22.817   9.831   1.908  0.00  0.00     0.000 C 
BRANCH  63  64
HETATM   64  C   UNK N   1      23.352  10.065   0.507  0.00  0.00     0.000 C 
BRANCH  64  65
HETATM   65  C   UNK N   1      24.201  11.324   0.473  0.00  0.00     0.000 C 
BRANCH  65  66
HETATM   66  C   UNK N   1      23.559  12.390  -0.403  0.00  0.00     0.000 C 
BRANCH  66  67
HETATM   67  C   UNK N   1      23.616  13.752   0.271  0.00  0.00     0.000 C 
BRANCH  67  68
HETATM   68  C   UNK N   1      24.454  13.676   1.531  0.00  0.00     0.000 C 
BRANCH  68  69
HETATM   69  C   UNK N   1      24.864  15.066   1.954  0.00  0.00     0.000 C 
BRANCH  69  70
HETATM   70  C   UNK N   1      26.359  15.218   1.761  0.00  0.00     0.000 C 
BRANCH  70  71
HETATM   71  C   UNK N   1      27.049  15.297   3.109  0.00  0.00    -0.000 C 
BRANCH  71  72
HETATM   72  C   UNK N   1      27.647  13.947   3.464  0.00  0.00    -0.005 C 
HETATM   73  C   UNK N   1      28.194  13.990   4.875  0.00  0.00     0.005 C 
ENDBRANCH  71  72
ENDBRANCH  70  71
ENDBRANCH  69  70
ENDBRANCH  68  69
ENDBRANCH  67  68
ENDBRANCH  66  67
ENDBRANCH  65  66
ENDBRANCH  64  65
ENDBRANCH  63  64
ENDBRANCH  62  63
ENDBRANCH  61  62
ENDBRANCH  60  61
ENDBRANCH  59  60
ENDBRANCH  58  59
ENDBRANCH  57  58
ENDBRANCH  55  57
ENDBRANCH  54  55
ENDBRANCH  32  54
ENDBRANCH  31  32
ENDBRANCH  30  31
ENDBRANCH   5  30
TORSDOF 50
ENDMDL
MODEL 9
REMARK VINA RESULT:      -5.9      2.169      5.371
REMARK WARNING: 32 MAX_TORS EXCEEDED!!!
REMARK  50 active torsions:
REMARK  status: ('A' for Active; 'I' for Inactive)
REMARK    1  A    between atoms: C_5  and  C_3 
REMARK    2  A    between atoms: C_6  and  C_4 
REMARK    3  A    between atoms: C_7  and  C_5 
REMARK    4  A    between atoms: C_8  and  C_6 
REMARK    5  A    between atoms: C_9  and  C_7 
REMARK    6  A    between atoms: C_10  and  C_8 
REMARK    7  A    between atoms: C_11  and  C_9 
REMARK    8  A    between atoms: C_12  and  C_10 
REMARK    9  A    between atoms: C_13  and  C_11 
REMARK   10  A    between atoms: C_14  and  C_12 
REMARK   11  A    between atoms: C_15  and  C_13 
REMARK   12  A    between atoms: C_16  and  C_14 
REMARK   13  A    between atoms: C_17  and  C_15 
REMARK   14  A    between atoms: C_18  and  C_16 
REMARK   15  A    between atoms: C_19  and  C_17 
REMARK   16  A    between atoms: C_20  and  C_18 
REMARK   17  A    between atoms: C_21  and  C_19 
REMARK   18  A    between atoms: C_22  and  C_20 
REMARK   19  A    between atoms: C_23  and  C_21 
REMARK   20  A    between atoms: C_24  and  C_22 
REMARK   21  A    between atoms: C_25  and  C_23 
REMARK   22  A    between atoms: C_26  and  C_24 
REMARK   23  A    between atoms: C_27  and  C_25 
REMARK   24  A    between atoms: C_28  and  C_26 
REMARK   25  A    between atoms: C_29  and  C_27 
REMARK   26  A    between atoms: C_30  and  C_28 
REMARK   27  A    between atoms: C_31  and  C_29 
REMARK   28  A    between atoms: C_32  and  C_30 
REMARK   29  A    between atoms: C_33  and  C_31 
REMARK   30  A    between atoms: C_34  and  C_32 
REMARK   31  A    between atoms: C_42  and  C_33 
REMARK   32  A    between atoms: C_43  and  C_34 
REMARK   33  A    between atoms: C_40  and  C_35 
REMARK   34  A    between atoms: O_52  and  C_35 
REMARK   35  A    between atoms: C_39  and  C_36 
REMARK   36  A    between atoms: O_61  and  C_36 
REMARK   37  A    between atoms: C_39  and  C_37 
REMARK   38  A    between atoms: O_62  and  C_37 
REMARK   39  A    between atoms: C_41  and  C_38 
REMARK   40  A    between atoms: O_63  and  C_38 
REMARK   41  A    between atoms: C_39  and  O_64 
REMARK   42  A    between atoms: O_61  and  C_42 
REMARK   43  A    between atoms: O_64  and  C_43 
REMARK   44  A    between atoms: C_44  and  O_55 
REMARK   45  A    between atoms: C_45  and  O_56 
REMARK   46  A    between atoms: C_46  and  O_57 
REMARK   47  A    between atoms: C_48  and  O_59 
REMARK   48  A    between atoms: C_49  and  O_60 
REMARK   49  A    between atoms: C_50  and  O_62 
REMARK   50  A    between atoms: C_51  and  O_63 
ROOT
HETATM    1  C   UNK N   1      19.913  15.582   3.648  0.00  0.00     0.180 C 
HETATM    2  C   UNK N   1      19.691  14.735   2.364  0.00  0.00     0.180 C 
HETATM    3  C   UNK N   1      20.280  15.452   1.146  0.00  0.00     0.183 C 
HETATM    4  C   UNK N   1      19.720  16.874   1.093  0.00  0.00     0.204 C 
HETATM    5  C   UNK N   1      20.032  17.588   2.425  0.00  0.00     0.291 C 
HETATM    6  O   UNK N   1      21.677  15.497   1.241  0.00  0.00    -0.390 OA
HETATM    7  O   UNK N   1      19.380  16.888   3.483  0.00  0.00    -0.348 OA
HETATM    8  H   UNK N   1      22.635  15.648   1.259  0.00  0.00     0.210 HD
ENDROOT
BRANCH   2   9
HETATM    9  O   UNK N   1      20.288  13.476   2.482  0.00  0.00    -0.390 OA
HETATM   10  H   UNK N   1      20.864  13.073   1.815  0.00  0.00     0.210 HD
ENDBRANCH   2   9
BRANCH   4  11
HETATM   11  O   UNK N   1      20.287  17.560   0.018  0.00  0.00    -0.388 OA
HETATM   12  H   UNK N   1      20.154  18.488  -0.235  0.00  0.00     0.210 HD
ENDBRANCH   4  11
BRANCH   1  13
HETATM   13  C   UNK N   1      19.192  14.994   4.867  0.00  0.00     0.205 C 
BRANCH  13  14
HETATM   14  O   UNK N   1      19.523  13.654   5.124  0.00  0.00    -0.356 OA
BRANCH  14  15
HETATM   15  C   UNK N   1      20.584  13.595   6.045  0.00  0.00     0.291 C 
HETATM   16  C   UNK N   1      21.199  12.187   5.934  0.00  0.00     0.204 C 
HETATM   17  C   UNK N   1      22.342  12.054   6.941  0.00  0.00     0.183 C 
HETATM   18  C   UNK N   1      21.814  12.389   8.339  0.00  0.00     0.180 C 
HETATM   19  C   UNK N   1      21.163  13.786   8.301  0.00  0.00     0.179 C 
HETATM   20  O   UNK N   1      20.095  13.799   7.366  0.00  0.00    -0.348 OA
BRANCH  16  21
HETATM   21  O   UNK N   1      21.677  11.969   4.638  0.00  0.00    -0.388 OA
HETATM   22  H   UNK N   1      22.416  12.491   4.290  0.00  0.00     0.210 HD
ENDBRANCH  16  21
BRANCH  17  23
HETATM   23  O   UNK N   1      22.856  10.756   6.916  0.00  0.00    -0.390 OA
HETATM   24  H   UNK N   1      23.458  10.447   7.612  0.00  0.00     0.210 HD
ENDBRANCH  17  23
BRANCH  18  25
HETATM   25  O   UNK N   1      22.865  12.363   9.261  0.00  0.00    -0.390 OA
HETATM   26  H   UNK N   1      23.507  12.987   9.634  0.00  0.00     0.210 HD
ENDBRANCH  18  25
BRANCH  19  27
HETATM   27  C   UNK N   1      20.610  14.132   9.677  0.00  0.00     0.198 C 
BRANCH  27  28
HETATM   28  O   UNK N   1      20.059  12.999  10.274  0.00  0.00    -0.398 OA
HETATM   29  H   UNK N   1      20.622  12.376  10.760  0.00  0.00     0.209 HD
ENDBRANCH  27  28
ENDBRANCH  19  27
ENDBRANCH  14  15
ENDBRANCH  13  14
ENDBRANCH   1  13
BRANCH   5  30
HETATM   30  O   UNK N   1      19.603  18.935   2.311  0.00  0.00    -0.356 OA
BRANCH  30  31
HETATM   31  C   UNK N   1      20.670  19.847   2.262  0.00  0.00     0.205 C 
BRANCH  31  32
HETATM   32  C   UNK N   1      21.837  19.503   3.196  0.00  0.00     0.180 C 
BRANCH  32  33
HETATM   33  C   UNK N   1      23.019  20.455   3.006  0.00  0.00     0.213 C 
BRANCH  33  34
HETATM   34  O   UNK N   1      24.146  19.745   2.653  0.00  0.00    -0.319 OA
BRANCH  34  35
HETATM   35  C   UNK N   1      25.384  20.297   2.742  0.00  0.00     0.258 C 
HETATM   36  O   UNK N   1      25.628  21.321   2.124  0.00  0.00    -0.265 OA
BRANCH  35  37
HETATM   37  C   UNK N   1      26.444  19.655   3.615  0.00  0.00     0.111 C 
BRANCH  37  38
HETATM   38  C   UNK N   1      26.147  19.711   5.107  0.00  0.00     0.010 C 
BRANCH  38  39
HETATM   39  C   UNK N   1      26.770  20.944   5.742  0.00  0.00     0.000 C 
BRANCH  39  40
HETATM   40  C   UNK N   1      27.588  20.558   6.957  0.00  0.00     0.000 C 
BRANCH  40  41
HETATM   41  C   UNK N   1      27.972  19.090   6.895  0.00  0.00     0.000 C 
BRANCH  41  42
HETATM   42  C   UNK N   1      28.347  18.577   8.278  0.00  0.00     0.000 C 
BRANCH  42  43
HETATM   43  C   UNK N   1      29.318  17.404   8.214  0.00  0.00     0.000 C 
BRANCH  43  44
HETATM   44  C   UNK N   1      30.060  17.382   6.891  0.00  0.00     0.000 C 
BRANCH  44  45
HETATM   45  C   UNK N   1      30.369  15.949   6.494  0.00  0.00     0.000 C 
BRANCH  45  46
HETATM   46  C   UNK N   1      31.038  15.919   5.129  0.00  0.00     0.000 C 
BRANCH  46  47
HETATM   47  C   UNK N   1      31.385  17.315   4.634  0.00  0.00     0.000 C 
BRANCH  47  48
HETATM   48  C   UNK N   1      32.886  17.504   4.491  0.00  0.00     0.000 C 
BRANCH  48  49
HETATM   49  C   UNK N   1      33.616  16.318   5.098  0.00  0.00     0.000 C 
BRANCH  49  50
HETATM   50  C   UNK N   1      34.346  16.738   6.359  0.00  0.00     0.000 C 
BRANCH  50  51
HETATM   51  C   UNK N   1      33.638  17.912   7.007  0.00  0.00    -0.000 C 
BRANCH  51  52
HETATM   52  C   UNK N   1      34.367  18.303   8.272  0.00  0.00    -0.005 C 
HETATM   53  C   UNK N   1      34.679  17.058   9.075  0.00  0.00     0.005 C 
ENDBRANCH  51  52
ENDBRANCH  50  51
ENDBRANCH  49  50
ENDBRANCH  48  49
ENDBRANCH  47  48
ENDBRANCH  46  47
ENDBRANCH  45  46
ENDBRANCH  44  45
ENDBRANCH  43  44
ENDBRANCH  42  43
ENDBRANCH  41  42
ENDBRANCH  40  41
ENDBRANCH  39  40
ENDBRANCH  38  39
ENDBRANCH  37  38
ENDBRANCH  35  37
ENDBRANCH  34  35
ENDBRANCH  33  34
ENDBRANCH  32  33
BRANCH  32  54
HETATM   54  O   UNK N   1      21.471  19.375   4.531  0.00  0.00    -0.312 OA
BRANCH  54  55
HETATM   55  C   UNK N   1      21.829  18.355   5.362  0.00  0.00     0.259 C 
HETATM   56  O   UNK N   1      21.052  17.917   6.197  0.00  0.00    -0.265 OA
BRANCH  55  57
HETATM   57  C   UNK N   1      23.218  17.801   5.289  0.00  0.00     0.111 C 
BRANCH  57  58
HETATM   58  C   UNK N   1      23.322  16.671   4.272  0.00  0.00     0.010 C 
BRANCH  58  59
HETATM   59  C   UNK N   1      23.401  15.326   4.968  0.00  0.00     0.000 C 
BRANCH  59  60
HETATM   60  C   UNK N   1      23.771  15.516   6.422  0.00  0.00     0.000 C 
BRANCH  60  61
HETATM   61  C   UNK N   1      25.036  14.746   6.735  0.00  0.00     0.000 C 
BRANCH  61  62
HETATM   62  C   UNK N   1      26.251  15.649   6.634  0.00  0.00     0.000 C 
BRANCH  62  63
HETATM   63  C   UNK N   1      27.156  15.208   5.496  0.00  0.00     0.000 C 
BRANCH  63  64
HETATM   64  C   UNK N   1      27.379  16.354   4.526  0.00  0.00     0.000 C 
BRANCH  64  65
HETATM   65  C   UNK N   1      26.980  15.937   3.121  0.00  0.00     0.000 C 
BRANCH  65  66
HETATM   66  C   UNK N   1      26.389  14.536   3.116  0.00  0.00     0.000 C 
BRANCH  66  67
HETATM   67  C   UNK N   1      25.504  14.324   1.896  0.00  0.00     0.000 C 
BRANCH  67  68
HETATM   68  C   UNK N   1      25.323  12.843   1.635  0.00  0.00     0.000 C 
BRANCH  68  69
HETATM   69  C   UNK N   1      23.859  12.539   1.424  0.00  0.00     0.000 C 
BRANCH  69  70
HETATM   70  C   UNK N   1      23.531  12.695  -0.047  0.00  0.00     0.000 C 
BRANCH  70  71
HETATM   71  C   UNK N   1      23.382  11.330  -0.691  0.00  0.00    -0.000 C 
BRANCH  71  72
HETATM   72  C   UNK N   1      22.957  10.310   0.351  0.00  0.00    -0.005 C 
HETATM   73  C   UNK N   1      21.535   9.869   0.079  0.00  0.00     0.005 C 
ENDBRANCH  71  72
ENDBRANCH  70  71
ENDBRANCH  69  70
ENDBRANCH  68  69
ENDBRANCH  67  68
ENDBRANCH  66  67
ENDBRANCH  65  66
ENDBRANCH  64  65
ENDBRANCH  63  64
ENDBRANCH  62  63
ENDBRANCH  61  62
ENDBRANCH  60  61
ENDBRANCH  59  60
ENDBRANCH  58  59
ENDBRANCH  57  58
ENDBRANCH  55  57
ENDBRANCH  54  55
ENDBRANCH  32  54
ENDBRANCH  31  32
ENDBRANCH  30  31
ENDBRANCH   5  30
TORSDOF 50
ENDMDL
