REMARK  15 active torsions:
REMARK  status: ('A' for Active; 'I' for Inactive)
REMARK    1  A    between atoms: C_4  and  C_2 
REMARK    2  A    between atoms: O_29  and  C_2 
REMARK    3  A    between atoms: C_6  and  O_19 
REMARK    4  A    between atoms: C_7  and  O_20 
REMARK    5  A    between atoms: O_21  and  C_9 
REMARK    6  A    between atoms: C_10  and  N_18 
REMARK    7  A    between atoms: P_33  and  O_22 
REMARK    8  A    between atoms: P_33  and  O_23 
REMARK    9  A    between atoms: P_34  and  O_25 
REMARK   10  A    between atoms: P_35  and  O_27 
REMARK   11  A    between atoms: P_34  and  O_29 
REMARK   12  A    between atoms: P_33  and  O_31 
REMARK   13  A    between atoms: P_35  and  O_31 
REMARK   14  A    between atoms: P_34  and  O_32 
REMARK   15  A    between atoms: P_35  and  O_32 
ROOT
HETATM    1  C   UNK N   1      -0.817  -4.466   0.543  0.00  0.00     0.180 C 
HETATM    2  C   UNK N   1       0.562  -4.931   0.109  0.00  0.00     0.182 C 
HETATM    3  C   UNK N   1       1.253  -3.603   0.141  0.00  0.00     0.198 C 
HETATM    4  C   UNK N   1       0.191  -2.727  -0.531  0.00  0.00     0.258 C 
HETATM    5  O   UNK N   1      -1.066  -3.238  -0.118  0.00  0.00    -0.354 OA
ENDROOT
BRANCH   1   6
HETATM    6  C   UNK N   1      -1.877  -5.513   0.216  0.00  0.00     0.215 C 
BRANCH   6   7
HETATM    7  O   UNK N   1      -3.150  -4.967   0.399  0.00  0.00    -0.294 OA
BRANCH   7   8
HETATM    8  P   UNK N   1      -4.053  -5.357  -1.042  0.00  0.00     0.401 P 
HETATM    9  O   UNK N   1      -4.910  -5.901   0.131  0.00  0.00    -0.631 OA
BRANCH   8  10
HETATM   10  O   UNK N   1      -3.437  -3.745  -1.240  0.00  0.00    -0.307 OA
HETATM   11  H   UNK N   1      -2.485  -3.593  -1.350  0.00  0.00     0.222 HD
ENDBRANCH   8  10
BRANCH   8  12
HETATM   12  O   UNK N   1      -5.482  -4.301  -1.167  0.00  0.00    -0.195 OA
BRANCH  12  13
HETATM   13  P   UNK N   1      -5.780  -3.258   0.254  0.00  0.00     0.410 P 
HETATM   14  O   UNK N   1      -4.691  -2.151   0.315  0.00  0.00    -0.631 OA
BRANCH  13  15
HETATM   15  O   UNK N   1      -5.749  -4.071   1.791  0.00  0.00    -0.307 OA
HETATM   16  H   UNK N   1      -6.134  -4.313   2.648  0.00  0.00     0.222 HD
ENDBRANCH  13  15
BRANCH  13  17
HETATM   17  O   UNK N   1      -7.275  -2.391   0.058  0.00  0.00    -0.195 OA
BRANCH  17  18
HETATM   18  P   UNK N   1      -8.551  -3.574   0.144  0.00  0.00     0.399 P 
HETATM   19  O   UNK N   1      -8.259  -4.709  -0.875  0.00  0.00    -0.631 OA
BRANCH  18  20
HETATM   20  O   UNK N   1      -8.687  -4.287   1.721  0.00  0.00    -0.307 OA
HETATM   21  H   UNK N   1      -9.070  -4.420   2.602  0.00  0.00     0.222 HD
ENDBRANCH  18  20
BRANCH  18  22
HETATM   22  O   UNK N   1     -10.059  -2.863  -0.336  0.00  0.00    -0.307 OA
HETATM   23  H   UNK N   1     -10.136  -1.934  -0.605  0.00  0.00     0.222 HD
ENDBRANCH  18  22
ENDBRANCH  17  18
ENDBRANCH  13  17
ENDBRANCH  12  13
ENDBRANCH   8  12
ENDBRANCH   7   8
ENDBRANCH   6   7
ENDBRANCH   1   6
BRANCH   2  24
HETATM   24  O   UNK N   1       0.518  -5.418  -1.206  0.00  0.00    -0.390 OA
HETATM   25  H   UNK N   1       0.212  -5.560  -2.115  0.00  0.00     0.210 HD
ENDBRANCH   2  24
BRANCH   3  26
HETATM   26  O   UNK N   1       2.469  -3.632  -0.547  0.00  0.00    -0.388 OA
HETATM   27  H   UNK N   1       2.874  -4.373  -1.025  0.00  0.00     0.210 HD
ENDBRANCH   3  26
BRANCH   4  28
HETATM   28  N   UNK N   1       0.292  -1.317  -0.179  0.00  0.00    -0.319 N 
HETATM   29  C   UNK N   1      -0.848  -0.399  -0.241  0.00  0.00     0.253 A 
HETATM   30  N   UNK N   1      -0.212   0.907  -0.113  0.00  0.00    -0.362 N 
HETATM   31  C   UNK N   1      -0.919   2.160  -0.118  0.00  0.00     0.152 C 
HETATM   32  C   UNK N   1       1.179   0.750  -0.037  0.00  0.00     0.128 A 
HETATM   33  C   UNK N   1       1.476  -0.557  -0.093  0.00  0.00     0.153 A 
HETATM   34  C   UNK N   1       2.197   1.693   0.063  0.00  0.00     0.186 A 
HETATM   35  N   UNK N   1       2.752  -1.007  -0.058  0.00  0.00    -0.174 N 
HETATM   36  C   UNK N   1       3.766  -0.097   0.045  0.00  0.00     0.679 A 
HETATM   37  H   UNK N   1       2.946  -1.971  -0.105  0.00  0.00     0.186 HD
HETATM   38  N   UNK N   1       4.978  -0.498   0.087  0.00  0.00    -0.234 N 
HETATM   39  N   UNK N   1       3.486   1.244   0.106  0.00  0.00    -0.168 N 
HETATM   40  H   UNK N   1       5.178  -1.462   0.120  0.00  0.00     0.174 HD
ATOM     41  HN  UNK N   1       5.740   0.180   0.087  1.00  0.00     0.174 HD
ATOM     42  HN  UNK N   1       4.250   1.916   0.183  1.00  0.00     0.186 HD
BRANCH  34  43
HETATM   43  O   UNK N   1       1.932   3.008   0.117  0.00  0.00    -0.344 OA
HETATM   44  H   UNK N   1       2.635   3.627   0.154  0.00  0.00     0.219 HD
ENDBRANCH  34  43
ENDBRANCH   4  28
TORSDOF 15
