MODEL 1
REMARK VINA RESULT:      -7.2      0.000      0.000
REMARK  3 active torsions:
REMARK  status: ('A' for Active; 'I' for Inactive)
REMARK    1  A    between atoms: O_1  and  C_2 
REMARK    2  A    between atoms: C_8  and  C_5 
REMARK    3  A    between atoms: C_15  and  O_16 
ROOT
HETATM    1  C   UNK N   1      33.134  17.033   7.086  0.00  0.00     0.169 A 
HETATM    2  C   UNK N   1      34.021  18.252   7.364  0.00  0.00     0.121 A 
HETATM    3  C   UNK N   1      34.794  18.137   8.640  0.00  0.00     0.165 A 
HETATM    4  O   UNK N   1      35.537  19.051   8.966  0.00  0.00    -0.292 OA
HETATM    5  C   UNK N   1      34.664  16.942   9.493  0.00  0.00     0.043 A 
HETATM    6  C   UNK N   1      35.388  16.833  10.689  0.00  0.00     0.021 A 
HETATM    7  C   UNK N   1      35.256  15.695  11.490  0.00  0.00     0.037 A 
HETATM    8  C   UNK N   1      34.402  14.662  11.099  0.00  0.00     0.068 A 
HETATM    9  C   UNK N   1      33.679  14.764   9.911  0.00  0.00     0.074 A 
HETATM   10  C   UNK N   1      33.805  15.897   9.106  0.00  0.00     0.086 A 
HETATM   11  O   UNK N   1      33.093  15.966   7.963  0.00  0.00    -0.340 OA
ENDROOT
BRANCH   1  12
HETATM   12  C   UNK N   1      32.279  16.941   5.868  0.00  0.00    -0.028 A 
HETATM   13  C   UNK N   1      30.934  16.569   5.976  0.00  0.00     0.012 A 
HETATM   14  C   UNK N   1      30.138  16.485   4.832  0.00  0.00     0.037 A 
HETATM   15  C   UNK N   1      30.684  16.772   3.578  0.00  0.00     0.065 A 
HETATM   16  C   UNK N   1      32.026  17.144   3.466  0.00  0.00     0.037 A 
HETATM   17  C   UNK N   1      32.823  17.229   4.608  0.00  0.00     0.012 A 
BRANCH  15  18
HETATM   18  O   UNK N   1      29.917  16.690   2.480  0.00  0.00    -0.361 OA
HETATM   19  H   UNK N   1      30.295  16.819   1.633  0.00  0.00     0.217 HD
ENDBRANCH  15  18
ENDBRANCH   1  12
BRANCH   8  20
HETATM   20  O   UNK N   1      34.274  13.568  11.868  0.00  0.00    -0.361 OA
HETATM   21  H   UNK N   1      33.922  12.778  11.505  0.00  0.00     0.217 HD
ENDBRANCH   8  20
TORSDOF 3
ENDMDL
MODEL 2
REMARK VINA RESULT:      -7.2     12.227     16.602
REMARK  3 active torsions:
REMARK  status: ('A' for Active; 'I' for Inactive)
REMARK    1  A    between atoms: O_1  and  C_2 
REMARK    2  A    between atoms: C_8  and  C_5 
REMARK    3  A    between atoms: C_15  and  O_16 
ROOT
HETATM    1  C   UNK N   1      28.179  23.925  -4.605  0.00  0.00     0.169 A 
HETATM    2  C   UNK N   1      27.308  23.424  -5.762  0.00  0.00     0.121 A 
HETATM    3  C   UNK N   1      26.227  24.387  -6.143  0.00  0.00     0.165 A 
HETATM    4  O   UNK N   1      25.467  24.095  -7.055  0.00  0.00    -0.292 OA
HETATM    5  C   UNK N   1      26.077  25.669  -5.431  0.00  0.00     0.043 A 
HETATM    6  C   UNK N   1      25.065  26.571  -5.786  0.00  0.00     0.021 A 
HETATM    7  C   UNK N   1      24.932  27.784  -5.104  0.00  0.00     0.037 A 
HETATM    8  C   UNK N   1      25.810  28.100  -4.064  0.00  0.00     0.068 A 
HETATM    9  C   UNK N   1      26.819  27.207  -3.706  0.00  0.00     0.074 A 
HETATM   10  C   UNK N   1      26.958  25.993  -4.383  0.00  0.00     0.086 A 
HETATM   11  O   UNK N   1      27.943  25.151  -4.013  0.00  0.00    -0.340 OA
ENDROOT
BRANCH   1  12
HETATM   12  C   UNK N   1      29.315  23.121  -4.068  0.00  0.00    -0.028 A 
HETATM   13  C   UNK N   1      29.822  22.041  -4.799  0.00  0.00     0.012 A 
HETATM   14  C   UNK N   1      30.885  21.291  -4.292  0.00  0.00     0.037 A 
HETATM   15  C   UNK N   1      31.443  21.619  -3.054  0.00  0.00     0.065 A 
HETATM   16  C   UNK N   1      30.939  22.696  -2.321  0.00  0.00     0.037 A 
HETATM   17  C   UNK N   1      29.877  23.447  -2.826  0.00  0.00     0.012 A 
BRANCH  15  18
HETATM   18  O   UNK N   1      32.464  20.896  -2.569  0.00  0.00    -0.361 OA
HETATM   19  H   UNK N   1      32.732  20.111  -3.004  0.00  0.00     0.217 HD
ENDBRANCH  15  18
ENDBRANCH   1  12
BRANCH   8  20
HETATM   20  O   UNK N   1      25.684  29.265  -3.408  0.00  0.00    -0.361 OA
HETATM   21  H   UNK N   1      25.025  29.879  -3.665  0.00  0.00     0.217 HD
ENDBRANCH   8  20
TORSDOF 3
ENDMDL
MODEL 3
REMARK VINA RESULT:      -7.1      5.641     10.664
REMARK  3 active torsions:
REMARK  status: ('A' for Active; 'I' for Inactive)
REMARK    1  A    between atoms: O_1  and  C_2 
REMARK    2  A    between atoms: C_8  and  C_5 
REMARK    3  A    between atoms: C_15  and  O_16 
ROOT
HETATM    1  C   UNK N   1      35.087  12.308  15.031  0.00  0.00     0.169 A 
HETATM    2  C   UNK N   1      34.492  11.174  14.188  0.00  0.00     0.121 A 
HETATM    3  C   UNK N   1      34.521  11.457  12.719  0.00  0.00     0.165 A 
HETATM    4  O   UNK N   1      34.072  10.623  11.946  0.00  0.00    -0.292 OA
HETATM    5  C   UNK N   1      35.081  12.721  12.207  0.00  0.00     0.043 A 
HETATM    6  C   UNK N   1      35.109  12.987  10.831  0.00  0.00     0.021 A 
HETATM    7  C   UNK N   1      35.643  14.189  10.358  0.00  0.00     0.037 A 
HETATM    8  C   UNK N   1      36.151  15.130  11.257  0.00  0.00     0.068 A 
HETATM    9  C   UNK N   1      36.126  14.871  12.627  0.00  0.00     0.074 A 
HETATM   10  C   UNK N   1      35.594  13.672  13.107  0.00  0.00     0.086 A 
HETATM   11  O   UNK N   1      35.585  13.452  14.437  0.00  0.00    -0.340 OA
ENDROOT
BRANCH   1  12
HETATM   12  C   UNK N   1      35.157  12.231  16.518  0.00  0.00    -0.028 A 
HETATM   13  C   UNK N   1      35.092  13.397  17.289  0.00  0.00     0.012 A 
HETATM   14  C   UNK N   1      35.158  13.320  18.681  0.00  0.00     0.037 A 
HETATM   15  C   UNK N   1      35.288  12.077  19.307  0.00  0.00     0.065 A 
HETATM   16  C   UNK N   1      35.354  10.910  18.541  0.00  0.00     0.037 A 
HETATM   17  C   UNK N   1      35.288  10.986  17.150  0.00  0.00     0.012 A 
BRANCH  15  18
HETATM   18  O   UNK N   1      35.351  12.006  20.645  0.00  0.00    -0.361 OA
HETATM   19  H   UNK N   1      34.962  11.282  21.095  0.00  0.00     0.217 HD
ENDBRANCH  15  18
ENDBRANCH   1  12
BRANCH   8  20
HETATM   20  O   UNK N   1      36.664  16.285  10.804  0.00  0.00    -0.361 OA
HETATM   21  H   UNK N   1      37.593  16.399  10.757  0.00  0.00     0.217 HD
ENDBRANCH   8  20
TORSDOF 3
ENDMDL
MODEL 4
REMARK VINA RESULT:      -6.9      4.748      6.793
REMARK  3 active torsions:
REMARK  status: ('A' for Active; 'I' for Inactive)
REMARK    1  A    between atoms: O_1  and  C_2 
REMARK    2  A    between atoms: C_8  and  C_5 
REMARK    3  A    between atoms: C_15  and  O_16 
ROOT
HETATM    1  C   UNK N   1      27.408  18.588   4.971  0.00  0.00     0.169 A 
HETATM    2  C   UNK N   1      28.421  17.720   4.216  0.00  0.00     0.121 A 
HETATM    3  C   UNK N   1      29.539  17.233   5.083  0.00  0.00     0.165 A 
HETATM    4  O   UNK N   1      30.409  16.531   4.589  0.00  0.00    -0.292 OA
HETATM    5  C   UNK N   1      29.595  17.593   6.512  0.00  0.00     0.043 A 
HETATM    6  C   UNK N   1      30.641  17.137   7.325  0.00  0.00     0.021 A 
HETATM    7  C   UNK N   1      30.683  17.485   8.678  0.00  0.00     0.037 A 
HETATM    8  C   UNK N   1      29.680  18.289   9.224  0.00  0.00     0.068 A 
HETATM    9  C   UNK N   1      28.636  18.745   8.420  0.00  0.00     0.074 A 
HETATM   10  C   UNK N   1      28.587  18.402   7.067  0.00  0.00     0.086 A 
HETATM   11  O   UNK N   1      27.565  18.859   6.317  0.00  0.00    -0.340 OA
ENDROOT
BRANCH   1  12
HETATM   12  C   UNK N   1      26.216  19.177   4.296  0.00  0.00    -0.028 A 
HETATM   13  C   UNK N   1      26.372  20.203   3.357  0.00  0.00     0.012 A 
HETATM   14  C   UNK N   1      25.253  20.750   2.727  0.00  0.00     0.037 A 
HETATM   15  C   UNK N   1      23.976  20.274   3.034  0.00  0.00     0.065 A 
HETATM   16  C   UNK N   1      23.816  19.250   3.971  0.00  0.00     0.037 A 
HETATM   17  C   UNK N   1      24.933  18.701   4.601  0.00  0.00     0.012 A 
BRANCH  15  18
HETATM   18  O   UNK N   1      22.901  20.802   2.427  0.00  0.00    -0.361 OA
HETATM   19  H   UNK N   1      22.121  20.294   2.329  0.00  0.00     0.217 HD
ENDBRANCH  15  18
ENDBRANCH   1  12
BRANCH   8  20
HETATM   20  O   UNK N   1      29.718  18.624  10.524  0.00  0.00    -0.361 OA
HETATM   21  H   UNK N   1      28.927  18.844  10.975  0.00  0.00     0.217 HD
ENDBRANCH   8  20
TORSDOF 3
ENDMDL
MODEL 5
REMARK VINA RESULT:      -6.7     12.135     15.507
REMARK  3 active torsions:
REMARK  status: ('A' for Active; 'I' for Inactive)
REMARK    1  A    between atoms: O_1  and  C_2 
REMARK    2  A    between atoms: C_8  and  C_5 
REMARK    3  A    between atoms: C_15  and  O_16 
ROOT
HETATM    1  C   UNK N   1      28.412  24.717  -4.699  0.00  0.00     0.169 A 
HETATM    2  C   UNK N   1      28.060  23.877  -5.931  0.00  0.00     0.121 A 
HETATM    3  C   UNK N   1      28.833  22.598  -6.012  0.00  0.00     0.165 A 
HETATM    4  O   UNK N   1      28.637  21.845  -6.953  0.00  0.00    -0.292 OA
HETATM    5  C   UNK N   1      29.819  22.249  -4.972  0.00  0.00     0.043 A 
HETATM    6  C   UNK N   1      30.544  21.052  -5.046  0.00  0.00     0.021 A 
HETATM    7  C   UNK N   1      31.475  20.731  -4.054  0.00  0.00     0.037 A 
HETATM    8  C   UNK N   1      31.686  21.605  -2.985  0.00  0.00     0.068 A 
HETATM    9  C   UNK N   1      30.968  22.798  -2.906  0.00  0.00     0.074 A 
HETATM   10  C   UNK N   1      30.035  23.125  -3.893  0.00  0.00     0.086 A 
HETATM   11  O   UNK N   1      29.357  24.285  -3.787  0.00  0.00    -0.340 OA
ENDROOT
BRANCH   1  12
HETATM   12  C   UNK N   1      27.758  26.029  -4.425  0.00  0.00    -0.028 A 
HETATM   13  C   UNK N   1      28.267  27.203  -4.992  0.00  0.00     0.012 A 
HETATM   14  C   UNK N   1      27.651  28.429  -4.733  0.00  0.00     0.037 A 
HETATM   15  C   UNK N   1      26.525  28.484  -3.908  0.00  0.00     0.065 A 
HETATM   16  C   UNK N   1      26.013  27.314  -3.341  0.00  0.00     0.037 A 
HETATM   17  C   UNK N   1      26.627  26.088  -3.599  0.00  0.00     0.012 A 
BRANCH  15  18
HETATM   18  O   UNK N   1      25.934  29.663  -3.661  0.00  0.00    -0.361 OA
HETATM   19  H   UNK N   1      25.038  29.691  -3.388  0.00  0.00     0.217 HD
ENDBRANCH  15  18
ENDBRANCH   1  12
BRANCH   8  20
HETATM   20  O   UNK N   1      32.580  21.299  -2.032  0.00  0.00    -0.361 OA
HETATM   21  H   UNK N   1      32.794  21.927  -1.370  0.00  0.00     0.217 HD
ENDBRANCH   8  20
TORSDOF 3
ENDMDL
MODEL 6
REMARK VINA RESULT:      -6.5     15.698     17.612
REMARK  3 active torsions:
REMARK  status: ('A' for Active; 'I' for Inactive)
REMARK    1  A    between atoms: O_1  and  C_2 
REMARK    2  A    between atoms: C_8  and  C_5 
REMARK    3  A    between atoms: C_15  and  O_16 
ROOT
HETATM    1  C   UNK N   1      26.486  24.027  -6.411  0.00  0.00     0.169 A 
HETATM    2  C   UNK N   1      25.541  23.557  -7.523  0.00  0.00     0.121 A 
HETATM    3  C   UNK N   1      26.025  22.326  -8.222  0.00  0.00     0.165 A 
HETATM    4  O   UNK N   1      25.353  21.858  -9.129  0.00  0.00    -0.292 OA
HETATM    5  C   UNK N   1      27.292  21.684  -7.827  0.00  0.00     0.043 A 
HETATM    6  C   UNK N   1      27.746  20.532  -8.481  0.00  0.00     0.021 A 
HETATM    7  C   UNK N   1      28.949  19.932  -8.098  0.00  0.00     0.037 A 
HETATM    8  C   UNK N   1      29.704  20.483  -7.058  0.00  0.00     0.068 A 
HETATM    9  C   UNK N   1      29.257  21.630  -6.403  0.00  0.00     0.074 A 
HETATM   10  C   UNK N   1      28.056  22.234  -6.781  0.00  0.00     0.086 A 
HETATM   11  O   UNK N   1      27.652  23.342  -6.128  0.00  0.00    -0.340 OA
ENDROOT
BRANCH   1  12
HETATM   12  C   UNK N   1      26.194  25.236  -5.587  0.00  0.00    -0.028 A 
HETATM   13  C   UNK N   1      25.417  26.275  -6.111  0.00  0.00     0.012 A 
HETATM   14  C   UNK N   1      25.146  27.405  -5.336  0.00  0.00     0.037 A 
HETATM   15  C   UNK N   1      25.651  27.498  -4.037  0.00  0.00     0.065 A 
HETATM   16  C   UNK N   1      26.427  26.462  -3.510  0.00  0.00     0.037 A 
HETATM   17  C   UNK N   1      26.698  25.333  -4.283  0.00  0.00     0.012 A 
BRANCH  15  18
HETATM   18  O   UNK N   1      25.390  28.584  -3.294  0.00  0.00    -0.361 OA
HETATM   19  H   UNK N   1      24.633  29.106  -3.476  0.00  0.00     0.217 HD
ENDBRANCH  15  18
ENDBRANCH   1  12
BRANCH   8  20
HETATM   20  O   UNK N   1      30.859  19.909  -6.688  0.00  0.00    -0.361 OA
HETATM   21  H   UNK N   1      31.384  19.460  -7.322  0.00  0.00     0.217 HD
ENDBRANCH   8  20
TORSDOF 3
ENDMDL
MODEL 7
REMARK VINA RESULT:      -6.5      2.590      6.395
REMARK  3 active torsions:
REMARK  status: ('A' for Active; 'I' for Inactive)
REMARK    1  A    between atoms: O_1  and  C_2 
REMARK    2  A    between atoms: C_8  and  C_5 
REMARK    3  A    between atoms: C_15  and  O_16 
ROOT
HETATM    1  C   UNK N   1      32.993  16.331   7.984  0.00  0.00     0.169 A 
HETATM    2  C   UNK N   1      32.964  16.416   6.454  0.00  0.00     0.121 A 
HETATM    3  C   UNK N   1      31.651  16.890   5.916  0.00  0.00     0.165 A 
HETATM    4  O   UNK N   1      31.509  16.997   4.707  0.00  0.00    -0.292 OA
HETATM    5  C   UNK N   1      30.541  17.224   6.828  0.00  0.00     0.043 A 
HETATM    6  C   UNK N   1      29.310  17.667   6.326  0.00  0.00     0.021 A 
HETATM    7  C   UNK N   1      28.265  17.981   7.200  0.00  0.00     0.037 A 
HETATM    8  C   UNK N   1      28.446  17.852   8.579  0.00  0.00     0.068 A 
HETATM    9  C   UNK N   1      29.669  17.411   9.085  0.00  0.00     0.074 A 
HETATM   10  C   UNK N   1      30.717  17.096   8.218  0.00  0.00     0.086 A 
HETATM   11  O   UNK N   1      31.886  16.672   8.738  0.00  0.00    -0.340 OA
ENDROOT
BRANCH   1  12
HETATM   12  C   UNK N   1      34.206  15.882   8.726  0.00  0.00    -0.028 A 
HETATM   13  C   UNK N   1      34.634  16.574   9.864  0.00  0.00     0.012 A 
HETATM   14  C   UNK N   1      35.770  16.150  10.556  0.00  0.00     0.037 A 
HETATM   15  C   UNK N   1      36.481  15.032  10.111  0.00  0.00     0.065 A 
HETATM   16  C   UNK N   1      36.057  14.338   8.975  0.00  0.00     0.037 A 
HETATM   17  C   UNK N   1      34.922  14.761   8.283  0.00  0.00     0.012 A 
BRANCH  15  18
HETATM   18  O   UNK N   1      37.573  14.626  10.777  0.00  0.00    -0.361 OA
HETATM   19  H   UNK N   1      38.400  14.584  10.340  0.00  0.00     0.217 HD
ENDBRANCH  15  18
ENDBRANCH   1  12
BRANCH   8  20
HETATM   20  O   UNK N   1      27.444  18.153   9.421  0.00  0.00    -0.361 OA
HETATM   21  H   UNK N   1      27.626  18.331  10.322  0.00  0.00     0.217 HD
ENDBRANCH   8  20
TORSDOF 3
ENDMDL
MODEL 8
REMARK VINA RESULT:      -6.4      7.614     11.970
REMARK  3 active torsions:
REMARK  status: ('A' for Active; 'I' for Inactive)
REMARK    1  A    between atoms: O_1  and  C_2 
REMARK    2  A    between atoms: C_8  and  C_5 
REMARK    3  A    between atoms: C_15  and  O_16 
ROOT
HETATM    1  C   UNK N   1      24.359  19.112   3.544  0.00  0.00     0.169 A 
HETATM    2  C   UNK N   1      23.861  20.483   3.074  0.00  0.00     0.121 A 
HETATM    3  C   UNK N   1      22.384  20.522   2.838  0.00  0.00     0.165 A 
HETATM    4  O   UNK N   1      21.871  21.565   2.460  0.00  0.00    -0.292 OA
HETATM    5  C   UNK N   1      21.555  19.322   3.056  0.00  0.00     0.043 A 
HETATM    6  C   UNK N   1      20.172  19.357   2.835  0.00  0.00     0.021 A 
HETATM    7  C   UNK N   1      19.396  18.213   3.045  0.00  0.00     0.037 A 
HETATM    8  C   UNK N   1      20.000  17.030   3.477  0.00  0.00     0.068 A 
HETATM    9  C   UNK N   1      21.377  16.988   3.698  0.00  0.00     0.074 A 
HETATM   10  C   UNK N   1      22.157  18.127   3.491  0.00  0.00     0.086 A 
HETATM   11  O   UNK N   1      23.485  18.055   3.714  0.00  0.00    -0.340 OA
ENDROOT
BRANCH   1  12
HETATM   12  C   UNK N   1      25.798  18.854   3.837  0.00  0.00    -0.028 A 
HETATM   13  C   UNK N   1      26.628  19.896   4.268  0.00  0.00     0.012 A 
HETATM   14  C   UNK N   1      27.974  19.650   4.542  0.00  0.00     0.037 A 
HETATM   15  C   UNK N   1      28.495  18.363   4.385  0.00  0.00     0.065 A 
HETATM   16  C   UNK N   1      27.670  17.320   3.956  0.00  0.00     0.037 A 
HETATM   17  C   UNK N   1      26.324  17.564   3.682  0.00  0.00     0.012 A 
BRANCH  15  18
HETATM   18  O   UNK N   1      29.790  18.129   4.649  0.00  0.00    -0.361 OA
HETATM   19  H   UNK N   1      30.453  18.469   4.081  0.00  0.00     0.217 HD
ENDBRANCH  15  18
ENDBRANCH   1  12
BRANCH   8  20
HETATM   20  O   UNK N   1      19.257  15.930   3.679  0.00  0.00    -0.361 OA
HETATM   21  H   UNK N   1      19.617  15.082   3.504  0.00  0.00     0.217 HD
ENDBRANCH   8  20
TORSDOF 3
ENDMDL
MODEL 9
REMARK VINA RESULT:      -6.4      5.138     10.392
REMARK  3 active torsions:
REMARK  status: ('A' for Active; 'I' for Inactive)
REMARK    1  A    between atoms: O_1  and  C_2 
REMARK    2  A    between atoms: C_8  and  C_5 
REMARK    3  A    between atoms: C_15  and  O_16 
ROOT
HETATM    1  C   UNK N   1      35.952  12.642  14.839  0.00  0.00     0.169 A 
HETATM    2  C   UNK N   1      36.840  11.536  14.257  0.00  0.00     0.121 A 
HETATM    3  C   UNK N   1      36.984  11.620  12.770  0.00  0.00     0.165 A 
HETATM    4  O   UNK N   1      37.670  10.789  12.194  0.00  0.00    -0.292 OA
HETATM    5  C   UNK N   1      36.309  12.686  12.008  0.00  0.00     0.043 A 
HETATM    6  C   UNK N   1      36.443  12.766  10.615  0.00  0.00     0.021 A 
HETATM    7  C   UNK N   1      35.799  13.782   9.903  0.00  0.00     0.037 A 
HETATM    8  C   UNK N   1      35.018  14.722  10.580  0.00  0.00     0.068 A 
HETATM    9  C   UNK N   1      34.881  14.648  11.966  0.00  0.00     0.074 A 
HETATM   10  C   UNK N   1      35.522  13.636  12.684  0.00  0.00     0.086 A 
HETATM   11  O   UNK N   1      35.369  13.592  14.022  0.00  0.00    -0.340 OA
ENDROOT
BRANCH   1  12
HETATM   12  C   UNK N   1      35.675  12.743  16.301  0.00  0.00    -0.028 A 
HETATM   13  C   UNK N   1      35.555  11.586  17.078  0.00  0.00     0.012 A 
HETATM   14  C   UNK N   1      35.296  11.686  18.446  0.00  0.00     0.037 A 
HETATM   15  C   UNK N   1      35.158  12.943  19.041  0.00  0.00     0.065 A 
HETATM   16  C   UNK N   1      35.278  14.101  18.268  0.00  0.00     0.037 A 
HETATM   17  C   UNK N   1      35.536  14.003  16.901  0.00  0.00     0.012 A 
BRANCH  15  18
HETATM   18  O   UNK N   1      34.909  13.037  20.356  0.00  0.00    -0.361 OA
HETATM   19  H   UNK N   1      34.197  13.563  20.663  0.00  0.00     0.217 HD
ENDBRANCH  15  18
ENDBRANCH   1  12
BRANCH   8  20
HETATM   20  O   UNK N   1      34.398  15.698   9.898  0.00  0.00    -0.361 OA
HETATM   21  H   UNK N   1      34.779  16.034   9.109  0.00  0.00     0.217 HD
ENDBRANCH   8  20
TORSDOF 3
ENDMDL
