MODEL 1
REMARK VINA RESULT:      -9.0      0.000      0.000
REMARK  23 active torsions:
REMARK  status: ('A' for Active; 'I' for Inactive)
REMARK    1  A    between atoms: C_43  and  C_11 
REMARK    2  A    between atoms: C_14  and  C_12 
REMARK    3  A    between atoms: C_20  and  C_14 
REMARK    4  A    between atoms: C_21  and  C_15 
REMARK    5  A    between atoms: C_35  and  C_20 
REMARK    6  A    between atoms: C_28  and  C_27 
REMARK    7  A    between atoms: C_38  and  C_27 
REMARK    8  A    between atoms: C_45  and  C_28 
REMARK    9  A    between atoms: C_42  and  C_32 
REMARK   10  A    between atoms: C_47  and  C_32 
REMARK   11  A    between atoms: C_49  and  C_33 
REMARK   12  A    between atoms: C_51  and  C_33 
REMARK   13  A    between atoms: C_52  and  C_34 
REMARK   14  A    between atoms: C_49  and  C_35 
REMARK   15  A    between atoms: C_50  and  C_36 
REMARK   16  A    between atoms: O_70  and  C_44 
REMARK   17  A    between atoms: C_48  and  O_71 
REMARK   18  A    between atoms: C_49  and  O_72 
REMARK   19  A    between atoms: C_53  and  O_73 
REMARK   20  A    between atoms: C_54  and  O_74 
REMARK   21  A    between atoms: O_75  and  C_55 
REMARK   22  A    between atoms: C_56  and  O_76 
REMARK   23  A    between atoms: C_57  and  O_77 
ROOT
HETATM    1  C   UNK N   1      34.153  16.268   6.924  0.00  0.00     0.015 C 
HETATM    2  C   UNK N   1      28.653  18.299   8.419  0.00  0.00     0.027 C 
HETATM    3  C   UNK N   1      30.130  18.341   8.559  0.00  0.00    -0.028 C 
HETATM    4  C   UNK N   1      28.095  17.231   7.806  0.00  0.00     0.007 C 
HETATM    5  C   UNK N   1      28.176  13.686   1.940  0.00  0.00     0.024 C 
HETATM    6  C   UNK N   1      28.970  14.995   1.851  0.00  0.00     0.038 C 
HETATM    7  C   UNK N   1      30.872  17.228   8.473  0.00  0.00     0.001 C 
HETATM    8  C   UNK N   1      28.689  16.780   6.461  0.00  0.00     0.037 C 
HETATM    9  C   UNK N   1      28.434  12.978   3.281  0.00  0.00     0.152 C 
HETATM   10  C   UNK N   1      32.913  15.962   7.754  0.00  0.00     0.044 C 
HETATM   11  C   UNK N   1      33.775  13.602   8.632  0.00  0.00     0.089 C 
HETATM   12  C   UNK N   1      28.708  15.924   3.074  0.00  0.00     0.199 C 
HETATM   13  C   UNK N   1      31.024  12.673   4.602  0.00  0.00     0.181 C 
HETATM   14  C   UNK N   1      32.329  17.329   8.185  0.00  0.00     0.146 C 
HETATM   15  C   UNK N   1      29.037  17.873   5.421  0.00  0.00     0.160 C 
HETATM   16  C   UNK N   1      34.454  11.934   5.985  0.00  0.00     0.161 C 
HETATM   17  C   UNK N   1      33.210  15.027   8.957  0.00  0.00     0.136 C 
HETATM   18  C   UNK N   1      35.005  13.678   7.754  0.00  0.00     0.118 C 
HETATM   19  C   UNK N   1      32.935  11.957   5.912  0.00  0.00     0.135 C 
HETATM   20  C   UNK N   1      30.108  13.832   4.891  0.00  0.00     0.261 C 
HETATM   21  C   UNK N   1      29.967  16.667   3.449  0.00  0.00     0.283 C 
HETATM   22  N   UNK N   1      32.369  12.820   5.140  0.00  0.00    -0.359 N 
ATOM     23  HN  UNK N   1      32.896  13.656   4.889  1.00  0.00     0.162 HD
HETATM   24  N   UNK N   1      35.174  13.025   6.645  0.00  0.00    -0.362 N 
ATOM     25  HN  UNK N   1      35.987  13.340   6.117  1.00  0.00     0.162 HD
HETATM   26  N   UNK N   1      28.238  15.172   4.255  0.00  0.00    -0.317 N 
HETATM   27  N   UNK N   1      28.900  13.951   4.244  0.00  0.00    -0.263 N 
HETATM   28  O   UNK N   1      30.483  14.710   5.645  0.00  0.00    -0.269 OA
HETATM   29  O   UNK N   1      31.000  16.474   2.822  0.00  0.00    -0.263 OA
HETATM   30  O   UNK N   1      30.009  17.523   4.496  0.00  0.00    -0.310 OA
HETATM   31  H   UNK N   1      27.558  15.488   4.945  0.00  0.00     0.181 HD
ENDROOT
BRANCH  15  32
HETATM   32  C   UNK N   1      27.917  18.716   4.885  0.00  0.00    -0.055 C 
HETATM   33  C   UNK N   1      27.942  20.170   5.263  0.00  0.00     0.046 C 
HETATM   34  C   UNK N   1      26.831  18.112   4.330  0.00  0.00     0.005 C 
BRANCH  34  35
HETATM   35  C   UNK N   1      25.456  18.642   4.436  0.00  0.00    -0.004 C 
HETATM   36  C   UNK N   1      24.896  19.227   3.357  0.00  0.00    -0.027 C 
BRANCH  36  37
HETATM   37  C   UNK N   1      23.644  20.023   3.405  0.00  0.00     0.027 C 
BRANCH  37  38
HETATM   38  C   UNK N   1      22.359  19.232   3.478  0.00  0.00     0.010 C 
BRANCH  38  39
HETATM   39  C   UNK N   1      21.229  19.635   2.523  0.00  0.00     0.011 C 
HETATM   40  C   UNK N   1      20.331  20.554   3.328  0.00  0.00     0.012 C 
BRANCH  39  41
HETATM   41  C   UNK N   1      20.402  18.427   2.019  0.00  0.00     0.124 C 
BRANCH  41  42
HETATM   42  C   UNK N   1      21.037  17.119   2.548  0.00  0.00     0.064 C 
BRANCH  42  43
HETATM   43  C   UNK N   1      20.419  16.219   3.641  0.00  0.00     0.133 C 
HETATM   44  C   UNK N   1      20.218  16.785   5.066  0.00  0.00     0.040 C 
HETATM   45  C   UNK N   1      19.167  15.944   5.797  0.00  0.00     0.015 C 
HETATM   46  C   UNK N   1      21.549  16.751   5.828  0.00  0.00     0.132 C 
HETATM   47  C   UNK N   1      22.107  15.322   5.801  0.00  0.00     0.067 C 
HETATM   48  C   UNK N   1      23.461  15.291   6.510  0.00  0.00     0.017 C 
HETATM   49  C   UNK N   1      22.206  14.771   4.335  0.00  0.00     0.145 C 
HETATM   50  C   UNK N   1      22.531  13.249   4.431  0.00  0.00     0.038 C 
HETATM   51  N   UNK N   1      23.248  15.481   3.592  0.00  0.00    -0.342 N 
HETATM   52  O   UNK N   1      20.968  14.905   3.635  0.00  0.00    -0.354 OA
HETATM   53  C   UNK N   1      21.333  12.433   4.895  0.00  0.00     0.015 C 
HETATM   54  C   UNK N   1      22.991  12.743   3.086  0.00  0.00     0.022 C 
HETATM   55  C   UNK N   1      24.306  13.434   2.729  0.00  0.00     0.060 C 
HETATM   56  C   UNK N   1      24.191  14.935   2.891  0.00  0.00     0.117 C 
ATOM     57  HN  UNK N   1      23.230  16.500   3.630  1.00  0.00     0.164 HD
BRANCH  46  58
HETATM   58  O   UNK N   1      21.360  17.178   7.147  0.00  0.00    -0.395 OA
HETATM   59  H   UNK N   1      21.923  16.894   7.884  0.00  0.00     0.210 HD
ENDBRANCH  46  58
BRANCH  55  60
HETATM   60  C   UNK N   1      24.698  13.059   1.304  0.00  0.00     0.008 C 
HETATM   61  C   UNK N   1      23.555  13.336   0.335  0.00  0.00     0.006 C 
ENDBRANCH  55  60
BRANCH  56  62
HETATM   62  O   UNK N   1      25.125  15.728   2.327  0.00  0.00    -0.349 OA
HETATM   63  H   UNK N   1      25.196  16.578   1.939  0.00  0.00     0.219 HD
ENDBRANCH  56  62
ENDBRANCH  42  43
ENDBRANCH  41  42
BRANCH  41  64
HETATM   64  O   UNK N   1      20.369  18.425   0.631  0.00  0.00    -0.395 OA
HETATM   65  H   UNK N   1      19.796  17.818   0.138  0.00  0.00     0.210 HD
ENDBRANCH  41  64
ENDBRANCH  39  41
ENDBRANCH  38  39
ENDBRANCH  37  38
ENDBRANCH  36  37
ENDBRANCH  34  35
ENDBRANCH  15  32
BRANCH  14  66
HETATM   66  O   UNK N   1      33.034  17.909   9.244  0.00  0.00    -0.391 OA
HETATM   67  H   UNK N   1      32.811  18.804   9.546  0.00  0.00     0.210 HD
ENDBRANCH  14  66
BRANCH  13  68
HETATM   68  C   UNK N   1      31.226  12.663   3.091  0.00  0.00     0.073 C 
BRANCH  68  69
HETATM   69  C   UNK N   1      31.848  11.410   2.615  0.00  0.00    -0.053 A 
HETATM   70  C   UNK N   1      33.058  11.419   1.916  0.00  0.00     0.007 A 
HETATM   71  C   UNK N   1      33.620  10.213   1.490  0.00  0.00     0.003 A 
HETATM   72  C   UNK N   1      32.973   9.003   1.771  0.00  0.00     0.036 A 
HETATM   73  C   UNK N   1      31.763   9.003   2.473  0.00  0.00     0.066 A 
HETATM   74  C   UNK N   1      31.202  10.206   2.890  0.00  0.00     0.043 A 
BRANCH  73  75
HETATM   75  O   UNK N   1      31.143   7.846   2.750  0.00  0.00    -0.361 OA
HETATM   76  H   UNK N   1      31.054   7.122   2.162  0.00  0.00     0.217 HD
ENDBRANCH  73  75
ENDBRANCH  68  69
ENDBRANCH  13  68
BRANCH  17  77
HETATM   77  O   UNK N   1      32.062  14.876   9.741  0.00  0.00    -0.394 OA
HETATM   78  H   UNK N   1      31.436  14.443  10.342  0.00  0.00     0.210 HD
ENDBRANCH  17  77
BRANCH  11  79
HETATM   79  C   UNK N   1      34.135  12.802   9.907  0.00  0.00     0.022 C 
BRANCH  79  80
HETATM   80  C   UNK N   1      34.343  11.279   9.801  0.00  0.00     0.079 C 
BRANCH  80  81
HETATM   81  C   UNK N   1      33.106  10.448   9.960  0.00  0.00     0.123 C 
HETATM   82  C   UNK N   1      33.121   9.207  10.783  0.00  0.00     0.091 C 
HETATM   83  O   UNK N   1      32.085  10.765   9.368  0.00  0.00    -0.298 OA
ENDBRANCH  80  81
ENDBRANCH  79  80
ENDBRANCH  11  79
BRANCH  19  84
HETATM   84  O   UNK N   1      32.221  10.930   6.430  0.00  0.00    -0.348 OA
HETATM   85  H   UNK N   1      32.007  10.226   7.010  0.00  0.00     0.219 HD
ENDBRANCH  19  84
BRANCH  18  86
HETATM   86  O   UNK N   1      35.996  14.504   8.144  0.00  0.00    -0.349 OA
HETATM   87  H   UNK N   1      36.880  14.350   8.415  0.00  0.00     0.219 HD
ENDBRANCH  18  86
BRANCH  16  88
HETATM   88  C   UNK N   1      35.035  10.573   6.432  0.00  0.00     0.008 C 
HETATM   89  C   UNK N   1      34.956   9.532   5.319  0.00  0.00     0.012 C 
HETATM   90  C   UNK N   1      36.510  10.715   6.786  0.00  0.00     0.012 C 
ENDBRANCH  16  88
TORSDOF 23
ENDMDL
MODEL 2
REMARK VINA RESULT:      -9.0      1.448      2.836
REMARK  23 active torsions:
REMARK  status: ('A' for Active; 'I' for Inactive)
REMARK    1  A    between atoms: C_43  and  C_11 
REMARK    2  A    between atoms: C_14  and  C_12 
REMARK    3  A    between atoms: C_20  and  C_14 
REMARK    4  A    between atoms: C_21  and  C_15 
REMARK    5  A    between atoms: C_35  and  C_20 
REMARK    6  A    between atoms: C_28  and  C_27 
REMARK    7  A    between atoms: C_38  and  C_27 
REMARK    8  A    between atoms: C_45  and  C_28 
REMARK    9  A    between atoms: C_42  and  C_32 
REMARK   10  A    between atoms: C_47  and  C_32 
REMARK   11  A    between atoms: C_49  and  C_33 
REMARK   12  A    between atoms: C_51  and  C_33 
REMARK   13  A    between atoms: C_52  and  C_34 
REMARK   14  A    between atoms: C_49  and  C_35 
REMARK   15  A    between atoms: C_50  and  C_36 
REMARK   16  A    between atoms: O_70  and  C_44 
REMARK   17  A    between atoms: C_48  and  O_71 
REMARK   18  A    between atoms: C_49  and  O_72 
REMARK   19  A    between atoms: C_53  and  O_73 
REMARK   20  A    between atoms: C_54  and  O_74 
REMARK   21  A    between atoms: O_75  and  C_55 
REMARK   22  A    between atoms: C_56  and  O_76 
REMARK   23  A    between atoms: C_57  and  O_77 
ROOT
HETATM    1  C   UNK N   1      34.053  16.293   6.800  0.00  0.00     0.015 C 
HETATM    2  C   UNK N   1      28.551  18.221   8.417  0.00  0.00     0.027 C 
HETATM    3  C   UNK N   1      30.029  18.292   8.524  0.00  0.00    -0.028 C 
HETATM    4  C   UNK N   1      27.999  17.142   7.817  0.00  0.00     0.007 C 
HETATM    5  C   UNK N   1      28.016  13.593   1.952  0.00  0.00     0.024 C 
HETATM    6  C   UNK N   1      28.783  14.918   1.845  0.00  0.00     0.038 C 
HETATM    7  C   UNK N   1      30.790  17.193   8.421  0.00  0.00     0.001 C 
HETATM    8  C   UNK N   1      28.571  16.701   6.459  0.00  0.00     0.037 C 
HETATM    9  C   UNK N   1      28.317  12.892   3.288  0.00  0.00     0.152 C 
HETATM   10  C   UNK N   1      32.838  15.964   7.658  0.00  0.00     0.044 C 
HETATM   11  C   UNK N   1      33.764  13.622   8.518  0.00  0.00     0.089 C 
HETATM   12  C   UNK N   1      28.531  15.842   3.073  0.00  0.00     0.199 C 
HETATM   13  C   UNK N   1      30.942  12.637   4.551  0.00  0.00     0.181 C 
HETATM   14  C   UNK N   1      32.238  17.320   8.101  0.00  0.00     0.146 C 
HETATM   15  C   UNK N   1      28.875  17.800   5.411  0.00  0.00     0.160 C 
HETATM   16  C   UNK N   1      34.415  11.964   5.858  0.00  0.00     0.161 C 
HETATM   17  C   UNK N   1      33.179  15.036   8.854  0.00  0.00     0.136 C 
HETATM   18  C   UNK N   1      34.973  13.720   7.612  0.00  0.00     0.118 C 
HETATM   19  C   UNK N   1      32.894  11.959   5.818  0.00  0.00     0.135 C 
HETATM   20  C   UNK N   1      30.011  13.778   4.860  0.00  0.00     0.261 C 
HETATM   21  C   UNK N   1      29.784  16.610   3.420  0.00  0.00     0.283 C 
HETATM   22  N   UNK N   1      32.295  12.810   5.059  0.00  0.00    -0.359 N 
ATOM     23  HN  UNK N   1      32.801  13.655   4.796  1.00  0.00     0.162 HD
HETATM   24  N   UNK N   1      35.129  13.070   6.500  0.00  0.00    -0.362 N 
ATOM     25  HN  UNK N   1      35.924  13.400   5.954  1.00  0.00     0.162 HD
HETATM   26  N   UNK N   1      28.101  15.082   4.265  0.00  0.00    -0.317 N 
HETATM   27  N   UNK N   1      28.786  13.875   4.240  0.00  0.00    -0.263 N 
HETATM   28  O   UNK N   1      30.386  14.664   5.604  0.00  0.00    -0.269 OA
HETATM   29  O   UNK N   1      30.806  16.435   2.770  0.00  0.00    -0.263 OA
HETATM   30  O   UNK N   1      29.833  17.467   4.465  0.00  0.00    -0.310 OA
HETATM   31  H   UNK N   1      27.431  15.386   4.970  0.00  0.00     0.181 HD
ENDROOT
BRANCH  15  32
HETATM   32  C   UNK N   1      27.728  18.621   4.900  0.00  0.00    -0.055 C 
HETATM   33  C   UNK N   1      27.852  20.109   5.067  0.00  0.00     0.046 C 
HETATM   34  C   UNK N   1      26.561  18.005   4.568  0.00  0.00     0.005 C 
BRANCH  34  35
HETATM   35  C   UNK N   1      25.229  18.616   4.761  0.00  0.00    -0.004 C 
HETATM   36  C   UNK N   1      24.359  18.630   3.729  0.00  0.00    -0.027 C 
BRANCH  36  37
HETATM   37  C   UNK N   1      23.112  19.433   3.711  0.00  0.00     0.027 C 
BRANCH  37  38
HETATM   38  C   UNK N   1      21.896  18.782   4.327  0.00  0.00     0.010 C 
BRANCH  38  39
HETATM   39  C   UNK N   1      21.178  17.708   3.501  0.00  0.00     0.011 C 
HETATM   40  C   UNK N   1      20.197  18.463   2.626  0.00  0.00     0.012 C 
BRANCH  39  41
HETATM   41  C   UNK N   1      20.403  16.690   4.374  0.00  0.00     0.124 C 
BRANCH  41  42
HETATM   42  C   UNK N   1      21.284  15.441   4.604  0.00  0.00     0.064 C 
BRANCH  42  43
HETATM   43  C   UNK N   1      22.801  15.367   4.314  0.00  0.00     0.133 C 
HETATM   44  C   UNK N   1      23.294  14.680   3.019  0.00  0.00     0.040 C 
HETATM   45  C   UNK N   1      24.711  15.166   2.702  0.00  0.00     0.015 C 
HETATM   46  C   UNK N   1      23.283  13.158   3.206  0.00  0.00     0.132 C 
HETATM   47  C   UNK N   1      24.104  12.798   4.451  0.00  0.00     0.067 C 
HETATM   48  C   UNK N   1      24.052  11.287   4.675  0.00  0.00     0.017 C 
HETATM   49  C   UNK N   1      23.614  13.591   5.712  0.00  0.00     0.145 C 
HETATM   50  C   UNK N   1      24.658  13.355   6.845  0.00  0.00     0.038 C 
HETATM   51  N   UNK N   1      22.287  13.127   6.122  0.00  0.00    -0.342 N 
HETATM   52  O   UNK N   1      23.554  14.996   5.464  0.00  0.00    -0.354 OA
HETATM   53  C   UNK N   1      25.956  14.113   6.598  0.00  0.00     0.015 C 
HETATM   54  C   UNK N   1      24.075  13.782   8.170  0.00  0.00     0.022 C 
HETATM   55  C   UNK N   1      22.889  12.874   8.495  0.00  0.00     0.060 C 
HETATM   56  C   UNK N   1      21.933  12.791   7.323  0.00  0.00     0.117 C 
ATOM     57  HN  UNK N   1      21.574  13.063   5.395  1.00  0.00     0.164 HD
BRANCH  46  58
HETATM   58  O   UNK N   1      23.811  12.530   2.072  0.00  0.00    -0.395 OA
HETATM   59  H   UNK N   1      24.705  12.702   1.737  0.00  0.00     0.210 HD
ENDBRANCH  46  58
BRANCH  55  60
HETATM   60  C   UNK N   1      22.188  13.395   9.744  0.00  0.00     0.008 C 
HETATM   61  C   UNK N   1      22.165  12.333  10.837  0.00  0.00     0.006 C 
ENDBRANCH  55  60
BRANCH  56  62
HETATM   62  O   UNK N   1      20.690  12.309   7.524  0.00  0.00    -0.349 OA
HETATM   63  H   UNK N   1      19.862  12.594   7.857  0.00  0.00     0.219 HD
ENDBRANCH  56  62
ENDBRANCH  42  43
ENDBRANCH  41  42
BRANCH  41  64
HETATM   64  O   UNK N   1      19.215  16.340   3.746  0.00  0.00    -0.395 OA
HETATM   65  H   UNK N   1      19.148  15.543   3.196  0.00  0.00     0.210 HD
ENDBRANCH  41  64
ENDBRANCH  39  41
ENDBRANCH  38  39
ENDBRANCH  37  38
ENDBRANCH  36  37
ENDBRANCH  34  35
ENDBRANCH  15  32
BRANCH  14  66
HETATM   66  O   UNK N   1      32.955  17.915   9.144  0.00  0.00    -0.391 OA
HETATM   67  H   UNK N   1      33.049  18.880   9.184  0.00  0.00     0.210 HD
ENDBRANCH  14  66
BRANCH  13  68
HETATM   68  C   UNK N   1      31.110  12.629   3.036  0.00  0.00     0.073 C 
BRANCH  68  69
HETATM   69  C   UNK N   1      31.660  11.351   2.537  0.00  0.00    -0.053 A 
HETATM   70  C   UNK N   1      32.909  11.293   1.912  0.00  0.00     0.007 A 
HETATM   71  C   UNK N   1      33.400  10.065   1.462  0.00  0.00     0.003 A 
HETATM   72  C   UNK N   1      32.644   8.901   1.646  0.00  0.00     0.036 A 
HETATM   73  C   UNK N   1      31.396   8.968   2.276  0.00  0.00     0.066 A 
HETATM   74  C   UNK N   1      30.906  10.193   2.716  0.00  0.00     0.043 A 
BRANCH  73  75
HETATM   75  O   UNK N   1      30.671   7.854   2.460  0.00  0.00    -0.361 OA
HETATM   76  H   UNK N   1      30.571   7.161   1.838  0.00  0.00     0.217 HD
ENDBRANCH  73  75
ENDBRANCH  68  69
ENDBRANCH  13  68
BRANCH  17  77
HETATM   77  O   UNK N   1      32.052  14.864   9.664  0.00  0.00    -0.394 OA
HETATM   78  H   UNK N   1      31.467  14.438  10.310  0.00  0.00     0.210 HD
ENDBRANCH  17  77
BRANCH  11  79
HETATM   79  C   UNK N   1      34.167  12.830   9.785  0.00  0.00     0.022 C 
BRANCH  79  80
HETATM   80  C   UNK N   1      34.363  11.305   9.684  0.00  0.00     0.079 C 
BRANCH  80  81
HETATM   81  C   UNK N   1      33.132  10.482   9.920  0.00  0.00     0.123 C 
HETATM   82  C   UNK N   1      33.162   9.313  10.843  0.00  0.00     0.091 C 
HETATM   83  O   UNK N   1      32.106  10.742   9.311  0.00  0.00    -0.298 OA
ENDBRANCH  80  81
ENDBRANCH  79  80
ENDBRANCH  11  79
BRANCH  19  84
HETATM   84  O   UNK N   1      32.212  10.919   6.353  0.00  0.00    -0.348 OA
HETATM   85  H   UNK N   1      31.680  10.149   6.376  0.00  0.00     0.219 HD
ENDBRANCH  19  84
BRANCH  18  86
HETATM   86  O   UNK N   1      35.956  14.565   7.980  0.00  0.00    -0.349 OA
HETATM   87  H   UNK N   1      35.948  15.397   8.412  0.00  0.00     0.219 HD
ENDBRANCH  18  86
BRANCH  16  88
HETATM   88  C   UNK N   1      35.031  10.615   6.291  0.00  0.00     0.008 C 
HETATM   89  C   UNK N   1      35.002   9.590   5.162  0.00  0.00     0.012 C 
HETATM   90  C   UNK N   1      36.496  10.796   6.671  0.00  0.00     0.012 C 
ENDBRANCH  16  88
TORSDOF 23
ENDMDL
MODEL 3
REMARK VINA RESULT:      -8.7      2.742      4.732
REMARK  23 active torsions:
REMARK  status: ('A' for Active; 'I' for Inactive)
REMARK    1  A    between atoms: C_43  and  C_11 
REMARK    2  A    between atoms: C_14  and  C_12 
REMARK    3  A    between atoms: C_20  and  C_14 
REMARK    4  A    between atoms: C_21  and  C_15 
REMARK    5  A    between atoms: C_35  and  C_20 
REMARK    6  A    between atoms: C_28  and  C_27 
REMARK    7  A    between atoms: C_38  and  C_27 
REMARK    8  A    between atoms: C_45  and  C_28 
REMARK    9  A    between atoms: C_42  and  C_32 
REMARK   10  A    between atoms: C_47  and  C_32 
REMARK   11  A    between atoms: C_49  and  C_33 
REMARK   12  A    between atoms: C_51  and  C_33 
REMARK   13  A    between atoms: C_52  and  C_34 
REMARK   14  A    between atoms: C_49  and  C_35 
REMARK   15  A    between atoms: C_50  and  C_36 
REMARK   16  A    between atoms: O_70  and  C_44 
REMARK   17  A    between atoms: C_48  and  O_71 
REMARK   18  A    between atoms: C_49  and  O_72 
REMARK   19  A    between atoms: C_53  and  O_73 
REMARK   20  A    between atoms: C_54  and  O_74 
REMARK   21  A    between atoms: O_75  and  C_55 
REMARK   22  A    between atoms: C_56  and  O_76 
REMARK   23  A    between atoms: C_57  and  O_77 
ROOT
HETATM    1  C   UNK N   1      37.010  14.489   9.552  0.00  0.00     0.015 C 
HETATM    2  C   UNK N   1      31.864  17.285   8.032  0.00  0.00     0.027 C 
HETATM    3  C   UNK N   1      33.190  17.289   8.699  0.00  0.00    -0.028 C 
HETATM    4  C   UNK N   1      31.330  16.098   7.668  0.00  0.00     0.007 C 
HETATM    5  C   UNK N   1      32.590  10.505   3.911  0.00  0.00     0.024 C 
HETATM    6  C   UNK N   1      33.621  11.617   3.680  0.00  0.00     0.038 C 
HETATM    7  C   UNK N   1      33.675  16.190   9.296  0.00  0.00     0.001 C 
HETATM    8  C   UNK N   1      32.224  15.111   6.899  0.00  0.00     0.037 C 
HETATM    9  C   UNK N   1      32.246  10.378   5.405  0.00  0.00     0.152 C 
HETATM   10  C   UNK N   1      35.532  14.618   9.898  0.00  0.00     0.044 C 
HETATM   11  C   UNK N   1      35.557  12.758  11.802  0.00  0.00     0.089 C 
HETATM   12  C   UNK N   1      33.170  12.972   4.304  0.00  0.00     0.199 C 
HETATM   13  C   UNK N   1      34.142  10.467   7.628  0.00  0.00     0.181 C 
HETATM   14  C   UNK N   1      35.133  16.077   9.568  0.00  0.00     0.146 C 
HETATM   15  C   UNK N   1      33.109  15.673   5.759  0.00  0.00     0.160 C 
HETATM   16  C   UNK N   1      36.704  10.132  10.375  0.00  0.00     0.161 C 
HETATM   17  C   UNK N   1      35.222  14.226  11.367  0.00  0.00     0.136 C 
HETATM   18  C   UNK N   1      36.994  12.400  11.491  0.00  0.00     0.118 C 
HETATM   19  C   UNK N   1      35.331  10.218   9.726  0.00  0.00     0.135 C 
HETATM   20  C   UNK N   1      33.440  11.699   7.123  0.00  0.00     0.261 C 
HETATM   21  C   UNK N   1      34.362  13.724   4.845  0.00  0.00     0.283 C 
HETATM   22  N   UNK N   1      35.237  10.733   8.549  0.00  0.00    -0.359 N 
ATOM     23  HN  UNK N   1      35.977  11.365   8.243  1.00  0.00     0.162 HD
HETATM   24  N   UNK N   1      37.377  11.349  10.833  0.00  0.00    -0.362 N 
ATOM     25  HN  UNK N   1      38.365  11.376  10.580  1.00  0.00     0.162 HD
HETATM   26  N   UNK N   1      32.197  12.786   5.399  0.00  0.00    -0.317 N 
HETATM   27  N   UNK N   1      32.561  11.625   6.067  0.00  0.00    -0.263 N 
HETATM   28  O   UNK N   1      33.721  12.780   7.605  0.00  0.00    -0.269 OA
HETATM   29  O   UNK N   1      35.481  13.232   4.768  0.00  0.00    -0.263 OA
HETATM   30  O   UNK N   1      34.235  14.923   5.459  0.00  0.00    -0.310 OA
HETATM   31  H   UNK N   1      31.409  13.393   5.621  0.00  0.00     0.181 HD
ENDROOT
BRANCH  15  32
HETATM   32  C   UNK N   1      32.423  16.299   4.579  0.00  0.00    -0.055 C 
HETATM   33  C   UNK N   1      33.025  17.576   4.065  0.00  0.00     0.046 C 
HETATM   34  C   UNK N   1      31.191  15.856   4.210  0.00  0.00     0.005 C 
BRANCH  34  35
HETATM   35  C   UNK N   1      30.141  16.731   3.647  0.00  0.00    -0.004 C 
HETATM   36  C   UNK N   1      29.285  17.348   4.488  0.00  0.00    -0.027 C 
BRANCH  36  37
HETATM   37  C   UNK N   1      28.043  18.030   4.048  0.00  0.00     0.027 C 
BRANCH  37  38
HETATM   38  C   UNK N   1      27.410  18.967   5.051  0.00  0.00     0.010 C 
BRANCH  38  39
HETATM   39  C   UNK N   1      26.888  20.310   4.528  0.00  0.00     0.011 C 
HETATM   40  C   UNK N   1      27.020  21.273   5.692  0.00  0.00     0.012 C 
BRANCH  39  41
HETATM   41  C   UNK N   1      25.407  20.251   4.081  0.00  0.00     0.124 C 
BRANCH  41  42
HETATM   42  C   UNK N   1      24.714  19.053   4.771  0.00  0.00     0.064 C 
BRANCH  42  43
HETATM   43  C   UNK N   1      23.527  18.261   4.177  0.00  0.00     0.133 C 
HETATM   44  C   UNK N   1      22.113  18.452   4.774  0.00  0.00     0.040 C 
HETATM   45  C   UNK N   1      21.071  17.998   3.748  0.00  0.00     0.015 C 
HETATM   46  C   UNK N   1      21.982  17.632   6.063  0.00  0.00     0.132 C 
HETATM   47  C   UNK N   1      22.339  16.169   5.768  0.00  0.00     0.067 C 
HETATM   48  C   UNK N   1      22.263  15.355   7.060  0.00  0.00     0.017 C 
HETATM   49  C   UNK N   1      23.745  16.046   5.084  0.00  0.00     0.145 C 
HETATM   50  C   UNK N   1      23.899  14.574   4.596  0.00  0.00     0.038 C 
HETATM   51  N   UNK N   1      24.805  16.395   6.032  0.00  0.00    -0.342 N 
HETATM   52  O   UNK N   1      23.853  16.895   3.940  0.00  0.00    -0.354 OA
HETATM   53  C   UNK N   1      23.035  14.278   3.378  0.00  0.00     0.015 C 
HETATM   54  C   UNK N   1      25.344  14.299   4.261  0.00  0.00     0.022 C 
HETATM   55  C   UNK N   1      26.170  14.407   5.543  0.00  0.00     0.060 C 
HETATM   56  C   UNK N   1      25.872  15.700   6.272  0.00  0.00     0.117 C 
ATOM     57  HN  UNK N   1      24.693  17.266   6.551  1.00  0.00     0.164 HD
BRANCH  46  58
HETATM   58  O   UNK N   1      20.678  17.727   6.563  0.00  0.00    -0.395 OA
HETATM   59  H   UNK N   1      20.381  17.266   7.364  0.00  0.00     0.210 HD
ENDBRANCH  46  58
BRANCH  55  60
HETATM   60  C   UNK N   1      27.650  14.296   5.196  0.00  0.00     0.008 C 
HETATM   61  C   UNK N   1      27.840  13.991   3.715  0.00  0.00     0.006 C 
ENDBRANCH  55  60
BRANCH  56  62
HETATM   62  O   UNK N   1      26.718  16.120   7.234  0.00  0.00    -0.349 OA
HETATM   63  H   UNK N   1      27.549  16.545   7.315  0.00  0.00     0.219 HD
ENDBRANCH  56  62
ENDBRANCH  42  43
ENDBRANCH  41  42
BRANCH  41  64
HETATM   64  O   UNK N   1      25.337  20.125   2.700  0.00  0.00    -0.395 OA
HETATM   65  H   UNK N   1      24.759  20.693   2.167  0.00  0.00     0.210 HD
ENDBRANCH  41  64
ENDBRANCH  39  41
ENDBRANCH  38  39
ENDBRANCH  37  38
ENDBRANCH  36  37
ENDBRANCH  34  35
ENDBRANCH  15  32
BRANCH  14  66
HETATM   66  O   UNK N   1      35.558  16.987  10.541  0.00  0.00    -0.391 OA
HETATM   67  H   UNK N   1      36.458  16.936  10.898  0.00  0.00     0.210 HD
ENDBRANCH  14  66
BRANCH  13  68
HETATM   68  C   UNK N   1      34.819   9.841   6.414  0.00  0.00     0.073 C 
BRANCH  68  69
HETATM   69  C   UNK N   1      35.232   8.443   6.659  0.00  0.00    -0.053 A 
HETATM   70  C   UNK N   1      36.554   8.032   6.463  0.00  0.00     0.007 A 
HETATM   71  C   UNK N   1      36.908   6.704   6.714  0.00  0.00     0.003 A 
HETATM   72  C   UNK N   1      35.943   5.796   7.167  0.00  0.00     0.036 A 
HETATM   73  C   UNK N   1      34.623   6.218   7.363  0.00  0.00     0.066 A 
HETATM   74  C   UNK N   1      34.270   7.538   7.104  0.00  0.00     0.043 A 
BRANCH  73  75
HETATM   75  O   UNK N   1      33.696   5.354   7.802  0.00  0.00    -0.361 OA
HETATM   76  H   UNK N   1      33.710   4.426   7.671  0.00  0.00     0.217 HD
ENDBRANCH  73  75
ENDBRANCH  68  69
ENDBRANCH  13  68
BRANCH  17  77
HETATM   77  O   UNK N   1      33.875  14.473  11.655  0.00  0.00    -0.394 OA
HETATM   78  H   UNK N   1      32.933  14.278  11.777  0.00  0.00     0.210 HD
ENDBRANCH  17  77
BRANCH  11  79
HETATM   79  C   UNK N   1      35.309  12.515  13.309  0.00  0.00     0.022 C 
BRANCH  79  80
HETATM   80  C   UNK N   1      35.302  11.069  13.843  0.00  0.00     0.079 C 
BRANCH  80  81
HETATM   81  C   UNK N   1      34.254  10.769  14.873  0.00  0.00     0.123 C 
HETATM   82  C   UNK N   1      34.637  10.319  16.241  0.00  0.00     0.091 C 
HETATM   83  O   UNK N   1      33.073  10.848  14.574  0.00  0.00    -0.298 OA
ENDBRANCH  80  81
ENDBRANCH  79  80
ENDBRANCH  11  79
BRANCH  19  84
HETATM   84  O   UNK N   1      34.292   9.531  10.257  0.00  0.00    -0.348 OA
HETATM   85  H   UNK N   1      33.836   8.815  10.652  0.00  0.00     0.219 HD
ENDBRANCH  19  84
BRANCH  18  86
HETATM   86  O   UNK N   1      37.950  13.250  11.914  0.00  0.00    -0.349 OA
HETATM   87  H   UNK N   1      38.055  13.744  12.703  0.00  0.00     0.219 HD
ENDBRANCH  18  86
BRANCH  16  88
HETATM   88  C   UNK N   1      36.815   9.030  11.453  0.00  0.00     0.008 C 
HETATM   89  C   UNK N   1      36.882   7.637  10.834  0.00  0.00     0.012 C 
HETATM   90  C   UNK N   1      38.094   9.204  12.262  0.00  0.00     0.012 C 
ENDBRANCH  16  88
TORSDOF 23
ENDMDL
MODEL 4
REMARK VINA RESULT:      -8.5      1.426      2.959
REMARK  23 active torsions:
REMARK  status: ('A' for Active; 'I' for Inactive)
REMARK    1  A    between atoms: C_43  and  C_11 
REMARK    2  A    between atoms: C_14  and  C_12 
REMARK    3  A    between atoms: C_20  and  C_14 
REMARK    4  A    between atoms: C_21  and  C_15 
REMARK    5  A    between atoms: C_35  and  C_20 
REMARK    6  A    between atoms: C_28  and  C_27 
REMARK    7  A    between atoms: C_38  and  C_27 
REMARK    8  A    between atoms: C_45  and  C_28 
REMARK    9  A    between atoms: C_42  and  C_32 
REMARK   10  A    between atoms: C_47  and  C_32 
REMARK   11  A    between atoms: C_49  and  C_33 
REMARK   12  A    between atoms: C_51  and  C_33 
REMARK   13  A    between atoms: C_52  and  C_34 
REMARK   14  A    between atoms: C_49  and  C_35 
REMARK   15  A    between atoms: C_50  and  C_36 
REMARK   16  A    between atoms: O_70  and  C_44 
REMARK   17  A    between atoms: C_48  and  O_71 
REMARK   18  A    between atoms: C_49  and  O_72 
REMARK   19  A    between atoms: C_53  and  O_73 
REMARK   20  A    between atoms: C_54  and  O_74 
REMARK   21  A    between atoms: O_75  and  C_55 
REMARK   22  A    between atoms: C_56  and  O_76 
REMARK   23  A    between atoms: C_57  and  O_77 
ROOT
HETATM    1  C   UNK N   1      33.915  16.603   6.790  0.00  0.00     0.015 C 
HETATM    2  C   UNK N   1      28.325  18.301   8.364  0.00  0.00     0.027 C 
HETATM    3  C   UNK N   1      29.798  18.453   8.460  0.00  0.00    -0.028 C 
HETATM    4  C   UNK N   1      27.829  17.172   7.809  0.00  0.00     0.007 C 
HETATM    5  C   UNK N   1      28.009  13.407   2.084  0.00  0.00     0.024 C 
HETATM    6  C   UNK N   1      28.705  14.764   1.922  0.00  0.00     0.038 C 
HETATM    7  C   UNK N   1      30.615  17.392   8.395  0.00  0.00     0.001 C 
HETATM    8  C   UNK N   1      28.418  16.711   6.466  0.00  0.00     0.037 C 
HETATM    9  C   UNK N   1      28.352  12.774   3.444  0.00  0.00     0.152 C 
HETATM   10  C   UNK N   1      32.721  16.245   7.666  0.00  0.00     0.044 C 
HETATM   11  C   UNK N   1      33.773  13.989   8.610  0.00  0.00     0.089 C 
HETATM   12  C   UNK N   1      28.409  15.721   3.116  0.00  0.00     0.199 C 
HETATM   13  C   UNK N   1      30.991  12.706   4.701  0.00  0.00     0.181 C 
HETATM   14  C   UNK N   1      32.053  17.583   8.061  0.00  0.00     0.146 C 
HETATM   15  C   UNK N   1      28.660  17.783   5.375  0.00  0.00     0.160 C 
HETATM   16  C   UNK N   1      34.500  12.266   6.011  0.00  0.00     0.161 C 
HETATM   17  C   UNK N   1      33.116  15.383   8.896  0.00  0.00     0.136 C 
HETATM   18  C   UNK N   1      34.971  14.115   7.694  0.00  0.00     0.118 C 
HETATM   19  C   UNK N   1      32.981  12.180   5.981  0.00  0.00     0.135 C 
HETATM   20  C   UNK N   1      30.002  13.808   4.971  0.00  0.00     0.261 C 
HETATM   21  C   UNK N   1      29.621  16.566   3.425  0.00  0.00     0.283 C 
HETATM   22  N   UNK N   1      32.335  12.968   5.193  0.00  0.00    -0.359 N 
ATOM     23  HN  UNK N   1      32.795  13.829   4.895  1.00  0.00     0.162 HD
HETATM   24  N   UNK N   1      35.157  13.432   6.607  0.00  0.00    -0.362 N 
ATOM     25  HN  UNK N   1      35.932  13.782   6.044  1.00  0.00     0.162 HD
HETATM   26  N   UNK N   1      28.025  14.986   4.338  0.00  0.00    -0.317 N 
HETATM   27  N   UNK N   1      28.772  13.816   4.355  0.00  0.00    -0.263 N 
HETATM   28  O   UNK N   1      30.334  14.740   5.679  0.00  0.00    -0.269 OA
HETATM   29  O   UNK N   1      30.649  16.420   2.777  0.00  0.00    -0.263 OA
HETATM   30  O   UNK N   1      29.629  17.464   4.437  0.00  0.00    -0.310 OA
HETATM   31  H   UNK N   1      27.342  15.281   5.035  0.00  0.00     0.181 HD
ENDROOT
BRANCH  15  32
HETATM   32  C   UNK N   1      27.469  18.522   4.839  0.00  0.00    -0.055 C 
HETATM   33  C   UNK N   1      27.584  20.020   4.794  0.00  0.00     0.046 C 
HETATM   34  C   UNK N   1      26.289  17.863   4.677  0.00  0.00     0.005 C 
BRANCH  34  35
HETATM   35  C   UNK N   1      24.966  18.489   4.880  0.00  0.00    -0.004 C 
HETATM   36  C   UNK N   1      23.855  17.742   4.707  0.00  0.00    -0.027 C 
BRANCH  36  37
HETATM   37  C   UNK N   1      22.486  18.307   4.622  0.00  0.00     0.027 C 
BRANCH  37  38
HETATM   38  C   UNK N   1      22.226  19.242   3.464  0.00  0.00     0.010 C 
BRANCH  38  39
HETATM   39  C   UNK N   1      20.995  18.961   2.595  0.00  0.00     0.011 C 
HETATM   40  C   UNK N   1      20.072  20.145   2.810  0.00  0.00     0.012 C 
BRANCH  39  41
HETATM   41  C   UNK N   1      20.256  17.660   2.994  0.00  0.00     0.124 C 
BRANCH  41  42
HETATM   42  C   UNK N   1      20.410  16.619   1.861  0.00  0.00     0.064 C 
BRANCH  42  43
HETATM   43  C   UNK N   1      21.487  15.511   1.824  0.00  0.00     0.133 C 
HETATM   44  C   UNK N   1      21.293  14.295   0.888  0.00  0.00     0.040 C 
HETATM   45  C   UNK N   1      22.651  13.632   0.638  0.00  0.00     0.015 C 
HETATM   46  C   UNK N   1      20.325  13.296   1.534  0.00  0.00     0.132 C 
HETATM   47  C   UNK N   1      20.840  12.927   2.931  0.00  0.00     0.067 C 
HETATM   48  C   UNK N   1      19.852  11.974   3.603  0.00  0.00     0.017 C 
HETATM   49  C   UNK N   1      21.101  14.205   3.803  0.00  0.00     0.145 C 
HETATM   50  C   UNK N   1      21.855  13.745   5.088  0.00  0.00     0.038 C 
HETATM   51  N   UNK N   1      19.835  14.855   4.147  0.00  0.00    -0.342 N 
HETATM   52  O   UNK N   1      21.934  15.146   3.126  0.00  0.00    -0.354 OA
HETATM   53  C   UNK N   1      23.304  13.372   4.803  0.00  0.00     0.015 C 
HETATM   54  C   UNK N   1      21.816  14.845   6.120  0.00  0.00     0.022 C 
HETATM   55  C   UNK N   1      20.364  15.068   6.540  0.00  0.00     0.060 C 
HETATM   56  C   UNK N   1      19.469  15.235   5.330  0.00  0.00     0.117 C 
ATOM     57  HN  UNK N   1      19.181  15.026   3.383  1.00  0.00     0.164 HD
BRANCH  46  58
HETATM   58  O   UNK N   1      20.212  12.151   0.736  0.00  0.00    -0.395 OA
HETATM   59  H   UNK N   1      20.505  11.272   1.022  0.00  0.00     0.210 HD
ENDBRANCH  46  58
BRANCH  55  60
HETATM   60  C   UNK N   1      20.289  16.284   7.456  0.00  0.00     0.008 C 
HETATM   61  C   UNK N   1      19.796  15.891   8.844  0.00  0.00     0.006 C 
ENDBRANCH  55  60
BRANCH  56  62
HETATM   62  O   UNK N   1      18.234  15.751   5.495  0.00  0.00    -0.349 OA
HETATM   63  H   UNK N   1      17.517  15.702   6.095  0.00  0.00     0.219 HD
ENDBRANCH  56  62
ENDBRANCH  42  43
ENDBRANCH  41  42
BRANCH  41  64
HETATM   64  O   UNK N   1      18.915  17.933   3.225  0.00  0.00    -0.395 OA
HETATM   65  H   UNK N   1      18.315  18.177   2.503  0.00  0.00     0.210 HD
ENDBRANCH  41  64
ENDBRANCH  39  41
ENDBRANCH  38  39
ENDBRANCH  37  38
ENDBRANCH  36  37
ENDBRANCH  34  35
ENDBRANCH  15  32
BRANCH  14  66
HETATM   66  O   UNK N   1      32.742  18.254   9.076  0.00  0.00    -0.391 OA
HETATM   67  H   UNK N   1      32.515  18.098  10.006  0.00  0.00     0.210 HD
ENDBRANCH  14  66
BRANCH  13  68
HETATM   68  C   UNK N   1      31.153  12.649   3.186  0.00  0.00     0.073 C 
BRANCH  68  69
HETATM   69  C   UNK N   1      31.815  11.406   2.737  0.00  0.00    -0.053 A 
HETATM   70  C   UNK N   1      32.986  11.441   1.974  0.00  0.00     0.007 A 
HETATM   71  C   UNK N   1      33.588  10.244   1.577  0.00  0.00     0.003 A 
HETATM   72  C   UNK N   1      33.021   9.019   1.950  0.00  0.00     0.036 A 
HETATM   73  C   UNK N   1      31.851   8.994   2.716  0.00  0.00     0.066 A 
HETATM   74  C   UNK N   1      31.249  10.186   3.104  0.00  0.00     0.043 A 
BRANCH  73  75
HETATM   75  O   UNK N   1      31.308   7.823   3.082  0.00  0.00    -0.361 OA
HETATM   76  H   UNK N   1      31.435   7.004   2.645  0.00  0.00     0.217 HD
ENDBRANCH  73  75
ENDBRANCH  68  69
ENDBRANCH  13  68
BRANCH  17  77
HETATM   77  O   UNK N   1      32.002  15.183   9.718  0.00  0.00    -0.394 OA
HETATM   78  H   UNK N   1      31.438  15.271  10.502  0.00  0.00     0.210 HD
ENDBRANCH  17  77
BRANCH  11  79
HETATM   79  C   UNK N   1      34.222  13.269   9.904  0.00  0.00     0.022 C 
BRANCH  79  80
HETATM   80  C   UNK N   1      35.723  13.218  10.250  0.00  0.00     0.079 C 
BRANCH  80  81
HETATM   81  C   UNK N   1      36.136  14.028  11.441  0.00  0.00     0.123 C 
HETATM   82  C   UNK N   1      35.733  15.457  11.568  0.00  0.00     0.091 C 
HETATM   83  O   UNK N   1      36.853  13.527  12.294  0.00  0.00    -0.298 OA
ENDBRANCH  80  81
ENDBRANCH  79  80
ENDBRANCH  11  79
BRANCH  19  84
HETATM   84  O   UNK N   1      32.357  11.127   6.559  0.00  0.00    -0.348 OA
HETATM   85  H   UNK N   1      32.255  10.361   7.088  0.00  0.00     0.219 HD
ENDBRANCH  19  84
BRANCH  18  86
HETATM   86  O   UNK N   1      35.910  15.024   8.024  0.00  0.00    -0.349 OA
HETATM   87  H   UNK N   1      36.301  15.731   7.550  0.00  0.00     0.219 HD
ENDBRANCH  18  86
BRANCH  16  88
HETATM   88  C   UNK N   1      35.188  10.969   6.493  0.00  0.00     0.008 C 
HETATM   89  C   UNK N   1      35.278   9.930   5.379  0.00  0.00     0.012 C 
HETATM   90  C   UNK N   1      36.618  11.257   6.931  0.00  0.00     0.012 C 
ENDBRANCH  16  88
TORSDOF 23
ENDMDL
MODEL 5
REMARK VINA RESULT:      -8.3      2.730      5.005
REMARK  23 active torsions:
REMARK  status: ('A' for Active; 'I' for Inactive)
REMARK    1  A    between atoms: C_43  and  C_11 
REMARK    2  A    between atoms: C_14  and  C_12 
REMARK    3  A    between atoms: C_20  and  C_14 
REMARK    4  A    between atoms: C_21  and  C_15 
REMARK    5  A    between atoms: C_35  and  C_20 
REMARK    6  A    between atoms: C_28  and  C_27 
REMARK    7  A    between atoms: C_38  and  C_27 
REMARK    8  A    between atoms: C_45  and  C_28 
REMARK    9  A    between atoms: C_42  and  C_32 
REMARK   10  A    between atoms: C_47  and  C_32 
REMARK   11  A    between atoms: C_49  and  C_33 
REMARK   12  A    between atoms: C_51  and  C_33 
REMARK   13  A    between atoms: C_52  and  C_34 
REMARK   14  A    between atoms: C_49  and  C_35 
REMARK   15  A    between atoms: C_50  and  C_36 
REMARK   16  A    between atoms: O_70  and  C_44 
REMARK   17  A    between atoms: C_48  and  O_71 
REMARK   18  A    between atoms: C_49  and  O_72 
REMARK   19  A    between atoms: C_53  and  O_73 
REMARK   20  A    between atoms: C_54  and  O_74 
REMARK   21  A    between atoms: O_75  and  C_55 
REMARK   22  A    between atoms: C_56  and  O_76 
REMARK   23  A    between atoms: C_57  and  O_77 
ROOT
HETATM    1  C   UNK N   1      36.680  14.827   9.432  0.00  0.00     0.015 C 
HETATM    2  C   UNK N   1      31.494  17.317   7.556  0.00  0.00     0.027 C 
HETATM    3  C   UNK N   1      32.798  17.418   8.257  0.00  0.00    -0.028 C 
HETATM    4  C   UNK N   1      31.011  16.087   7.270  0.00  0.00     0.007 C 
HETATM    5  C   UNK N   1      32.568  10.270   3.995  0.00  0.00     0.024 C 
HETATM    6  C   UNK N   1      33.568  11.397   3.708  0.00  0.00     0.038 C 
HETATM    7  C   UNK N   1      33.300  16.386   8.951  0.00  0.00     0.001 C 
HETATM    8  C   UNK N   1      31.960  15.076   6.605  0.00  0.00     0.037 C 
HETATM    9  C   UNK N   1      32.182  10.246   5.484  0.00  0.00     0.152 C 
HETATM   10  C   UNK N   1      35.188  14.931   9.725  0.00  0.00     0.044 C 
HETATM   11  C   UNK N   1      35.215  13.224  11.768  0.00  0.00     0.089 C 
HETATM   12  C   UNK N   1      33.055  12.779   4.212  0.00  0.00     0.199 C 
HETATM   13  C   UNK N   1      34.005  10.572   7.747  0.00  0.00     0.181 C 
HETATM   14  C   UNK N   1      34.752  16.345   9.273  0.00  0.00     0.146 C 
HETATM   15  C   UNK N   1      32.860  15.580   5.450  0.00  0.00     0.160 C 
HETATM   16  C   UNK N   1      36.491  10.538  10.582  0.00  0.00     0.161 C 
HETATM   17  C   UNK N   1      34.846  14.642  11.212  0.00  0.00     0.136 C 
HETATM   18  C   UNK N   1      36.673  12.893  11.526  0.00  0.00     0.118 C 
HETATM   19  C   UNK N   1      35.136  10.526   9.890  0.00  0.00     0.135 C 
HETATM   20  C   UNK N   1      33.280  11.736   7.128  0.00  0.00     0.261 C 
HETATM   21  C   UNK N   1      34.205  13.611   4.726  0.00  0.00     0.283 C 
HETATM   22  N   UNK N   1      35.063  10.945   8.674  0.00  0.00    -0.359 N 
ATOM     23  HN  UNK N   1      35.791  11.577   8.341  1.00  0.00     0.162 HD
HETATM   24  N   UNK N   1      37.110  11.809  10.963  0.00  0.00    -0.362 N 
ATOM     25  HN  UNK N   1      38.103  11.851  10.737  1.00  0.00     0.162 HD
HETATM   26  N   UNK N   1      32.055  12.643   5.290  0.00  0.00    -0.317 N 
HETATM   27  N   UNK N   1      32.436  11.550   6.057  0.00  0.00    -0.263 N 
HETATM   28  O   UNK N   1      33.510  12.860   7.532  0.00  0.00    -0.269 OA
HETATM   29  O   UNK N   1      35.340  13.154   4.719  0.00  0.00    -0.263 OA
HETATM   30  O   UNK N   1      34.019  14.848   5.241  0.00  0.00    -0.310 OA
HETATM   31  H   UNK N   1      31.241  13.238   5.443  0.00  0.00     0.181 HD
ENDROOT
BRANCH  15  32
HETATM   32  C   UNK N   1      32.191  16.089   4.207  0.00  0.00    -0.055 C 
HETATM   33  C   UNK N   1      32.754  17.354   3.623  0.00  0.00     0.046 C 
HETATM   34  C   UNK N   1      30.994  15.564   3.829  0.00  0.00     0.005 C 
BRANCH  34  35
HETATM   35  C   UNK N   1      29.927  16.348   3.171  0.00  0.00    -0.004 C 
HETATM   36  C   UNK N   1      29.031  17.004   3.937  0.00  0.00    -0.027 C 
BRANCH  36  37
HETATM   37  C   UNK N   1      27.777  17.599   3.414  0.00  0.00     0.027 C 
BRANCH  37  38
HETATM   38  C   UNK N   1      26.551  16.718   3.472  0.00  0.00     0.010 C 
BRANCH  38  39
HETATM   39  C   UNK N   1      25.196  17.409   3.664  0.00  0.00     0.011 C 
HETATM   40  C   UNK N   1      25.391  18.825   3.158  0.00  0.00     0.012 C 
BRANCH  39  41
HETATM   41  C   UNK N   1      24.744  17.455   5.145  0.00  0.00     0.124 C 
BRANCH  41  42
HETATM   42  C   UNK N   1      23.304  16.902   5.256  0.00  0.00     0.064 C 
BRANCH  42  43
HETATM   43  C   UNK N   1      22.706  15.812   4.338  0.00  0.00     0.133 C 
HETATM   44  C   UNK N   1      21.782  16.227   3.169  0.00  0.00     0.040 C 
HETATM   45  C   UNK N   1      21.739  15.096   2.138  0.00  0.00     0.015 C 
HETATM   46  C   UNK N   1      20.373  16.513   3.703  0.00  0.00     0.132 C 
HETATM   47  C   UNK N   1      19.873  15.292   4.486  0.00  0.00     0.067 C 
HETATM   48  C   UNK N   1      18.491  15.590   5.067  0.00  0.00     0.017 C 
HETATM   49  C   UNK N   1      20.893  14.866   5.599  0.00  0.00     0.145 C 
HETATM   50  C   UNK N   1      20.427  13.486   6.154  0.00  0.00     0.038 C 
HETATM   51  N   UNK N   1      20.935  15.869   6.664  0.00  0.00    -0.342 N 
HETATM   52  O   UNK N   1      22.210  14.697   5.073  0.00  0.00    -0.354 OA
HETATM   53  C   UNK N   1      20.686  12.353   5.171  0.00  0.00     0.015 C 
HETATM   54  C   UNK N   1      21.139  13.194   7.452  0.00  0.00     0.022 C 
HETATM   55  C   UNK N   1      20.710  14.233   8.488  0.00  0.00     0.060 C 
HETATM   56  C   UNK N   1      20.844  15.637   7.935  0.00  0.00     0.117 C 
ATOM     57  HN  UNK N   1      21.046  16.842   6.378  1.00  0.00     0.164 HD
BRANCH  46  58
HETATM   58  O   UNK N   1      19.506  16.803   2.642  0.00  0.00    -0.395 OA
HETATM   59  H   UNK N   1      18.575  17.045   2.767  0.00  0.00     0.210 HD
ENDBRANCH  46  58
BRANCH  55  60
HETATM   60  C   UNK N   1      21.543  14.054   9.752  0.00  0.00     0.008 C 
HETATM   61  C   UNK N   1      21.641  12.582  10.135  0.00  0.00     0.006 C 
ENDBRANCH  55  60
BRANCH  56  62
HETATM   62  O   UNK N   1      20.822  16.681   8.788  0.00  0.00    -0.349 OA
HETATM   63  H   UNK N   1      21.249  16.970   9.570  0.00  0.00     0.219 HD
ENDBRANCH  56  62
ENDBRANCH  42  43
ENDBRANCH  41  42
BRANCH  41  64
HETATM   64  O   UNK N   1      24.802  18.760   5.614  0.00  0.00    -0.395 OA
HETATM   65  H   UNK N   1      25.149  18.968   6.496  0.00  0.00     0.210 HD
ENDBRANCH  41  64
ENDBRANCH  39  41
ENDBRANCH  38  39
ENDBRANCH  37  38
ENDBRANCH  36  37
ENDBRANCH  34  35
ENDBRANCH  15  32
BRANCH  14  66
HETATM   66  O   UNK N   1      35.117  17.341  10.183  0.00  0.00    -0.391 OA
HETATM   67  H   UNK N   1      35.461  17.101  11.058  0.00  0.00     0.210 HD
ENDBRANCH  14  66
BRANCH  13  68
HETATM   68  C   UNK N   1      34.739   9.879   6.604  0.00  0.00     0.073 C 
BRANCH  68  69
HETATM   69  C   UNK N   1      35.218   8.531   6.979  0.00  0.00    -0.053 A 
HETATM   70  C   UNK N   1      36.570   8.189   6.887  0.00  0.00     0.007 A 
HETATM   71  C   UNK N   1      36.986   6.908   7.259  0.00  0.00     0.003 A 
HETATM   72  C   UNK N   1      36.050   5.978   7.728  0.00  0.00     0.036 A 
HETATM   73  C   UNK N   1      34.699   6.330   7.819  0.00  0.00     0.066 A 
HETATM   74  C   UNK N   1      34.286   7.603   7.440  0.00  0.00     0.043 A 
BRANCH  73  75
HETATM   75  O   UNK N   1      33.799   5.445   8.272  0.00  0.00    -0.361 OA
HETATM   76  H   UNK N   1      33.773   4.534   8.055  0.00  0.00     0.217 HD
ENDBRANCH  73  75
ENDBRANCH  68  69
ENDBRANCH  13  68
BRANCH  17  77
HETATM   77  O   UNK N   1      33.484  14.862  11.442  0.00  0.00    -0.394 OA
HETATM   78  H   UNK N   1      32.659  15.363  11.535  0.00  0.00     0.210 HD
ENDBRANCH  17  77
BRANCH  11  79
HETATM   79  C   UNK N   1      34.930  13.088  13.282  0.00  0.00     0.022 C 
BRANCH  79  80
HETATM   80  C   UNK N   1      35.460  11.853  14.037  0.00  0.00     0.079 C 
BRANCH  80  81
HETATM   81  C   UNK N   1      34.439  10.798  14.339  0.00  0.00     0.123 C 
HETATM   82  C   UNK N   1      34.436  10.093  15.652  0.00  0.00     0.091 C 
HETATM   83  O   UNK N   1      33.631  10.476  13.482  0.00  0.00    -0.298 OA
ENDBRANCH  80  81
ENDBRANCH  79  80
ENDBRANCH  11  79
BRANCH  19  84
HETATM   84  O   UNK N   1      34.106   9.845  10.444  0.00  0.00    -0.348 OA
HETATM   85  H   UNK N   1      33.272   9.709  10.849  0.00  0.00     0.219 HD
ENDBRANCH  19  84
BRANCH  18  86
HETATM   86  O   UNK N   1      37.587  13.806  11.909  0.00  0.00    -0.349 OA
HETATM   87  H   UNK N   1      38.298  13.774  12.519  0.00  0.00     0.219 HD
ENDBRANCH  18  86
BRANCH  16  88
HETATM   88  C   UNK N   1      36.605   9.526  11.745  0.00  0.00     0.008 C 
HETATM   89  C   UNK N   1      36.618   8.086  11.243  0.00  0.00     0.012 C 
HETATM   90  C   UNK N   1      37.912   9.731  12.502  0.00  0.00     0.012 C 
ENDBRANCH  16  88
TORSDOF 23
ENDMDL
MODEL 6
REMARK VINA RESULT:      -8.3      2.463     11.854
REMARK  23 active torsions:
REMARK  status: ('A' for Active; 'I' for Inactive)
REMARK    1  A    between atoms: C_43  and  C_11 
REMARK    2  A    between atoms: C_14  and  C_12 
REMARK    3  A    between atoms: C_20  and  C_14 
REMARK    4  A    between atoms: C_21  and  C_15 
REMARK    5  A    between atoms: C_35  and  C_20 
REMARK    6  A    between atoms: C_28  and  C_27 
REMARK    7  A    between atoms: C_38  and  C_27 
REMARK    8  A    between atoms: C_45  and  C_28 
REMARK    9  A    between atoms: C_42  and  C_32 
REMARK   10  A    between atoms: C_47  and  C_32 
REMARK   11  A    between atoms: C_49  and  C_33 
REMARK   12  A    between atoms: C_51  and  C_33 
REMARK   13  A    between atoms: C_52  and  C_34 
REMARK   14  A    between atoms: C_49  and  C_35 
REMARK   15  A    between atoms: C_50  and  C_36 
REMARK   16  A    between atoms: O_70  and  C_44 
REMARK   17  A    between atoms: C_48  and  O_71 
REMARK   18  A    between atoms: C_49  and  O_72 
REMARK   19  A    between atoms: C_53  and  O_73 
REMARK   20  A    between atoms: C_54  and  O_74 
REMARK   21  A    between atoms: O_75  and  C_55 
REMARK   22  A    between atoms: C_56  and  O_76 
REMARK   23  A    between atoms: C_57  and  O_77 
ROOT
HETATM    1  C   UNK N   1      26.067  15.691   6.532  0.00  0.00     0.015 C 
HETATM    2  C   UNK N   1      31.786  17.183   5.238  0.00  0.00     0.027 C 
HETATM    3  C   UNK N   1      30.571  17.323   6.079  0.00  0.00    -0.028 C 
HETATM    4  C   UNK N   1      31.671  16.572   4.037  0.00  0.00     0.007 C 
HETATM    5  C   UNK N   1      29.666  10.710   1.103  0.00  0.00     0.024 C 
HETATM    6  C   UNK N   1      29.714  10.620   2.634  0.00  0.00     0.038 C 
HETATM    7  C   UNK N   1      29.342  17.238   5.550  0.00  0.00     0.001 C 
HETATM    8  C   UNK N   1      30.927  15.227   3.982  0.00  0.00     0.037 C 
HETATM    9  C   UNK N   1      29.065  12.052   0.652  0.00  0.00     0.152 C 
HETATM   10  C   UNK N   1      26.941  16.521   5.601  0.00  0.00     0.044 C 
HETATM   11  C   UNK N   1      24.932  17.403   4.093  0.00  0.00     0.089 C 
HETATM   12  C   UNK N   1      30.441  11.842   3.271  0.00  0.00     0.199 C 
HETATM   13  C   UNK N   1      26.728  13.374   1.810  0.00  0.00     0.181 C 
HETATM   14  C   UNK N   1      28.175  16.950   6.429  0.00  0.00     0.146 C 
HETATM   15  C   UNK N   1      31.230  14.186   5.087  0.00  0.00     0.160 C 
HETATM   16  C   UNK N   1      23.451  14.758   3.062  0.00  0.00     0.161 C 
HETATM   17  C   UNK N   1      26.183  17.725   4.980  0.00  0.00     0.136 C 
HETATM   18  C   UNK N   1      23.941  16.524   4.827  0.00  0.00     0.118 C 
HETATM   19  C   UNK N   1      24.738  14.685   2.253  0.00  0.00     0.135 C 
HETATM   20  C   UNK N   1      28.128  13.662   2.282  0.00  0.00     0.261 C 
HETATM   21  C   UNK N   1      29.792  12.216   4.581  0.00  0.00     0.283 C 
HETATM   22  N   UNK N   1      25.682  13.911   2.667  0.00  0.00    -0.359 N 
ATOM     23  HN  UNK N   1      25.695  13.660   3.655  1.00  0.00     0.162 HD
HETATM   24  N   UNK N   1      23.443  15.416   4.371  0.00  0.00    -0.362 N 
ATOM     25  HN  UNK N   1      22.933  14.888   5.078  1.00  0.00     0.162 HD
HETATM   26  N   UNK N   1      30.426  13.024   2.385  0.00  0.00    -0.317 N 
HETATM   27  N   UNK N   1      29.206  13.014   1.723  0.00  0.00    -0.263 N 
HETATM   28  O   UNK N   1      28.293  14.414   3.224  0.00  0.00    -0.269 OA
HETATM   29  O   UNK N   1      28.820  11.589   4.981  0.00  0.00    -0.263 OA
HETATM   30  O   UNK N   1      30.224  13.262   5.322  0.00  0.00    -0.310 OA
HETATM   31  H   UNK N   1      31.169  13.714   2.280  0.00  0.00     0.181 HD
ENDROOT
BRANCH  15  32
HETATM   32  C   UNK N   1      32.628  13.648   5.183  0.00  0.00    -0.055 C 
HETATM   33  C   UNK N   1      33.358  13.468   3.882  0.00  0.00     0.046 C 
HETATM   34  C   UNK N   1      33.062  13.118   6.358  0.00  0.00     0.005 C 
BRANCH  34  35
HETATM   35  C   UNK N   1      33.999  11.978   6.446  0.00  0.00    -0.004 C 
HETATM   36  C   UNK N   1      33.502  10.724   6.479  0.00  0.00    -0.027 C 
BRANCH  36  37
HETATM   37  C   UNK N   1      34.305   9.526   6.827  0.00  0.00     0.027 C 
BRANCH  37  38
HETATM   38  C   UNK N   1      33.681   8.577   7.824  0.00  0.00     0.010 C 
BRANCH  38  39
HETATM   39  C   UNK N   1      33.799   8.939   9.309  0.00  0.00     0.011 C 
HETATM   40  C   UNK N   1      32.902   7.955  10.035  0.00  0.00     0.012 C 
BRANCH  39  41
HETATM   41  C   UNK N   1      33.328  10.382   9.619  0.00  0.00     0.124 C 
BRANCH  41  42
HETATM   42  C   UNK N   1      34.027  10.879  10.906  0.00  0.00     0.064 C 
BRANCH  42  43
HETATM   43  C   UNK N   1      35.557  10.995  11.089  0.00  0.00     0.133 C 
HETATM   44  C   UNK N   1      36.179  10.721  12.478  0.00  0.00     0.040 C 
HETATM   45  C   UNK N   1      37.665  10.394  12.307  0.00  0.00     0.015 C 
HETATM   46  C   UNK N   1      36.006  11.954  13.373  0.00  0.00     0.132 C 
HETATM   47  C   UNK N   1      36.593  13.179  12.661  0.00  0.00     0.067 C 
HETATM   48  C   UNK N   1      36.375  14.422  13.524  0.00  0.00     0.017 C 
HETATM   49  C   UNK N   1      35.989  13.354  11.224  0.00  0.00     0.145 C 
HETATM   50  C   UNK N   1      36.825  14.452  10.498  0.00  0.00     0.038 C 
HETATM   51  N   UNK N   1      34.580  13.742  11.307  0.00  0.00    -0.342 N 
HETATM   52  O   UNK N   1      36.092  12.154  10.457  0.00  0.00    -0.354 OA
HETATM   53  C   UNK N   1      38.207  13.952  10.098  0.00  0.00     0.015 C 
HETATM   54  C   UNK N   1      36.088  14.921   9.268  0.00  0.00     0.022 C 
HETATM   55  C   UNK N   1      34.790  15.600   9.707  0.00  0.00     0.060 C 
HETATM   56  C   UNK N   1      34.020  14.724  10.673  0.00  0.00     0.117 C 
ATOM     57  HN  UNK N   1      33.983  13.188  11.921  1.00  0.00     0.164 HD
BRANCH  46  58
HETATM   58  O   UNK N   1      36.642  11.749  14.603  0.00  0.00    -0.395 OA
HETATM   59  H   UNK N   1      36.472  10.980  15.169  0.00  0.00     0.210 HD
ENDBRANCH  46  58
BRANCH  55  60
HETATM   60  C   UNK N   1      33.957  15.930   8.475  0.00  0.00     0.008 C 
HETATM   61  C   UNK N   1      34.220  17.356   8.006  0.00  0.00     0.006 C 
ENDBRANCH  55  60
BRANCH  56  62
HETATM   62  O   UNK N   1      32.724  15.001  10.917  0.00  0.00    -0.349 OA
HETATM   63  H   UNK N   1      31.874  14.657  10.723  0.00  0.00     0.219 HD
ENDBRANCH  56  62
ENDBRANCH  42  43
ENDBRANCH  41  42
BRANCH  41  64
HETATM   64  O   UNK N   1      31.949  10.403   9.775  0.00  0.00    -0.395 OA
HETATM   65  H   UNK N   1      31.351  10.254   9.026  0.00  0.00     0.210 HD
ENDBRANCH  41  64
ENDBRANCH  39  41
ENDBRANCH  38  39
ENDBRANCH  37  38
ENDBRANCH  36  37
ENDBRANCH  34  35
ENDBRANCH  15  32
BRANCH  14  66
HETATM   66  O   UNK N   1      27.902  18.008   7.301  0.00  0.00    -0.391 OA
HETATM   67  H   UNK N   1      27.130  18.577   7.151  0.00  0.00     0.210 HD
ENDBRANCH  14  66
BRANCH  13  68
HETATM   68  C   UNK N   1      26.553  11.863   1.910  0.00  0.00     0.073 C 
BRANCH  68  69
HETATM   69  C   UNK N   1      25.177  11.433   1.581  0.00  0.00    -0.053 A 
HETATM   70  C   UNK N   1      24.680  11.523   0.278  0.00  0.00     0.007 A 
HETATM   71  C   UNK N   1      23.378  11.097   0.004  0.00  0.00     0.003 A 
HETATM   72  C   UNK N   1      22.582  10.578   1.033  0.00  0.00     0.036 A 
HETATM   73  C   UNK N   1      23.088  10.490   2.334  0.00  0.00     0.066 A 
HETATM   74  C   UNK N   1      24.383  10.921   2.606  0.00  0.00     0.043 A 
BRANCH  73  75
HETATM   75  O   UNK N   1      22.332   9.987   3.321  0.00  0.00    -0.361 OA
HETATM   76  H   UNK N   1      21.854  10.490   3.951  0.00  0.00     0.217 HD
ENDBRANCH  73  75
ENDBRANCH  68  69
ENDBRANCH  13  68
BRANCH  17  77
HETATM   77  O   UNK N   1      27.063  18.510   4.228  0.00  0.00    -0.394 OA
HETATM   78  H   UNK N   1      27.884  18.752   3.773  0.00  0.00     0.210 HD
ENDBRANCH  17  77
BRANCH  11  79
HETATM   79  C   UNK N   1      24.195  18.678   3.621  0.00  0.00     0.022 C 
BRANCH  79  80
HETATM   80  C   UNK N   1      22.681  18.807   3.878  0.00  0.00     0.079 C 
BRANCH  80  81
HETATM   81  C   UNK N   1      21.965  19.802   3.015  0.00  0.00     0.123 C 
HETATM   82  C   UNK N   1      20.714  19.428   2.298  0.00  0.00     0.091 C 
HETATM   83  O   UNK N   1      22.437  20.917   2.858  0.00  0.00    -0.298 OA
ENDBRANCH  80  81
ENDBRANCH  79  80
ENDBRANCH  11  79
BRANCH  19  84
HETATM   84  O   UNK N   1      24.776  15.204   1.004  0.00  0.00    -0.348 OA
HETATM   85  H   UNK N   1      24.958  15.824   0.326  0.00  0.00     0.219 HD
ENDBRANCH  19  84
BRANCH  18  86
HETATM   86  O   UNK N   1      23.561  16.914   6.060  0.00  0.00    -0.349 OA
HETATM   87  H   UNK N   1      22.863  16.642   6.623  0.00  0.00     0.219 HD
ENDBRANCH  18  86
BRANCH  16  88
HETATM   88  C   UNK N   1      22.222  15.206   2.239  0.00  0.00     0.008 C 
HETATM   89  C   UNK N   1      21.699  14.084   1.347  0.00  0.00     0.012 C 
HETATM   90  C   UNK N   1      21.075  15.593   3.163  0.00  0.00     0.012 C 
ENDBRANCH  16  88
TORSDOF 23
ENDMDL
MODEL 7
REMARK VINA RESULT:      -8.2      2.626     11.026
REMARK  23 active torsions:
REMARK  status: ('A' for Active; 'I' for Inactive)
REMARK    1  A    between atoms: C_43  and  C_11 
REMARK    2  A    between atoms: C_14  and  C_12 
REMARK    3  A    between atoms: C_20  and  C_14 
REMARK    4  A    between atoms: C_21  and  C_15 
REMARK    5  A    between atoms: C_35  and  C_20 
REMARK    6  A    between atoms: C_28  and  C_27 
REMARK    7  A    between atoms: C_38  and  C_27 
REMARK    8  A    between atoms: C_45  and  C_28 
REMARK    9  A    between atoms: C_42  and  C_32 
REMARK   10  A    between atoms: C_47  and  C_32 
REMARK   11  A    between atoms: C_49  and  C_33 
REMARK   12  A    between atoms: C_51  and  C_33 
REMARK   13  A    between atoms: C_52  and  C_34 
REMARK   14  A    between atoms: C_49  and  C_35 
REMARK   15  A    between atoms: C_50  and  C_36 
REMARK   16  A    between atoms: O_70  and  C_44 
REMARK   17  A    between atoms: C_48  and  O_71 
REMARK   18  A    between atoms: C_49  and  O_72 
REMARK   19  A    between atoms: C_53  and  O_73 
REMARK   20  A    between atoms: C_54  and  O_74 
REMARK   21  A    between atoms: O_75  and  C_55 
REMARK   22  A    between atoms: C_56  and  O_76 
REMARK   23  A    between atoms: C_57  and  O_77 
ROOT
HETATM    1  C   UNK N   1      21.884  14.270   4.979  0.00  0.00     0.015 C 
HETATM    2  C   UNK N   1      24.351  19.714   4.040  0.00  0.00     0.027 C 
HETATM    3  C   UNK N   1      23.236  18.867   4.532  0.00  0.00    -0.028 C 
HETATM    4  C   UNK N   1      25.284  19.150   3.241  0.00  0.00     0.007 C 
HETATM    5  C   UNK N   1      29.835  14.030   2.992  0.00  0.00     0.024 C 
HETATM    6  C   UNK N   1      29.223  14.210   4.387  0.00  0.00     0.038 C 
HETATM    7  C   UNK N   1      22.906  17.722   3.917  0.00  0.00     0.001 C 
HETATM    8  C   UNK N   1      25.898  17.812   3.684  0.00  0.00     0.037 C 
HETATM    9  C   UNK N   1      28.762  14.171   1.899  0.00  0.00     0.152 C 
HETATM   10  C   UNK N   1      22.162  15.328   3.919  0.00  0.00     0.044 C 
HETATM   11  C   UNK N   1      21.180  13.912   1.890  0.00  0.00     0.089 C 
HETATM   12  C   UNK N   1      28.422  15.541   4.508  0.00  0.00     0.199 C 
HETATM   13  C   UNK N   1      26.068  13.037   1.967  0.00  0.00     0.181 C 
HETATM   14  C   UNK N   1      22.109  16.695   4.642  0.00  0.00     0.146 C 
HETATM   15  C   UNK N   1      26.300  17.656   5.171  0.00  0.00     0.160 C 
HETATM   16  C   UNK N   1      22.801  11.152   1.947  0.00  0.00     0.161 C 
HETATM   17  C   UNK N   1      21.185  15.244   2.716  0.00  0.00     0.136 C 
HETATM   18  C   UNK N   1      20.967  12.707   2.780  0.00  0.00     0.118 C 
HETATM   19  C   UNK N   1      23.890  12.100   1.464  0.00  0.00     0.135 C 
HETATM   20  C   UNK N   1      26.366  14.425   2.467  0.00  0.00     0.261 C 
HETATM   21  C   UNK N   1      27.214  15.350   5.393  0.00  0.00     0.283 C 
HETATM   22  N   UNK N   1      24.746  12.540   2.320  0.00  0.00    -0.359 N 
ATOM     23  HN  UNK N   1      24.481  12.541   3.305  1.00  0.00     0.162 HD
HETATM   24  N   UNK N   1      21.720  11.650   2.801  0.00  0.00    -0.362 N 
ATOM     25  HN  UNK N   1      21.515  11.030   3.583  1.00  0.00     0.162 HD
HETATM   26  N   UNK N   1      27.966  16.040   3.194  0.00  0.00    -0.317 N 
HETATM   27  N   UNK N   1      27.647  14.926   2.430  0.00  0.00    -0.263 N 
HETATM   28  O   UNK N   1      25.475  15.073   2.982  0.00  0.00    -0.269 OA
HETATM   29  O   UNK N   1      26.982  14.251   5.879  0.00  0.00    -0.263 OA
HETATM   30  O   UNK N   1      26.341  16.353   5.641  0.00  0.00    -0.310 OA
HETATM   31  H   UNK N   1      27.899  17.015   2.904  0.00  0.00     0.181 HD
ENDROOT
BRANCH  15  32
HETATM   32  C   UNK N   1      27.367  18.565   5.710  0.00  0.00    -0.055 C 
HETATM   33  C   UNK N   1      28.354  19.094   4.708  0.00  0.00     0.046 C 
HETATM   34  C   UNK N   1      27.552  18.654   7.055  0.00  0.00     0.005 C 
BRANCH  34  35
HETATM   35  C   UNK N   1      28.873  18.854   7.688  0.00  0.00    -0.004 C 
HETATM   36  C   UNK N   1      29.507  17.792   8.227  0.00  0.00    -0.027 C 
BRANCH  36  37
HETATM   37  C   UNK N   1      30.694  17.900   9.111  0.00  0.00     0.027 C 
BRANCH  37  38
HETATM   38  C   UNK N   1      31.933  18.499   8.485  0.00  0.00     0.010 C 
BRANCH  38  39
HETATM   39  C   UNK N   1      32.970  17.528   7.909  0.00  0.00     0.011 C 
HETATM   40  C   UNK N   1      34.318  18.100   8.301  0.00  0.00     0.012 C 
BRANCH  39  41
HETATM   41  C   UNK N   1      32.896  17.408   6.367  0.00  0.00     0.124 C 
BRANCH  41  42
HETATM   42  C   UNK N   1      32.607  15.938   5.984  0.00  0.00     0.064 C 
BRANCH  42  43
HETATM   43  C   UNK N   1      33.662  14.945   5.443  0.00  0.00     0.133 C 
HETATM   44  C   UNK N   1      33.197  13.709   4.639  0.00  0.00     0.040 C 
HETATM   45  C   UNK N   1      34.369  13.186   3.802  0.00  0.00     0.015 C 
HETATM   46  C   UNK N   1      32.706  12.621   5.602  0.00  0.00     0.132 C 
HETATM   47  C   UNK N   1      33.809  12.318   6.624  0.00  0.00     0.067 C 
HETATM   48  C   UNK N   1      33.307  11.274   7.621  0.00  0.00     0.017 C 
HETATM   49  C   UNK N   1      34.300  13.622   7.344  0.00  0.00     0.145 C 
HETATM   50  C   UNK N   1      35.577  13.253   8.159  0.00  0.00     0.038 C 
HETATM   51  N   UNK N   1      33.253  14.143   8.226  0.00  0.00    -0.342 N 
HETATM   52  O   UNK N   1      34.662  14.639   6.409  0.00  0.00    -0.354 OA
HETATM   53  C   UNK N   1      36.786  13.027   7.261  0.00  0.00     0.015 C 
HETATM   54  C   UNK N   1      35.885  14.351   9.146  0.00  0.00     0.022 C 
HETATM   55  C   UNK N   1      34.745  14.428  10.161  0.00  0.00     0.060 C 
HETATM   56  C   UNK N   1      33.402  14.492   9.464  0.00  0.00     0.117 C 
ATOM     57  HN  UNK N   1      32.319  14.240   7.827  1.00  0.00     0.164 HD
BRANCH  46  58
HETATM   58  O   UNK N   1      32.367  11.465   4.890  0.00  0.00    -0.395 OA
HETATM   59  H   UNK N   1      32.553  10.568   5.211  0.00  0.00     0.210 HD
ENDBRANCH  46  58
BRANCH  55  60
HETATM   60  C   UNK N   1      34.960  15.637  11.064  0.00  0.00     0.008 C 
HETATM   61  C   UNK N   1      36.001  15.339  12.135  0.00  0.00     0.006 C 
ENDBRANCH  55  60
BRANCH  56  62
HETATM   62  O   UNK N   1      32.319  14.881  10.166  0.00  0.00    -0.349 OA
HETATM   63  H   UNK N   1      31.464  15.235  10.017  0.00  0.00     0.219 HD
ENDBRANCH  56  62
ENDBRANCH  42  43
ENDBRANCH  41  42
BRANCH  41  64
HETATM   64  O   UNK N   1      34.093  17.832   5.805  0.00  0.00    -0.395 OA
HETATM   65  H   UNK N   1      34.698  18.420   6.283  0.00  0.00     0.210 HD
ENDBRANCH  41  64
ENDBRANCH  39  41
ENDBRANCH  38  39
ENDBRANCH  37  38
ENDBRANCH  36  37
ENDBRANCH  34  35
ENDBRANCH  15  32
BRANCH  14  66
HETATM   66  O   UNK N   1      20.802  17.125   4.891  0.00  0.00    -0.391 OA
HETATM   67  H   UNK N   1      20.049  16.637   4.524  0.00  0.00     0.210 HD
ENDBRANCH  14  66
BRANCH  13  68
HETATM   68  C   UNK N   1      27.024  12.109   2.709  0.00  0.00     0.073 C 
BRANCH  68  69
HETATM   69  C   UNK N   1      27.168  10.798   2.041  0.00  0.00    -0.053 A 
HETATM   70  C   UNK N   1      27.774  10.684   0.787  0.00  0.00     0.007 A 
HETATM   71  C   UNK N   1      27.901   9.426   0.192  0.00  0.00     0.003 A 
HETATM   72  C   UNK N   1      27.426   8.288   0.856  0.00  0.00     0.036 A 
HETATM   73  C   UNK N   1      26.823   8.411   2.112  0.00  0.00     0.066 A 
HETATM   74  C   UNK N   1      26.691   9.666   2.699  0.00  0.00     0.043 A 
BRANCH  73  75
HETATM   75  O   UNK N   1      26.372   7.324   2.755  0.00  0.00    -0.361 OA
HETATM   76  H   UNK N   1      26.777   6.479   2.746  0.00  0.00     0.217 HD
ENDBRANCH  73  75
ENDBRANCH  68  69
ENDBRANCH  13  68
BRANCH  17  77
HETATM   77  O   UNK N   1      21.417  16.306   1.835  0.00  0.00    -0.394 OA
HETATM   78  H   UNK N   1      21.867  17.079   1.459  0.00  0.00     0.210 HD
ENDBRANCH  17  77
BRANCH  11  79
HETATM   79  C   UNK N   1      20.094  13.902   0.787  0.00  0.00     0.022 C 
BRANCH  79  80
HETATM   80  C   UNK N   1      19.594  12.551   0.241  0.00  0.00     0.079 C 
BRANCH  80  81
HETATM   81  C   UNK N   1      18.166  12.219   0.555  0.00  0.00     0.123 C 
HETATM   82  C   UNK N   1      17.377  11.327  -0.339  0.00  0.00     0.091 C 
HETATM   83  O   UNK N   1      17.628  12.724   1.528  0.00  0.00    -0.298 OA
ENDBRANCH  80  81
ENDBRANCH  79  80
ENDBRANCH  11  79
BRANCH  19  84
HETATM   84  O   UNK N   1      24.107  12.252   0.137  0.00  0.00    -0.348 OA
HETATM   85  H   UNK N   1      24.334  12.011  -0.739  0.00  0.00     0.219 HD
ENDBRANCH  19  84
BRANCH  18  86
HETATM   86  O   UNK N   1      19.923  12.741   3.631  0.00  0.00    -0.349 OA
HETATM   87  H   UNK N   1      19.088  12.316   3.628  0.00  0.00     0.219 HD
ENDBRANCH  18  86
BRANCH  16  88
HETATM   88  C   UNK N   1      22.221  10.251   0.834  0.00  0.00     0.008 C 
HETATM   89  C   UNK N   1      23.235   9.215   0.359  0.00  0.00     0.012 C 
HETATM   90  C   UNK N   1      21.019   9.472   1.352  0.00  0.00     0.012 C 
ENDBRANCH  16  88
TORSDOF 23
ENDMDL
MODEL 8
REMARK VINA RESULT:      -8.1      3.060     12.874
REMARK  23 active torsions:
REMARK  status: ('A' for Active; 'I' for Inactive)
REMARK    1  A    between atoms: C_43  and  C_11 
REMARK    2  A    between atoms: C_14  and  C_12 
REMARK    3  A    between atoms: C_20  and  C_14 
REMARK    4  A    between atoms: C_21  and  C_15 
REMARK    5  A    between atoms: C_35  and  C_20 
REMARK    6  A    between atoms: C_28  and  C_27 
REMARK    7  A    between atoms: C_38  and  C_27 
REMARK    8  A    between atoms: C_45  and  C_28 
REMARK    9  A    between atoms: C_42  and  C_32 
REMARK   10  A    between atoms: C_47  and  C_32 
REMARK   11  A    between atoms: C_49  and  C_33 
REMARK   12  A    between atoms: C_51  and  C_33 
REMARK   13  A    between atoms: C_52  and  C_34 
REMARK   14  A    between atoms: C_49  and  C_35 
REMARK   15  A    between atoms: C_50  and  C_36 
REMARK   16  A    between atoms: O_70  and  C_44 
REMARK   17  A    between atoms: C_48  and  O_71 
REMARK   18  A    between atoms: C_49  and  O_72 
REMARK   19  A    between atoms: C_53  and  O_73 
REMARK   20  A    between atoms: C_54  and  O_74 
REMARK   21  A    between atoms: O_75  and  C_55 
REMARK   22  A    between atoms: C_56  and  O_76 
REMARK   23  A    between atoms: C_57  and  O_77 
ROOT
HETATM    1  C   UNK N   1      28.564  15.023   1.575  0.00  0.00     0.015 C 
HETATM    2  C   UNK N   1      32.481  11.125   4.038  0.00  0.00     0.027 C 
HETATM    3  C   UNK N   1      31.601  11.541   2.918  0.00  0.00    -0.028 C 
HETATM    4  C   UNK N   1      32.327  11.731   5.237  0.00  0.00     0.007 C 
HETATM    5  C   UNK N   1      32.372  17.890   8.247  0.00  0.00     0.024 C 
HETATM    6  C   UNK N   1      32.863  17.937   6.794  0.00  0.00     0.038 C 
HETATM    7  C   UNK N   1      30.441  12.174   3.139  0.00  0.00     0.001 C 
HETATM    8  C   UNK N   1      32.258  13.267   5.263  0.00  0.00     0.037 C 
HETATM    9  C   UNK N   1      31.150  16.966   8.382  0.00  0.00     0.152 C 
HETATM   10  C   UNK N   1      28.703  13.895   2.590  0.00  0.00     0.044 C 
HETATM   11  C   UNK N   1      26.189  14.024   3.454  0.00  0.00     0.089 C 
HETATM   12  C   UNK N   1      33.126  16.514   6.217  0.00  0.00     0.199 C 
HETATM   13  C   UNK N   1      28.877  16.829   6.549  0.00  0.00     0.181 C 
HETATM   14  C   UNK N   1      29.799  12.950   2.043  0.00  0.00     0.146 C 
HETATM   15  C   UNK N   1      33.269  14.052   4.391  0.00  0.00     0.160 C 
HETATM   16  C   UNK N   1      25.793  17.060   4.390  0.00  0.00     0.161 C 
HETATM   17  C   UNK N   1      27.361  13.166   2.866  0.00  0.00     0.136 C 
HETATM   18  C   UNK N   1      25.917  15.249   2.608  0.00  0.00     0.118 C 
HETATM   19  C   UNK N   1      26.714  16.552   5.490  0.00  0.00     0.135 C 
HETATM   20  C   UNK N   1      30.080  15.939   6.401  0.00  0.00     0.261 C 
HETATM   21  C   UNK N   1      32.756  16.463   4.755  0.00  0.00     0.283 C 
HETATM   22  N   UNK N   1      27.972  16.814   5.409  0.00  0.00    -0.359 N 
ATOM     23  HN  UNK N   1      28.358  17.026   4.489  1.00  0.00     0.162 HD
HETATM   24  N   UNK N   1      25.849  16.466   3.053  0.00  0.00    -0.362 N 
ATOM     25  HN  UNK N   1      25.831  17.163   2.308  1.00  0.00     0.162 HD
HETATM   26  N   UNK N   1      32.361  15.473   6.932  0.00  0.00    -0.317 N 
HETATM   27  N   UNK N   1      31.139  16.035   7.275  0.00  0.00    -0.263 N 
HETATM   28  O   UNK N   1      30.146  15.186   5.448  0.00  0.00    -0.269 OA
HETATM   29  O   UNK N   1      32.301  17.457   4.205  0.00  0.00    -0.263 OA
HETATM   30  O   UNK N   1      32.870  15.329   4.026  0.00  0.00    -0.310 OA
HETATM   31  H   UNK N   1      32.670  14.523   7.135  0.00  0.00     0.181 HD
ENDROOT
BRANCH  15  32
HETATM   32  C   UNK N   1      34.730  13.902   4.700  0.00  0.00    -0.055 C 
HETATM   33  C   UNK N   1      35.595  13.398   3.579  0.00  0.00     0.046 C 
HETATM   34  C   UNK N   1      35.151  13.965   5.992  0.00  0.00     0.005 C 
BRANCH  34  35
HETATM   35  C   UNK N   1      36.278  13.172   6.526  0.00  0.00    -0.004 C 
HETATM   36  C   UNK N   1      37.125  13.748   7.404  0.00  0.00    -0.027 C 
BRANCH  36  37
HETATM   37  C   UNK N   1      38.426  13.158   7.805  0.00  0.00     0.027 C 
BRANCH  37  38
HETATM   38  C   UNK N   1      38.628  12.946   9.288  0.00  0.00     0.010 C 
BRANCH  38  39
HETATM   39  C   UNK N   1      39.430  11.713   9.719  0.00  0.00     0.011 C 
HETATM   40  C   UNK N   1      40.523  11.559   8.680  0.00  0.00     0.012 C 
BRANCH  39  41
HETATM   41  C   UNK N   1      38.577  10.420   9.757  0.00  0.00     0.124 C 
BRANCH  41  42
HETATM   42  C   UNK N   1      37.480  10.566  10.838  0.00  0.00     0.064 C 
BRANCH  42  43
HETATM   43  C   UNK N   1      37.744  10.922  12.318  0.00  0.00     0.133 C 
HETATM   44  C   UNK N   1      37.400   9.892  13.420  0.00  0.00     0.040 C 
HETATM   45  C   UNK N   1      38.190  10.230  14.687  0.00  0.00     0.015 C 
HETATM   46  C   UNK N   1      35.894   9.926  13.707  0.00  0.00     0.132 C 
HETATM   47  C   UNK N   1      35.481  11.363  14.051  0.00  0.00     0.067 C 
HETATM   48  C   UNK N   1      33.971  11.416  14.285  0.00  0.00     0.017 C 
HETATM   49  C   UNK N   1      35.933  12.373  12.939  0.00  0.00     0.145 C 
HETATM   50  C   UNK N   1      35.701  13.812  13.495  0.00  0.00     0.038 C 
HETATM   51  N   UNK N   1      35.165  12.159  11.712  0.00  0.00    -0.342 N 
HETATM   52  O   UNK N   1      37.324  12.244  12.641  0.00  0.00    -0.354 OA
HETATM   53  C   UNK N   1      36.720  14.187  14.562  0.00  0.00     0.015 C 
HETATM   54  C   UNK N   1      35.771  14.809  12.365  0.00  0.00     0.022 C 
HETATM   55  C   UNK N   1      34.615  14.537  11.402  0.00  0.00     0.060 C 
HETATM   56  C   UNK N   1      34.562  13.073  11.019  0.00  0.00     0.117 C 
ATOM     57  HN  UNK N   1      35.098  11.200  11.370  1.00  0.00     0.164 HD
BRANCH  46  58
HETATM   58  O   UNK N   1      35.586   9.062  14.764  0.00  0.00    -0.395 OA
HETATM   59  H   UNK N   1      36.260   8.621  15.305  0.00  0.00     0.210 HD
ENDBRANCH  46  58
BRANCH  55  60
HETATM   60  C   UNK N   1      34.767  15.427  10.174  0.00  0.00     0.008 C 
HETATM   61  C   UNK N   1      35.313  16.797  10.558  0.00  0.00     0.006 C 
ENDBRANCH  55  60
BRANCH  56  62
HETATM   62  O   UNK N   1      33.829  12.703   9.950  0.00  0.00    -0.349 OA
HETATM   63  H   UNK N   1      32.956  12.793   9.621  0.00  0.00     0.219 HD
ENDBRANCH  56  62
ENDBRANCH  42  43
ENDBRANCH  41  42
BRANCH  41  64
HETATM   64  O   UNK N   1      39.390   9.329  10.033  0.00  0.00    -0.395 OA
HETATM   65  H   UNK N   1      40.093   9.375  10.700  0.00  0.00     0.210 HD
ENDBRANCH  41  64
ENDBRANCH  39  41
ENDBRANCH  38  39
ENDBRANCH  37  38
ENDBRANCH  36  37
ENDBRANCH  34  35
ENDBRANCH  15  32
BRANCH  14  66
HETATM   66  O   UNK N   1      29.336  12.121   1.015  0.00  0.00    -0.391 OA
HETATM   67  H   UNK N   1      29.560  11.177   1.011  0.00  0.00     0.210 HD
ENDBRANCH  14  66
BRANCH  13  68
HETATM   68  C   UNK N   1      29.411  18.257   6.583  0.00  0.00     0.073 C 
BRANCH  68  69
HETATM   69  C   UNK N   1      28.349  19.260   6.356  0.00  0.00    -0.053 A 
HETATM   70  C   UNK N   1      28.121  19.803   5.089  0.00  0.00     0.007 A 
HETATM   71  C   UNK N   1      27.102  20.742   4.912  0.00  0.00     0.003 A 
HETATM   72  C   UNK N   1      26.312  21.129   6.002  0.00  0.00     0.036 A 
HETATM   73  C   UNK N   1      26.546  20.579   7.267  0.00  0.00     0.066 A 
HETATM   74  C   UNK N   1      27.566  19.650   7.442  0.00  0.00     0.043 A 
BRANCH  73  75
HETATM   75  O   UNK N   1      25.788  20.942   8.313  0.00  0.00    -0.361 OA
HETATM   76  H   UNK N   1      24.947  21.349   8.260  0.00  0.00     0.217 HD
ENDBRANCH  73  75
ENDBRANCH  68  69
ENDBRANCH  13  68
BRANCH  17  77
HETATM   77  O   UNK N   1      27.574  12.075   3.715  0.00  0.00    -0.394 OA
HETATM   78  H   UNK N   1      28.073  11.405   4.208  0.00  0.00     0.210 HD
ENDBRANCH  17  77
BRANCH  11  79
HETATM   79  C   UNK N   1      24.873  13.221   3.585  0.00  0.00     0.022 C 
BRANCH  79  80
HETATM   80  C   UNK N   1      24.441  12.299   2.429  0.00  0.00     0.079 C 
BRANCH  80  81
HETATM   81  C   UNK N   1      23.279  12.788   1.617  0.00  0.00     0.123 C 
HETATM   82  C   UNK N   1      23.313  12.735   0.128  0.00  0.00     0.091 C 
HETATM   83  O   UNK N   1      22.313  13.281   2.180  0.00  0.00    -0.298 OA
ENDBRANCH  80  81
ENDBRANCH  79  80
ENDBRANCH  11  79
BRANCH  19  84
HETATM   84  O   UNK N   1      26.185  16.081   6.644  0.00  0.00    -0.348 OA
HETATM   85  H   UNK N   1      26.122  15.567   7.424  0.00  0.00     0.219 HD
ENDBRANCH  19  84
BRANCH  18  86
HETATM   86  O   UNK N   1      25.751  15.063   1.283  0.00  0.00    -0.349 OA
HETATM   87  H   UNK N   1      26.077  14.416   0.689  0.00  0.00     0.219 HD
ENDBRANCH  18  86
BRANCH  16  88
HETATM   88  C   UNK N   1      24.321  17.220   4.835  0.00  0.00     0.008 C 
HETATM   89  C   UNK N   1      23.917  18.687   4.938  0.00  0.00     0.012 C 
HETATM   90  C   UNK N   1      23.385  16.585   3.813  0.00  0.00     0.012 C 
ENDBRANCH  16  88
TORSDOF 23
ENDMDL
MODEL 9
REMARK VINA RESULT:      -8.0      2.626     12.136
REMARK  23 active torsions:
REMARK  status: ('A' for Active; 'I' for Inactive)
REMARK    1  A    between atoms: C_43  and  C_11 
REMARK    2  A    between atoms: C_14  and  C_12 
REMARK    3  A    between atoms: C_20  and  C_14 
REMARK    4  A    between atoms: C_21  and  C_15 
REMARK    5  A    between atoms: C_35  and  C_20 
REMARK    6  A    between atoms: C_28  and  C_27 
REMARK    7  A    between atoms: C_38  and  C_27 
REMARK    8  A    between atoms: C_45  and  C_28 
REMARK    9  A    between atoms: C_42  and  C_32 
REMARK   10  A    between atoms: C_47  and  C_32 
REMARK   11  A    between atoms: C_49  and  C_33 
REMARK   12  A    between atoms: C_51  and  C_33 
REMARK   13  A    between atoms: C_52  and  C_34 
REMARK   14  A    between atoms: C_49  and  C_35 
REMARK   15  A    between atoms: C_50  and  C_36 
REMARK   16  A    between atoms: O_70  and  C_44 
REMARK   17  A    between atoms: C_48  and  O_71 
REMARK   18  A    between atoms: C_49  and  O_72 
REMARK   19  A    between atoms: C_53  and  O_73 
REMARK   20  A    between atoms: C_54  and  O_74 
REMARK   21  A    between atoms: O_75  and  C_55 
REMARK   22  A    between atoms: C_56  and  O_76 
REMARK   23  A    between atoms: C_57  and  O_77 
ROOT
HETATM    1  C   UNK N   1      27.794  13.433   1.596  0.00  0.00     0.015 C 
HETATM    2  C   UNK N   1      31.967   9.961   4.269  0.00  0.00     0.027 C 
HETATM    3  C   UNK N   1      30.926  10.165   3.231  0.00  0.00    -0.028 C 
HETATM    4  C   UNK N   1      32.027  10.833   5.301  0.00  0.00     0.007 C 
HETATM    5  C   UNK N   1      32.716  17.499   6.741  0.00  0.00     0.024 C 
HETATM    6  C   UNK N   1      32.962  17.185   5.260  0.00  0.00     0.038 C 
HETATM    7  C   UNK N   1      29.833  10.902   3.474  0.00  0.00     0.001 C 
HETATM    8  C   UNK N   1      32.001  12.336   4.978  0.00  0.00     0.037 C 
HETATM    9  C   UNK N   1      31.510  16.707   7.276  0.00  0.00     0.152 C 
HETATM   10  C   UNK N   1      28.071  12.558   2.813  0.00  0.00     0.044 C 
HETATM   11  C   UNK N   1      25.737  13.035   4.000  0.00  0.00     0.089 C 
HETATM   12  C   UNK N   1      33.092  15.654   4.999  0.00  0.00     0.199 C 
HETATM   13  C   UNK N   1      28.964  16.298   5.900  0.00  0.00     0.181 C 
HETATM   14  C   UNK N   1      29.038  11.447   2.340  0.00  0.00     0.146 C 
HETATM   15  C   UNK N   1      32.873  12.838   3.801  0.00  0.00     0.160 C 
HETATM   16  C   UNK N   1      25.573  16.223   4.249  0.00  0.00     0.161 C 
HETATM   17  C   UNK N   1      26.775  11.995   3.456  0.00  0.00     0.136 C 
HETATM   18  C   UNK N   1      25.359  14.050   2.943  0.00  0.00     0.118 C 
HETATM   19  C   UNK N   1      26.650  15.922   5.282  0.00  0.00     0.135 C 
HETATM   20  C   UNK N   1      30.105  15.325   5.780  0.00  0.00     0.261 C 
HETATM   21  C   UNK N   1      32.485  15.295   3.665  0.00  0.00     0.283 C 
HETATM   22  N   UNK N   1      27.884  16.081   4.948  0.00  0.00    -0.359 N 
ATOM     23  HN  UNK N   1      28.119  16.053   3.956  1.00  0.00     0.162 HD
HETATM   24  N   UNK N   1      25.395  15.339   3.096  0.00  0.00    -0.362 N 
ATOM     25  HN  UNK N   1      25.271  15.847   2.221  1.00  0.00     0.162 HD
HETATM   26  N   UNK N   1      32.430  14.851   6.047  0.00  0.00    -0.317 N 
HETATM   27  N   UNK N   1      31.295  15.552   6.433  0.00  0.00    -0.263 N 
HETATM   28  O   UNK N   1      29.995  14.372   5.031  0.00  0.00    -0.269 OA
HETATM   29  O   UNK N   1      31.970  16.165   2.974  0.00  0.00    -0.263 OA
HETATM   30  O   UNK N   1      32.451  14.020   3.213  0.00  0.00    -0.310 OA
HETATM   31  H   UNK N   1      32.745  13.955   6.416  0.00  0.00     0.181 HD
ENDROOT
BRANCH  15  32
HETATM   32  C   UNK N   1      34.361  12.671   3.906  0.00  0.00    -0.055 C 
HETATM   33  C   UNK N   1      35.135  12.807   2.626  0.00  0.00     0.046 C 
HETATM   34  C   UNK N   1      34.897  12.162   5.049  0.00  0.00     0.005 C 
BRANCH  34  35
HETATM   35  C   UNK N   1      36.096  11.298   5.076  0.00  0.00    -0.004 C 
HETATM   36  C   UNK N   1      36.941  11.385   6.125  0.00  0.00    -0.027 C 
BRANCH  36  37
HETATM   37  C   UNK N   1      38.294  10.777   6.148  0.00  0.00     0.027 C 
BRANCH  37  38
HETATM   38  C   UNK N   1      39.091  10.983   7.416  0.00  0.00     0.010 C 
BRANCH  38  39
HETATM   39  C   UNK N   1      40.108  12.130   7.430  0.00  0.00     0.011 C 
HETATM   40  C   UNK N   1      41.190  11.697   8.400  0.00  0.00     0.012 C 
BRANCH  39  41
HETATM   41  C   UNK N   1      39.500  13.471   7.910  0.00  0.00     0.124 C 
BRANCH  41  42
HETATM   42  C   UNK N   1      38.452  13.189   9.013  0.00  0.00     0.064 C 
BRANCH  42  43
HETATM   43  C   UNK N   1      37.133  13.973   9.195  0.00  0.00     0.133 C 
HETATM   44  C   UNK N   1      36.937  14.847  10.455  0.00  0.00     0.040 C 
HETATM   45  C   UNK N   1      35.844  15.884  10.182  0.00  0.00     0.015 C 
HETATM   46  C   UNK N   1      36.544  13.960  11.643  0.00  0.00     0.132 C 
HETATM   47  C   UNK N   1      35.309  13.132  11.264  0.00  0.00     0.067 C 
HETATM   48  C   UNK N   1      34.943  12.205  12.423  0.00  0.00     0.017 C 
HETATM   49  C   UNK N   1      35.536  12.337   9.931  0.00  0.00     0.145 C 
HETATM   50  C   UNK N   1      34.159  11.744   9.502  0.00  0.00     0.038 C 
HETATM   51  N   UNK N   1      36.521  11.272  10.134  0.00  0.00    -0.342 N 
HETATM   52  O   UNK N   1      35.988  13.188   8.878  0.00  0.00    -0.354 OA
HETATM   53  C   UNK N   1      33.216  12.811   8.964  0.00  0.00     0.015 C 
HETATM   54  C   UNK N   1      34.369  10.685   8.448  0.00  0.00     0.022 C 
HETATM   55  C   UNK N   1      35.152   9.528   9.068  0.00  0.00     0.060 C 
HETATM   56  C   UNK N   1      36.387  10.032   9.786  0.00  0.00     0.117 C 
ATOM     57  HN  UNK N   1      37.394  11.532  10.593  1.00  0.00     0.164 HD
BRANCH  46  58
HETATM   58  O   UNK N   1      36.278  14.751  12.767  0.00  0.00    -0.395 OA
HETATM   59  H   UNK N   1      35.450  14.698  13.271  0.00  0.00     0.210 HD
ENDBRANCH  46  58
BRANCH  55  60
HETATM   60  C   UNK N   1      35.515   8.528   7.977  0.00  0.00     0.008 C 
HETATM   61  C   UNK N   1      34.441   8.486   6.897  0.00  0.00     0.006 C 
ENDBRANCH  55  60
BRANCH  56  62
HETATM   62  O   UNK N   1      37.357   9.155  10.114  0.00  0.00    -0.349 OA
HETATM   63  H   UNK N   1      37.518   8.232  10.094  0.00  0.00     0.219 HD
ENDBRANCH  56  62
ENDBRANCH  42  43
ENDBRANCH  41  42
BRANCH  41  64
HETATM   64  O   UNK N   1      38.914  14.132   6.839  0.00  0.00    -0.395 OA
HETATM   65  H   UNK N   1      38.681  15.073   6.890  0.00  0.00     0.210 HD
ENDBRANCH  41  64
ENDBRANCH  39  41
ENDBRANCH  38  39
ENDBRANCH  37  38
ENDBRANCH  36  37
ENDBRANCH  34  35
ENDBRANCH  15  32
BRANCH  14  66
HETATM   66  O   UNK N   1      28.393  10.438   1.619  0.00  0.00    -0.391 OA
HETATM   67  H   UNK N   1      27.573  10.630   1.137  0.00  0.00     0.210 HD
ENDBRANCH  14  66
BRANCH  13  68
HETATM   68  C   UNK N   1      29.531  17.660   5.515  0.00  0.00     0.073 C 
BRANCH  68  69
HETATM   69  C   UNK N   1      28.514  18.732   5.580  0.00  0.00    -0.053 A 
HETATM   70  C   UNK N   1      28.081  19.249   6.803  0.00  0.00     0.007 A 
HETATM   71  C   UNK N   1      27.125  20.268   6.823  0.00  0.00     0.003 A 
HETATM   72  C   UNK N   1      26.614  20.770   5.620  0.00  0.00     0.036 A 
HETATM   73  C   UNK N   1      27.056  20.248   4.400  0.00  0.00     0.066 A 
HETATM   74  C   UNK N   1      28.001  19.228   4.382  0.00  0.00     0.043 A 
BRANCH  73  75
HETATM   75  O   UNK N   1      26.574  20.730   3.244  0.00  0.00    -0.361 OA
HETATM   76  H   UNK N   1      25.668  20.859   3.044  0.00  0.00     0.217 HD
ENDBRANCH  73  75
ENDBRANCH  68  69
ENDBRANCH  13  68
BRANCH  17  77
HETATM   77  O   UNK N   1      27.098  11.114   4.493  0.00  0.00    -0.394 OA
HETATM   78  H   UNK N   1      26.949  10.497   5.226  0.00  0.00     0.210 HD
ENDBRANCH  17  77
BRANCH  11  79
HETATM   79  C   UNK N   1      24.441  12.365   4.517  0.00  0.00     0.022 C 
BRANCH  79  80
HETATM   80  C   UNK N   1      23.760  12.928   5.779  0.00  0.00     0.079 C 
BRANCH  80  81
HETATM   81  C   UNK N   1      24.391  12.534   7.081  0.00  0.00     0.123 C 
HETATM   82  C   UNK N   1      23.882  11.367   7.853  0.00  0.00     0.091 C 
HETATM   83  O   UNK N   1      25.302  13.207   7.538  0.00  0.00    -0.298 OA
ENDBRANCH  80  81
ENDBRANCH  79  80
ENDBRANCH  11  79
BRANCH  19  84
HETATM   84  O   UNK N   1      26.307  15.758   6.581  0.00  0.00    -0.348 OA
HETATM   85  H   UNK N   1      26.419  15.708   7.509  0.00  0.00     0.219 HD
ENDBRANCH  19  84
BRANCH  18  86
HETATM   86  O   UNK N   1      24.973  13.579   1.740  0.00  0.00    -0.349 OA
HETATM   87  H   UNK N   1      25.437  13.432   0.939  0.00  0.00     0.219 HD
ENDBRANCH  18  86
BRANCH  16  88
HETATM   88  C   UNK N   1      24.199  16.570   4.866  0.00  0.00     0.008 C 
HETATM   89  C   UNK N   1      24.033  18.073   5.066  0.00  0.00     0.012 C 
HETATM   90  C   UNK N   1      23.074  16.130   3.937  0.00  0.00     0.012 C 
ENDBRANCH  16  88
TORSDOF 23
ENDMDL
