MODEL 1
REMARK VINA RESULT:      -5.5      0.000      0.000
REMARK  28 active torsions:
REMARK  status: ('A' for Active; 'I' for Inactive)
REMARK    1  A    between atoms: C_2  and  C_3 
REMARK    2  A    between atoms: C_3  and  C_4 
REMARK    3  A    between atoms: C_4  and  C_5 
REMARK    4  A    between atoms: C_5  and  C_6 
REMARK    5  A    between atoms: C_6  and  C_7 
REMARK    6  A    between atoms: C_7  and  C_8 
REMARK    7  A    between atoms: C_8  and  C_9 
REMARK    8  A    between atoms: C_9  and  C_10 
REMARK    9  A    between atoms: C_10  and  C_11 
REMARK   10  A    between atoms: C_11  and  C_12 
REMARK   11  A    between atoms: C_12  and  C_13 
REMARK   12  A    between atoms: C_13  and  C_14 
REMARK   13  A    between atoms: C_14  and  C_15 
REMARK   14  A    between atoms: C_15  and  C_16 
REMARK   15  A    between atoms: C_16  and  C_17 
REMARK   16  A    between atoms: C_17  and  C_18 
REMARK   17  A    between atoms: C_18  and  O_19 
REMARK   18  A    between atoms: O_19  and  C_20 
REMARK   19  A    between atoms: C_20  and  C_21 
REMARK   20  A    between atoms: C_21  and  O_22 
REMARK   21  A    between atoms: C_21  and  C_23 
REMARK   22  A    between atoms: C_23  and  O_24 
REMARK   23  A    between atoms: P_25  and  O_24 
REMARK   24  A    between atoms: P_25  and  O_26 
REMARK   25  A    between atoms: P_25  and  O_28 
REMARK   26  A    between atoms: O_28  and  C_29 
REMARK   27  A    between atoms: C_29  and  C_30 
REMARK   28  A    between atoms: C_30  and  N_31 
ROOT
HETATM    1  C   UNK N   1      23.923  20.667   3.387  0.00  0.00     0.167 C 
ENDROOT
BRANCH   1   2
HETATM    2  C   UNK N   1      25.103  20.541   2.442  0.00  0.00     0.026 C 
BRANCH   2   3
HETATM    3  C   UNK N   1      26.352  20.116   3.202  0.00  0.00     0.002 C 
BRANCH   3   4
HETATM    4  C   UNK N   1      26.255  20.423   4.691  0.00  0.00     0.000 C 
BRANCH   4   5
HETATM    5  C   UNK N   1      27.629  20.485   5.336  0.00  0.00     0.000 C 
BRANCH   5   6
HETATM    6  C   UNK N   1      27.613  19.804   6.694  0.00  0.00     0.000 C 
BRANCH   6   7
HETATM    7  C   UNK N   1      27.757  18.299   6.546  0.00  0.00     0.000 C 
BRANCH   7   8
HETATM    8  C   UNK N   1      28.751  17.944   5.446  0.00  0.00     0.000 C 
BRANCH   8   9
HETATM    9  C   UNK N   1      30.091  17.511   6.021  0.00  0.00     0.000 C 
BRANCH   9  10
HETATM   10  C   UNK N   1      29.911  16.989   7.433  0.00  0.00     0.000 C 
BRANCH  10  11
HETATM   11  C   UNK N   1      30.684  17.854   8.404  0.00  0.00     0.000 C 
BRANCH  11  12
HETATM   12  C   UNK N   1      32.087  17.299   8.550  0.00  0.00     0.000 C 
BRANCH  12  13
HETATM   13  C   UNK N   1      33.108  18.285   8.015  0.00  0.00     0.000 C 
BRANCH  13  14
HETATM   14  C   UNK N   1      34.327  17.544   7.501  0.00  0.00     0.000 C 
BRANCH  14  15
HETATM   15  C   UNK N   1      33.906  16.584   6.409  0.00  0.00     0.000 C 
BRANCH  15  16
HETATM   16  C   UNK N   1      33.502  17.368   5.179  0.00  0.00    -0.000 C 
BRANCH  16  17
HETATM   17  C   UNK N   1      33.168  16.407   4.058  0.00  0.00    -0.005 C 
HETATM   18  C   UNK N   1      32.251  17.091   3.066  0.00  0.00     0.005 C 
ENDBRANCH  16  17
ENDBRANCH  15  16
ENDBRANCH  14  15
ENDBRANCH  13  14
ENDBRANCH  12  13
ENDBRANCH  11  12
ENDBRANCH  10  11
ENDBRANCH   9  10
ENDBRANCH   8   9
ENDBRANCH   7   8
ENDBRANCH   6   7
ENDBRANCH   5   6
ENDBRANCH   4   5
ENDBRANCH   3   4
ENDBRANCH   2   3
ENDBRANCH   1   2
BRANCH   1  19
HETATM   19  O   UNK N   1      22.858  21.307   2.746  0.00  0.00    -0.389 OA
BRANCH  19  20
HETATM   20  C   UNK N   1      22.378  20.354   1.846  0.00  0.00     0.201 C 
BRANCH  20  21
HETATM   21  C   UNK N   1      20.911  20.609   1.548  0.00  0.00     0.166 C 
BRANCH  21  22
HETATM   22  O   UNK N   1      20.693  20.537   0.173  0.00  0.00    -0.391 OA
HETATM   23  H   UNK N   1      21.333  20.857  -0.482  0.00  0.00     0.210 HD
ENDBRANCH  21  22
BRANCH  21  24
HETATM   24  C   UNK N   1      20.054  19.579   2.258  0.00  0.00     0.214 C 
BRANCH  24  25
HETATM   25  O   UNK N   1      20.872  18.653   2.916  0.00  0.00    -0.294 OA
BRANCH  25  26
HETATM   26  P   UNK N   1      20.218  17.098   2.498  0.00  0.00     0.393 P 
HETATM   27  O   UNK N   1      19.214  17.644   3.553  0.00  0.00    -0.631 OA
BRANCH  26  28
HETATM   28  O   UNK N   1      21.780  16.886   3.229  0.00  0.00    -0.307 OA
HETATM   29  H   UNK N   1      22.580  16.901   2.680  0.00  0.00     0.222 HD
ENDBRANCH  26  28
BRANCH  26  30
HETATM   30  O   UNK N   1      20.148  15.803   3.661  0.00  0.00    -0.295 OA
BRANCH  30  31
HETATM   31  C   UNK N   1      19.670  16.394   4.837  0.00  0.00     0.208 C 
BRANCH  31  32
HETATM   32  C   UNK N   1      20.129  15.568   6.042  0.00  0.00     0.262 C 
BRANCH  32  33
HETATM   33  N   UNK N   1      21.088  16.277   6.896  0.00  0.00    -0.077 N 
HETATM   34  C   UNK N   1      22.395  15.676   6.700  0.00  0.00     0.271 C 
HETATM   35  C   UNK N   1      20.729  16.150   8.297  0.00  0.00     0.271 C 
HETATM   36  C   UNK N   1      21.181  17.684   6.538  0.00  0.00     0.271 C 
ENDBRANCH  32  33
ENDBRANCH  31  32
ENDBRANCH  30  31
ENDBRANCH  26  30
ENDBRANCH  25  26
ENDBRANCH  24  25
ENDBRANCH  21  24
ENDBRANCH  20  21
ENDBRANCH  19  20
ENDBRANCH   1  19
TORSDOF 28
ENDMDL
MODEL 2
REMARK VINA RESULT:      -5.4     10.714     14.818
REMARK  28 active torsions:
REMARK  status: ('A' for Active; 'I' for Inactive)
REMARK    1  A    between atoms: C_2  and  C_3 
REMARK    2  A    between atoms: C_3  and  C_4 
REMARK    3  A    between atoms: C_4  and  C_5 
REMARK    4  A    between atoms: C_5  and  C_6 
REMARK    5  A    between atoms: C_6  and  C_7 
REMARK    6  A    between atoms: C_7  and  C_8 
REMARK    7  A    between atoms: C_8  and  C_9 
REMARK    8  A    between atoms: C_9  and  C_10 
REMARK    9  A    between atoms: C_10  and  C_11 
REMARK   10  A    between atoms: C_11  and  C_12 
REMARK   11  A    between atoms: C_12  and  C_13 
REMARK   12  A    between atoms: C_13  and  C_14 
REMARK   13  A    between atoms: C_14  and  C_15 
REMARK   14  A    between atoms: C_15  and  C_16 
REMARK   15  A    between atoms: C_16  and  C_17 
REMARK   16  A    between atoms: C_17  and  C_18 
REMARK   17  A    between atoms: C_18  and  O_19 
REMARK   18  A    between atoms: O_19  and  C_20 
REMARK   19  A    between atoms: C_20  and  C_21 
REMARK   20  A    between atoms: C_21  and  O_22 
REMARK   21  A    between atoms: C_21  and  C_23 
REMARK   22  A    between atoms: C_23  and  O_24 
REMARK   23  A    between atoms: P_25  and  O_24 
REMARK   24  A    between atoms: P_25  and  O_26 
REMARK   25  A    between atoms: P_25  and  O_28 
REMARK   26  A    between atoms: O_28  and  C_29 
REMARK   27  A    between atoms: C_29  and  C_30 
REMARK   28  A    between atoms: C_30  and  N_31 
ROOT
HETATM    1  C   UNK N   1      35.207  12.161  10.308  0.00  0.00     0.167 C 
ENDROOT
BRANCH   1   2
HETATM    2  C   UNK N   1      34.312  11.166  11.023  0.00  0.00     0.026 C 
BRANCH   2   3
HETATM    3  C   UNK N   1      34.933  10.745  12.348  0.00  0.00     0.002 C 
BRANCH   3   4
HETATM    4  C   UNK N   1      33.899  10.645  13.463  0.00  0.00     0.000 C 
BRANCH   4   5
HETATM    5  C   UNK N   1      34.220  11.597  14.604  0.00  0.00     0.000 C 
BRANCH   5   6
HETATM    6  C   UNK N   1      35.455  12.420  14.281  0.00  0.00     0.000 C 
BRANCH   6   7
HETATM    7  C   UNK N   1      36.141  12.887  15.553  0.00  0.00     0.000 C 
BRANCH   7   8
HETATM    8  C   UNK N   1      35.491  12.275  16.789  0.00  0.00     0.000 C 
BRANCH   8   9
HETATM    9  C   UNK N   1      35.030  13.344  17.767  0.00  0.00     0.000 C 
BRANCH   9  10
HETATM   10  C   UNK N   1      35.130  12.830  19.190  0.00  0.00     0.000 C 
BRANCH  10  11
HETATM   11  C   UNK N   1      35.666  11.415  19.189  0.00  0.00     0.000 C 
BRANCH  11  12
HETATM   12  C   UNK N   1      34.827  10.570  20.128  0.00  0.00     0.000 C 
BRANCH  12  13
HETATM   13  C   UNK N   1      34.846   9.116  19.695  0.00  0.00     0.000 C 
BRANCH  13  14
HETATM   14  C   UNK N   1      36.230   8.738  19.205  0.00  0.00     0.000 C 
BRANCH  14  15
HETATM   15  C   UNK N   1      36.122   8.097  17.839  0.00  0.00     0.000 C 
BRANCH  15  16
HETATM   16  C   UNK N   1      37.254   8.587  16.963  0.00  0.00    -0.000 C 
BRANCH  16  17
HETATM   17  C   UNK N   1      36.700   9.026  15.624  0.00  0.00    -0.005 C 
HETATM   18  C   UNK N   1      37.825   9.570  14.768  0.00  0.00     0.005 C 
ENDBRANCH  16  17
ENDBRANCH  15  16
ENDBRANCH  14  15
ENDBRANCH  13  14
ENDBRANCH  12  13
ENDBRANCH  11  12
ENDBRANCH  10  11
ENDBRANCH   9  10
ENDBRANCH   8   9
ENDBRANCH   7   8
ENDBRANCH   6   7
ENDBRANCH   5   6
ENDBRANCH   4   5
ENDBRANCH   3   4
ENDBRANCH   2   3
ENDBRANCH   1   2
BRANCH   1  19
HETATM   19  O   UNK N   1      34.894  13.464  10.706  0.00  0.00    -0.389 OA
BRANCH  19  20
HETATM   20  C   UNK N   1      36.136  14.059  10.934  0.00  0.00     0.201 C 
BRANCH  20  21
HETATM   21  C   UNK N   1      35.974  15.561  11.091  0.00  0.00     0.166 C 
BRANCH  21  22
HETATM   22  O   UNK N   1      37.180  16.195  10.793  0.00  0.00    -0.391 OA
HETATM   23  H   UNK N   1      37.801  16.496  11.474  0.00  0.00     0.210 HD
ENDBRANCH  21  22
BRANCH  21  24
HETATM   24  C   UNK N   1      34.887  16.063  10.161  0.00  0.00     0.214 C 
BRANCH  24  25
HETATM   25  O   UNK N   1      35.223  17.333   9.680  0.00  0.00    -0.294 OA
BRANCH  25  26
HETATM   26  P   UNK N   1      34.056  17.668   8.438  0.00  0.00     0.393 P 
HETATM   27  O   UNK N   1      34.720  16.343   7.965  0.00  0.00    -0.631 OA
BRANCH  26  28
HETATM   28  O   UNK N   1      35.239  18.939   8.469  0.00  0.00    -0.307 OA
HETATM   29  H   UNK N   1      34.962  19.859   8.613  0.00  0.00     0.222 HD
ENDBRANCH  26  28
BRANCH  26  30
HETATM   30  O   UNK N   1      34.548  18.049   6.810  0.00  0.00    -0.295 OA
BRANCH  30  31
HETATM   31  C   UNK N   1      34.018  17.022   6.019  0.00  0.00     0.208 C 
BRANCH  31  32
HETATM   32  C   UNK N   1      33.048  17.620   4.996  0.00  0.00     0.262 C 
BRANCH  32  33
HETATM   33  N   UNK N   1      32.280  16.604   4.268  0.00  0.00    -0.077 N 
HETATM   34  C   UNK N   1      32.220  17.002   2.873  0.00  0.00     0.271 C 
HETATM   35  C   UNK N   1      30.924  16.513   4.778  0.00  0.00     0.271 C 
HETATM   36  C   UNK N   1      32.921  15.300   4.338  0.00  0.00     0.271 C 
ENDBRANCH  32  33
ENDBRANCH  31  32
ENDBRANCH  30  31
ENDBRANCH  26  30
ENDBRANCH  25  26
ENDBRANCH  24  25
ENDBRANCH  21  24
ENDBRANCH  20  21
ENDBRANCH  19  20
ENDBRANCH   1  19
TORSDOF 28
ENDMDL
MODEL 3
REMARK VINA RESULT:      -5.3     12.319     16.481
REMARK  28 active torsions:
REMARK  status: ('A' for Active; 'I' for Inactive)
REMARK    1  A    between atoms: C_2  and  C_3 
REMARK    2  A    between atoms: C_3  and  C_4 
REMARK    3  A    between atoms: C_4  and  C_5 
REMARK    4  A    between atoms: C_5  and  C_6 
REMARK    5  A    between atoms: C_6  and  C_7 
REMARK    6  A    between atoms: C_7  and  C_8 
REMARK    7  A    between atoms: C_8  and  C_9 
REMARK    8  A    between atoms: C_9  and  C_10 
REMARK    9  A    between atoms: C_10  and  C_11 
REMARK   10  A    between atoms: C_11  and  C_12 
REMARK   11  A    between atoms: C_12  and  C_13 
REMARK   12  A    between atoms: C_13  and  C_14 
REMARK   13  A    between atoms: C_14  and  C_15 
REMARK   14  A    between atoms: C_15  and  C_16 
REMARK   15  A    between atoms: C_16  and  C_17 
REMARK   16  A    between atoms: C_17  and  C_18 
REMARK   17  A    between atoms: C_18  and  O_19 
REMARK   18  A    between atoms: O_19  and  C_20 
REMARK   19  A    between atoms: C_20  and  C_21 
REMARK   20  A    between atoms: C_21  and  O_22 
REMARK   21  A    between atoms: C_21  and  C_23 
REMARK   22  A    between atoms: C_23  and  O_24 
REMARK   23  A    between atoms: P_25  and  O_24 
REMARK   24  A    between atoms: P_25  and  O_26 
REMARK   25  A    between atoms: P_25  and  O_28 
REMARK   26  A    between atoms: O_28  and  C_29 
REMARK   27  A    between atoms: C_29  and  C_30 
REMARK   28  A    between atoms: C_30  and  N_31 
ROOT
HETATM    1  C   UNK N   1      35.340  13.275  13.363  0.00  0.00     0.167 C 
ENDROOT
BRANCH   1   2
HETATM    2  C   UNK N   1      34.642  11.944  13.571  0.00  0.00     0.026 C 
BRANCH   2   3
HETATM    3  C   UNK N   1      34.087  11.846  14.986  0.00  0.00     0.002 C 
BRANCH   3   4
HETATM    4  C   UNK N   1      35.190  11.816  16.037  0.00  0.00     0.000 C 
BRANCH   4   5
HETATM    5  C   UNK N   1      35.073  12.989  16.997  0.00  0.00     0.000 C 
BRANCH   5   6
HETATM    6  C   UNK N   1      35.261  12.525  18.431  0.00  0.00     0.000 C 
BRANCH   6   7
HETATM    7  C   UNK N   1      35.738  11.083  18.474  0.00  0.00     0.000 C 
BRANCH   7   8
HETATM    8  C   UNK N   1      35.966  10.620  19.908  0.00  0.00     0.000 C 
BRANCH   8   9
HETATM    9  C   UNK N   1      34.957   9.559  20.322  0.00  0.00     0.000 C 
BRANCH   9  10
HETATM   10  C   UNK N   1      34.013   9.260  19.174  0.00  0.00     0.000 C 
BRANCH  10  11
HETATM   11  C   UNK N   1      33.223   8.004  19.471  0.00  0.00     0.000 C 
BRANCH  11  12
HETATM   12  C   UNK N   1      31.916   8.389  20.136  0.00  0.00     0.000 C 
BRANCH  12  13
HETATM   13  C   UNK N   1      31.991   8.153  21.632  0.00  0.00     0.000 C 
BRANCH  13  14
HETATM   14  C   UNK N   1      32.007   9.480  22.367  0.00  0.00     0.000 C 
BRANCH  14  15
HETATM   15  C   UNK N   1      32.396   9.249  23.811  0.00  0.00     0.000 C 
BRANCH  15  16
HETATM   16  C   UNK N   1      33.897   9.378  23.953  0.00  0.00    -0.000 C 
BRANCH  16  17
HETATM   17  C   UNK N   1      34.220  10.106  25.240  0.00  0.00    -0.005 C 
HETATM   18  C   UNK N   1      33.046  10.977  25.633  0.00  0.00     0.005 C 
ENDBRANCH  16  17
ENDBRANCH  15  16
ENDBRANCH  14  15
ENDBRANCH  13  14
ENDBRANCH  12  13
ENDBRANCH  11  12
ENDBRANCH  10  11
ENDBRANCH   9  10
ENDBRANCH   8   9
ENDBRANCH   7   8
ENDBRANCH   6   7
ENDBRANCH   5   6
ENDBRANCH   4   5
ENDBRANCH   3   4
ENDBRANCH   2   3
ENDBRANCH   1   2
BRANCH   1  19
HETATM   19  O   UNK N   1      34.712  13.995  12.344  0.00  0.00    -0.389 OA
BRANCH  19  20
HETATM   20  C   UNK N   1      35.742  14.292  11.450  0.00  0.00     0.201 C 
BRANCH  20  21
HETATM   21  C   UNK N   1      35.907  15.796  11.324  0.00  0.00     0.166 C 
BRANCH  21  22
HETATM   22  O   UNK N   1      37.157  16.087  10.780  0.00  0.00    -0.391 OA
HETATM   23  H   UNK N   1      37.422  16.980  10.511  0.00  0.00     0.210 HD
ENDBRANCH  21  22
BRANCH  21  24
HETATM   24  C   UNK N   1      34.817  16.362  10.435  0.00  0.00     0.214 C 
BRANCH  24  25
HETATM   25  O   UNK N   1      35.260  17.547   9.836  0.00  0.00    -0.294 OA
BRANCH  25  26
HETATM   26  P   UNK N   1      34.601  17.513   8.229  0.00  0.00     0.393 P 
HETATM   27  O   UNK N   1      35.027  18.997   8.415  0.00  0.00    -0.631 OA
BRANCH  26  28
HETATM   28  O   UNK N   1      33.353  17.111   9.369  0.00  0.00    -0.307 OA
HETATM   29  H   UNK N   1      33.254  17.629  10.184  0.00  0.00     0.222 HD
ENDBRANCH  26  28
BRANCH  26  30
HETATM   30  O   UNK N   1      33.144  18.379   7.828  0.00  0.00    -0.295 OA
BRANCH  30  31
HETATM   31  C   UNK N   1      32.506  17.595   6.859  0.00  0.00     0.208 C 
BRANCH  31  32
HETATM   32  C   UNK N   1      33.440  17.413   5.660  0.00  0.00     0.262 C 
BRANCH  32  33
HETATM   33  N   UNK N   1      33.113  16.236   4.848  0.00  0.00    -0.077 N 
HETATM   34  C   UNK N   1      31.888  15.656   5.371  0.00  0.00     0.271 C 
HETATM   35  C   UNK N   1      34.165  15.238   4.931  0.00  0.00     0.271 C 
HETATM   36  C   UNK N   1      32.884  16.594   3.457  0.00  0.00     0.271 C 
ENDBRANCH  32  33
ENDBRANCH  31  32
ENDBRANCH  30  31
ENDBRANCH  26  30
ENDBRANCH  25  26
ENDBRANCH  24  25
ENDBRANCH  21  24
ENDBRANCH  20  21
ENDBRANCH  19  20
ENDBRANCH   1  19
TORSDOF 28
ENDMDL
MODEL 4
REMARK VINA RESULT:      -5.1      1.678      2.458
REMARK  28 active torsions:
REMARK  status: ('A' for Active; 'I' for Inactive)
REMARK    1  A    between atoms: C_2  and  C_3 
REMARK    2  A    between atoms: C_3  and  C_4 
REMARK    3  A    between atoms: C_4  and  C_5 
REMARK    4  A    between atoms: C_5  and  C_6 
REMARK    5  A    between atoms: C_6  and  C_7 
REMARK    6  A    between atoms: C_7  and  C_8 
REMARK    7  A    between atoms: C_8  and  C_9 
REMARK    8  A    between atoms: C_9  and  C_10 
REMARK    9  A    between atoms: C_10  and  C_11 
REMARK   10  A    between atoms: C_11  and  C_12 
REMARK   11  A    between atoms: C_12  and  C_13 
REMARK   12  A    between atoms: C_13  and  C_14 
REMARK   13  A    between atoms: C_14  and  C_15 
REMARK   14  A    between atoms: C_15  and  C_16 
REMARK   15  A    between atoms: C_16  and  C_17 
REMARK   16  A    between atoms: C_17  and  C_18 
REMARK   17  A    between atoms: C_18  and  O_19 
REMARK   18  A    between atoms: O_19  and  C_20 
REMARK   19  A    between atoms: C_20  and  C_21 
REMARK   20  A    between atoms: C_21  and  O_22 
REMARK   21  A    between atoms: C_21  and  C_23 
REMARK   22  A    between atoms: C_23  and  O_24 
REMARK   23  A    between atoms: P_25  and  O_24 
REMARK   24  A    between atoms: P_25  and  O_26 
REMARK   25  A    between atoms: P_25  and  O_28 
REMARK   26  A    between atoms: O_28  and  C_29 
REMARK   27  A    between atoms: C_29  and  C_30 
REMARK   28  A    between atoms: C_30  and  N_31 
ROOT
HETATM    1  C   UNK N   1      23.314  20.308   2.974  0.00  0.00     0.167 C 
ENDROOT
BRANCH   1   2
HETATM    2  C   UNK N   1      24.767  20.623   2.670  0.00  0.00     0.026 C 
BRANCH   2   3
HETATM    3  C   UNK N   1      25.680  19.983   3.707  0.00  0.00     0.002 C 
BRANCH   3   4
HETATM    4  C   UNK N   1      25.912  18.502   3.436  0.00  0.00     0.000 C 
BRANCH   4   5
HETATM    5  C   UNK N   1      26.967  17.927   4.366  0.00  0.00     0.000 C 
BRANCH   5   6
HETATM    6  C   UNK N   1      26.850  18.540   5.751  0.00  0.00     0.000 C 
BRANCH   6   7
HETATM    7  C   UNK N   1      28.216  18.667   6.403  0.00  0.00     0.000 C 
BRANCH   7   8
HETATM    8  C   UNK N   1      28.107  19.256   7.805  0.00  0.00     0.000 C 
BRANCH   8   9
HETATM    9  C   UNK N   1      28.603  18.281   8.862  0.00  0.00     0.000 C 
BRANCH   9  10
HETATM   10  C   UNK N   1      30.088  18.475   9.098  0.00  0.00     0.000 C 
BRANCH  10  11
HETATM   11  C   UNK N   1      30.835  17.209   8.743  0.00  0.00     0.000 C 
BRANCH  11  12
HETATM   12  C   UNK N   1      31.941  17.548   7.762  0.00  0.00     0.000 C 
BRANCH  12  13
HETATM   13  C   UNK N   1      31.578  17.072   6.367  0.00  0.00     0.000 C 
BRANCH  13  14
HETATM   14  C   UNK N   1      30.651  15.875   6.452  0.00  0.00     0.000 C 
BRANCH  14  15
HETATM   15  C   UNK N   1      30.004  15.646   5.103  0.00  0.00     0.000 C 
BRANCH  15  16
HETATM   16  C   UNK N   1      30.411  16.754   4.156  0.00  0.00    -0.000 C 
BRANCH  16  17
HETATM   17  C   UNK N   1      30.055  16.361   2.739  0.00  0.00    -0.005 C 
HETATM   18  C   UNK N   1      28.975  15.299   2.767  0.00  0.00     0.005 C 
ENDBRANCH  16  17
ENDBRANCH  15  16
ENDBRANCH  14  15
ENDBRANCH  13  14
ENDBRANCH  12  13
ENDBRANCH  11  12
ENDBRANCH  10  11
ENDBRANCH   9  10
ENDBRANCH   8   9
ENDBRANCH   7   8
ENDBRANCH   6   7
ENDBRANCH   5   6
ENDBRANCH   4   5
ENDBRANCH   3   4
ENDBRANCH   2   3
ENDBRANCH   1   2
BRANCH   1  19
HETATM   19  O   UNK N   1      22.483  20.887   2.011  0.00  0.00    -0.389 OA
BRANCH  19  20
HETATM   20  C   UNK N   1      21.197  20.730   2.530  0.00  0.00     0.201 C 
BRANCH  20  21
HETATM   21  C   UNK N   1      20.323  19.978   1.542  0.00  0.00     0.166 C 
BRANCH  21  22
HETATM   22  O   UNK N   1      20.798  20.181   0.247  0.00  0.00    -0.391 OA
HETATM   23  H   UNK N   1      20.617  19.570  -0.484  0.00  0.00     0.210 HD
ENDBRANCH  21  22
BRANCH  21  24
HETATM   24  C   UNK N   1      20.335  18.497   1.867  0.00  0.00     0.214 C 
BRANCH  24  25
HETATM   25  O   UNK N   1      19.693  18.273   3.090  0.00  0.00    -0.294 OA
BRANCH  25  26
HETATM   26  P   UNK N   1      20.572  16.969   3.829  0.00  0.00     0.393 P 
HETATM   27  O   UNK N   1      20.890  16.811   2.314  0.00  0.00    -0.631 OA
BRANCH  26  28
HETATM   28  O   UNK N   1      18.871  16.740   4.099  0.00  0.00    -0.307 OA
HETATM   29  H   UNK N   1      18.292  17.506   4.236  0.00  0.00     0.222 HD
ENDBRANCH  26  28
BRANCH  26  30
HETATM   30  O   UNK N   1      20.151  15.306   3.523  0.00  0.00    -0.295 OA
BRANCH  30  31
HETATM   31  C   UNK N   1      21.159  14.555   4.141  0.00  0.00     0.208 C 
BRANCH  31  32
HETATM   32  C   UNK N   1      21.742  15.354   5.310  0.00  0.00     0.262 C 
BRANCH  32  33
HETATM   33  N   UNK N   1      23.060  14.871   5.736  0.00  0.00    -0.077 N 
HETATM   34  C   UNK N   1      23.948  16.016   5.833  0.00  0.00     0.271 C 
HETATM   35  C   UNK N   1      23.613  13.943   4.765  0.00  0.00     0.271 C 
HETATM   36  C   UNK N   1      22.999  14.236   7.043  0.00  0.00     0.271 C 
ENDBRANCH  32  33
ENDBRANCH  31  32
ENDBRANCH  30  31
ENDBRANCH  26  30
ENDBRANCH  25  26
ENDBRANCH  24  25
ENDBRANCH  21  24
ENDBRANCH  20  21
ENDBRANCH  19  20
ENDBRANCH   1  19
TORSDOF 28
ENDMDL
MODEL 5
REMARK VINA RESULT:      -5.1     12.010     15.920
REMARK  28 active torsions:
REMARK  status: ('A' for Active; 'I' for Inactive)
REMARK    1  A    between atoms: C_2  and  C_3 
REMARK    2  A    between atoms: C_3  and  C_4 
REMARK    3  A    between atoms: C_4  and  C_5 
REMARK    4  A    between atoms: C_5  and  C_6 
REMARK    5  A    between atoms: C_6  and  C_7 
REMARK    6  A    between atoms: C_7  and  C_8 
REMARK    7  A    between atoms: C_8  and  C_9 
REMARK    8  A    between atoms: C_9  and  C_10 
REMARK    9  A    between atoms: C_10  and  C_11 
REMARK   10  A    between atoms: C_11  and  C_12 
REMARK   11  A    between atoms: C_12  and  C_13 
REMARK   12  A    between atoms: C_13  and  C_14 
REMARK   13  A    between atoms: C_14  and  C_15 
REMARK   14  A    between atoms: C_15  and  C_16 
REMARK   15  A    between atoms: C_16  and  C_17 
REMARK   16  A    between atoms: C_17  and  C_18 
REMARK   17  A    between atoms: C_18  and  O_19 
REMARK   18  A    between atoms: O_19  and  C_20 
REMARK   19  A    between atoms: C_20  and  C_21 
REMARK   20  A    between atoms: C_21  and  O_22 
REMARK   21  A    between atoms: C_21  and  C_23 
REMARK   22  A    between atoms: C_23  and  O_24 
REMARK   23  A    between atoms: P_25  and  O_24 
REMARK   24  A    between atoms: P_25  and  O_26 
REMARK   25  A    between atoms: P_25  and  O_28 
REMARK   26  A    between atoms: O_28  and  C_29 
REMARK   27  A    between atoms: C_29  and  C_30 
REMARK   28  A    between atoms: C_30  and  N_31 
ROOT
HETATM    1  C   UNK N   1      36.612  12.841  12.710  0.00  0.00     0.167 C 
ENDROOT
BRANCH   1   2
HETATM    2  C   UNK N   1      36.307  12.061  13.975  0.00  0.00     0.026 C 
BRANCH   2   3
HETATM    3  C   UNK N   1      34.838  11.661  14.016  0.00  0.00     0.002 C 
BRANCH   3   4
HETATM    4  C   UNK N   1      34.165  12.069  15.321  0.00  0.00     0.000 C 
BRANCH   4   5
HETATM    5  C   UNK N   1      35.100  12.890  16.194  0.00  0.00     0.000 C 
BRANCH   5   6
HETATM    6  C   UNK N   1      35.168  12.311  17.596  0.00  0.00     0.000 C 
BRANCH   6   7
HETATM    7  C   UNK N   1      35.798  10.928  17.580  0.00  0.00     0.000 C 
BRANCH   7   8
HETATM    8  C   UNK N   1      34.858   9.886  18.176  0.00  0.00     0.000 C 
BRANCH   8   9
HETATM    9  C   UNK N   1      34.700  10.068  19.678  0.00  0.00     0.000 C 
BRANCH   9  10
HETATM   10  C   UNK N   1      33.872   8.938  20.258  0.00  0.00     0.000 C 
BRANCH  10  11
HETATM   11  C   UNK N   1      32.780   9.500  21.141  0.00  0.00     0.000 C 
BRANCH  11  12
HETATM   12  C   UNK N   1      31.848   8.376  21.550  0.00  0.00     0.000 C 
BRANCH  12  13
HETATM   13  C   UNK N   1      30.893   8.040  20.421  0.00  0.00     0.000 C 
BRANCH  13  14
HETATM   14  C   UNK N   1      30.716   6.537  20.320  0.00  0.00     0.000 C 
BRANCH  14  15
HETATM   15  C   UNK N   1      32.076   5.872  20.302  0.00  0.00     0.000 C 
BRANCH  15  16
HETATM   16  C   UNK N   1      32.424   5.482  18.882  0.00  0.00    -0.000 C 
BRANCH  16  17
HETATM   17  C   UNK N   1      33.899   5.726  18.641  0.00  0.00    -0.005 C 
HETATM   18  C   UNK N   1      34.695   5.190  19.812  0.00  0.00     0.005 C 
ENDBRANCH  16  17
ENDBRANCH  15  16
ENDBRANCH  14  15
ENDBRANCH  13  14
ENDBRANCH  12  13
ENDBRANCH  11  12
ENDBRANCH  10  11
ENDBRANCH   9  10
ENDBRANCH   8   9
ENDBRANCH   7   8
ENDBRANCH   6   7
ENDBRANCH   5   6
ENDBRANCH   4   5
ENDBRANCH   3   4
ENDBRANCH   2   3
ENDBRANCH   1   2
BRANCH   1  19
HETATM   19  O   UNK N   1      36.472  14.212  12.943  0.00  0.00    -0.389 OA
BRANCH  19  20
HETATM   20  C   UNK N   1      35.542  14.628  11.990  0.00  0.00     0.201 C 
BRANCH  20  21
HETATM   21  C   UNK N   1      35.922  15.995  11.451  0.00  0.00     0.166 C 
BRANCH  21  22
HETATM   22  O   UNK N   1      37.158  15.919  10.810  0.00  0.00    -0.391 OA
HETATM   23  H   UNK N   1      37.974  16.278  11.191  0.00  0.00     0.210 HD
ENDBRANCH  21  22
BRANCH  21  24
HETATM   24  C   UNK N   1      34.867  16.477  10.474  0.00  0.00     0.214 C 
BRANCH  24  25
HETATM   25  O   UNK N   1      35.301  17.650   9.846  0.00  0.00    -0.294 OA
BRANCH  25  26
HETATM   26  P   UNK N   1      34.582  17.606   8.265  0.00  0.00     0.393 P 
HETATM   27  O   UNK N   1      35.000  19.095   8.434  0.00  0.00    -0.631 OA
BRANCH  26  28
HETATM   28  O   UNK N   1      33.382  17.195   9.452  0.00  0.00    -0.307 OA
HETATM   29  H   UNK N   1      32.439  17.235   9.225  0.00  0.00     0.222 HD
ENDBRANCH  26  28
BRANCH  26  30
HETATM   30  O   UNK N   1      33.102  18.458   7.919  0.00  0.00    -0.295 OA
BRANCH  30  31
HETATM   31  C   UNK N   1      32.137  17.459   7.749  0.00  0.00     0.208 C 
BRANCH  31  32
HETATM   32  C   UNK N   1      32.002  17.132   6.259  0.00  0.00     0.262 C 
BRANCH  32  33
HETATM   33  N   UNK N   1      31.344  15.845   6.009  0.00  0.00    -0.077 N 
HETATM   34  C   UNK N   1      31.775  14.913   7.036  0.00  0.00     0.271 C 
HETATM   35  C   UNK N   1      31.726  15.310   4.714  0.00  0.00     0.271 C 
HETATM   36  C   UNK N   1      29.896  15.961   6.085  0.00  0.00     0.271 C 
ENDBRANCH  32  33
ENDBRANCH  31  32
ENDBRANCH  30  31
ENDBRANCH  26  30
ENDBRANCH  25  26
ENDBRANCH  24  25
ENDBRANCH  21  24
ENDBRANCH  20  21
ENDBRANCH  19  20
ENDBRANCH   1  19
TORSDOF 28
ENDMDL
MODEL 6
REMARK VINA RESULT:      -5.1     10.020     14.220
REMARK  28 active torsions:
REMARK  status: ('A' for Active; 'I' for Inactive)
REMARK    1  A    between atoms: C_2  and  C_3 
REMARK    2  A    between atoms: C_3  and  C_4 
REMARK    3  A    between atoms: C_4  and  C_5 
REMARK    4  A    between atoms: C_5  and  C_6 
REMARK    5  A    between atoms: C_6  and  C_7 
REMARK    6  A    between atoms: C_7  and  C_8 
REMARK    7  A    between atoms: C_8  and  C_9 
REMARK    8  A    between atoms: C_9  and  C_10 
REMARK    9  A    between atoms: C_10  and  C_11 
REMARK   10  A    between atoms: C_11  and  C_12 
REMARK   11  A    between atoms: C_12  and  C_13 
REMARK   12  A    between atoms: C_13  and  C_14 
REMARK   13  A    between atoms: C_14  and  C_15 
REMARK   14  A    between atoms: C_15  and  C_16 
REMARK   15  A    between atoms: C_16  and  C_17 
REMARK   16  A    between atoms: C_17  and  C_18 
REMARK   17  A    between atoms: C_18  and  O_19 
REMARK   18  A    between atoms: O_19  and  C_20 
REMARK   19  A    between atoms: C_20  and  C_21 
REMARK   20  A    between atoms: C_21  and  O_22 
REMARK   21  A    between atoms: C_21  and  C_23 
REMARK   22  A    between atoms: C_23  and  O_24 
REMARK   23  A    between atoms: P_25  and  O_24 
REMARK   24  A    between atoms: P_25  and  O_26 
REMARK   25  A    between atoms: P_25  and  O_28 
REMARK   26  A    between atoms: O_28  and  C_29 
REMARK   27  A    between atoms: C_29  and  C_30 
REMARK   28  A    between atoms: C_30  and  N_31 
ROOT
HETATM    1  C   UNK N   1      35.999  12.943   9.736  0.00  0.00     0.167 C 
ENDROOT
BRANCH   1   2
HETATM    2  C   UNK N   1      34.510  12.707   9.902  0.00  0.00     0.026 C 
BRANCH   2   3
HETATM    3  C   UNK N   1      34.203  11.216   9.904  0.00  0.00     0.002 C 
BRANCH   3   4
HETATM    4  C   UNK N   1      34.906  10.484  11.041  0.00  0.00     0.000 C 
BRANCH   4   5
HETATM    5  C   UNK N   1      34.006  10.356  12.258  0.00  0.00     0.000 C 
BRANCH   5   6
HETATM    6  C   UNK N   1      34.630   9.430  13.289  0.00  0.00     0.000 C 
BRANCH   6   7
HETATM    7  C   UNK N   1      35.225   8.202  12.621  0.00  0.00     0.000 C 
BRANCH   7   8
HETATM    8  C   UNK N   1      35.889   7.285  13.642  0.00  0.00     0.000 C 
BRANCH   8   9
HETATM    9  C   UNK N   1      37.213   7.854  14.128  0.00  0.00     0.000 C 
BRANCH   9  10
HETATM   10  C   UNK N   1      37.130   8.185  15.606  0.00  0.00     0.000 C 
BRANCH  10  11
HETATM   11  C   UNK N   1      37.384   9.661  15.818  0.00  0.00     0.000 C 
BRANCH  11  12
HETATM   12  C   UNK N   1      37.955  10.251  14.543  0.00  0.00     0.000 C 
BRANCH  12  13
HETATM   13  C   UNK N   1      37.934  11.767  14.602  0.00  0.00     0.000 C 
BRANCH  13  14
HETATM   14  C   UNK N   1      36.583  12.285  14.149  0.00  0.00     0.000 C 
BRANCH  14  15
HETATM   15  C   UNK N   1      36.410  13.713  14.620  0.00  0.00     0.000 C 
BRANCH  15  16
HETATM   16  C   UNK N   1      36.269  13.731  16.127  0.00  0.00    -0.000 C 
BRANCH  16  17
HETATM   17  C   UNK N   1      35.192  12.752  16.542  0.00  0.00    -0.005 C 
HETATM   18  C   UNK N   1      35.168  12.641  18.052  0.00  0.00     0.005 C 
ENDBRANCH  16  17
ENDBRANCH  15  16
ENDBRANCH  14  15
ENDBRANCH  13  14
ENDBRANCH  12  13
ENDBRANCH  11  12
ENDBRANCH  10  11
ENDBRANCH   9  10
ENDBRANCH   8   9
ENDBRANCH   7   8
ENDBRANCH   6   7
ENDBRANCH   5   6
ENDBRANCH   4   5
ENDBRANCH   3   4
ENDBRANCH   2   3
ENDBRANCH   1   2
BRANCH   1  19
HETATM   19  O   UNK N   1      36.496  13.672  10.820  0.00  0.00    -0.389 OA
BRANCH  19  20
HETATM   20  C   UNK N   1      35.383  14.356  11.312  0.00  0.00     0.201 C 
BRANCH  20  21
HETATM   21  C   UNK N   1      35.639  15.852  11.293  0.00  0.00     0.166 C 
BRANCH  21  22
HETATM   22  O   UNK N   1      36.901  16.105  10.758  0.00  0.00    -0.391 OA
HETATM   23  H   UNK N   1      37.716  16.066  11.282  0.00  0.00     0.210 HD
ENDBRANCH  21  22
BRANCH  21  24
HETATM   24  C   UNK N   1      34.580  16.546  10.459  0.00  0.00     0.214 C 
BRANCH  24  25
HETATM   25  O   UNK N   1      35.177  17.517   9.645  0.00  0.00    -0.294 OA
BRANCH  25  26
HETATM   26  P   UNK N   1      34.030  17.806   8.373  0.00  0.00     0.393 P 
HETATM   27  O   UNK N   1      34.661  16.437   7.990  0.00  0.00    -0.631 OA
BRANCH  26  28
HETATM   28  O   UNK N   1      35.248  19.044   8.339  0.00  0.00    -0.307 OA
HETATM   29  H   UNK N   1      35.109  19.849   7.814  0.00  0.00     0.222 HD
ENDBRANCH  26  28
BRANCH  26  30
HETATM   30  O   UNK N   1      34.546  18.072   6.731  0.00  0.00    -0.295 OA
BRANCH  30  31
HETATM   31  C   UNK N   1      34.022  16.996   6.004  0.00  0.00     0.208 C 
BRANCH  31  32
HETATM   32  C   UNK N   1      32.756  17.448   5.272  0.00  0.00     0.262 C 
BRANCH  32  33
HETATM   33  N   UNK N   1      32.255  16.452   4.318  0.00  0.00    -0.077 N 
HETATM   34  C   UNK N   1      33.124  16.468   3.155  0.00  0.00     0.271 C 
HETATM   35  C   UNK N   1      30.906  16.777   3.888  0.00  0.00     0.271 C 
HETATM   36  C   UNK N   1      32.282  15.112   4.883  0.00  0.00     0.271 C 
ENDBRANCH  32  33
ENDBRANCH  31  32
ENDBRANCH  30  31
ENDBRANCH  26  30
ENDBRANCH  25  26
ENDBRANCH  24  25
ENDBRANCH  21  24
ENDBRANCH  20  21
ENDBRANCH  19  20
ENDBRANCH   1  19
TORSDOF 28
ENDMDL
MODEL 7
REMARK VINA RESULT:      -5.0      2.455      3.103
REMARK  28 active torsions:
REMARK  status: ('A' for Active; 'I' for Inactive)
REMARK    1  A    between atoms: C_2  and  C_3 
REMARK    2  A    between atoms: C_3  and  C_4 
REMARK    3  A    between atoms: C_4  and  C_5 
REMARK    4  A    between atoms: C_5  and  C_6 
REMARK    5  A    between atoms: C_6  and  C_7 
REMARK    6  A    between atoms: C_7  and  C_8 
REMARK    7  A    between atoms: C_8  and  C_9 
REMARK    8  A    between atoms: C_9  and  C_10 
REMARK    9  A    between atoms: C_10  and  C_11 
REMARK   10  A    between atoms: C_11  and  C_12 
REMARK   11  A    between atoms: C_12  and  C_13 
REMARK   12  A    between atoms: C_13  and  C_14 
REMARK   13  A    between atoms: C_14  and  C_15 
REMARK   14  A    between atoms: C_15  and  C_16 
REMARK   15  A    between atoms: C_16  and  C_17 
REMARK   16  A    between atoms: C_17  and  C_18 
REMARK   17  A    between atoms: C_18  and  O_19 
REMARK   18  A    between atoms: O_19  and  C_20 
REMARK   19  A    between atoms: C_20  and  C_21 
REMARK   20  A    between atoms: C_21  and  O_22 
REMARK   21  A    between atoms: C_21  and  C_23 
REMARK   22  A    between atoms: C_23  and  O_24 
REMARK   23  A    between atoms: P_25  and  O_24 
REMARK   24  A    between atoms: P_25  and  O_26 
REMARK   25  A    between atoms: P_25  and  O_28 
REMARK   26  A    between atoms: O_28  and  C_29 
REMARK   27  A    between atoms: C_29  and  C_30 
REMARK   28  A    between atoms: C_30  and  N_31 
ROOT
HETATM    1  C   UNK N   1      24.086  20.397   3.393  0.00  0.00     0.167 C 
ENDROOT
BRANCH   1   2
HETATM    2  C   UNK N   1      25.256  20.407   2.428  0.00  0.00     0.026 C 
BRANCH   2   3
HETATM    3  C   UNK N   1      26.557  20.683   3.169  0.00  0.00     0.002 C 
BRANCH   3   4
HETATM    4  C   UNK N   1      27.099  19.441   3.866  0.00  0.00     0.000 C 
BRANCH   4   5
HETATM    5  C   UNK N   1      27.863  19.803   5.129  0.00  0.00     0.000 C 
BRANCH   5   6
HETATM    6  C   UNK N   1      27.472  18.881   6.271  0.00  0.00     0.000 C 
BRANCH   6   7
HETATM    7  C   UNK N   1      28.312  19.165   7.506  0.00  0.00     0.000 C 
BRANCH   7   8
HETATM    8  C   UNK N   1      28.543  17.898   8.320  0.00  0.00     0.000 C 
BRANCH   8   9
HETATM    9  C   UNK N   1      29.692  17.074   7.760  0.00  0.00     0.000 C 
BRANCH   9  10
HETATM   10  C   UNK N   1      30.864  17.088   8.722  0.00  0.00     0.000 C 
BRANCH  10  11
HETATM   11  C   UNK N   1      31.942  18.016   8.206  0.00  0.00     0.000 C 
BRANCH  11  12
HETATM   12  C   UNK N   1      33.241  17.242   8.085  0.00  0.00     0.000 C 
BRANCH  12  13
HETATM   13  C   UNK N   1      33.922  17.551   6.765  0.00  0.00     0.000 C 
BRANCH  13  14
HETATM   14  C   UNK N   1      33.354  16.670   5.670  0.00  0.00     0.000 C 
BRANCH  14  15
HETATM   15  C   UNK N   1      32.963  17.530   4.487  0.00  0.00     0.000 C 
BRANCH  15  16
HETATM   16  C   UNK N   1      31.460  17.702   4.468  0.00  0.00    -0.000 C 
BRANCH  16  17
HETATM   17  C   UNK N   1      30.797  16.341   4.516  0.00  0.00    -0.005 C 
HETATM   18  C   UNK N   1      29.350  16.470   4.089  0.00  0.00     0.005 C 
ENDBRANCH  16  17
ENDBRANCH  15  16
ENDBRANCH  14  15
ENDBRANCH  13  14
ENDBRANCH  12  13
ENDBRANCH  11  12
ENDBRANCH  10  11
ENDBRANCH   9  10
ENDBRANCH   8   9
ENDBRANCH   7   8
ENDBRANCH   6   7
ENDBRANCH   5   6
ENDBRANCH   4   5
ENDBRANCH   3   4
ENDBRANCH   2   3
ENDBRANCH   1   2
BRANCH   1  19
HETATM   19  O   UNK N   1      23.082  21.261   2.944  0.00  0.00    -0.389 OA
BRANCH  19  20
HETATM   20  C   UNK N   1      22.376  20.506   2.007  0.00  0.00     0.201 C 
BRANCH  20  21
HETATM   21  C   UNK N   1      20.896  20.837   2.078  0.00  0.00     0.166 C 
BRANCH  21  22
HETATM   22  O   UNK N   1      20.392  21.013   0.790  0.00  0.00    -0.391 OA
HETATM   23  H   UNK N   1      19.444  21.011   0.588  0.00  0.00     0.210 HD
ENDBRANCH  21  22
BRANCH  21  24
HETATM   24  C   UNK N   1      20.149  19.715   2.772  0.00  0.00     0.214 C 
BRANCH  24  25
HETATM   25  O   UNK N   1      21.001  18.620   2.957  0.00  0.00    -0.294 OA
BRANCH  25  26
HETATM   26  P   UNK N   1      19.947  17.245   3.082  0.00  0.00     0.393 P 
HETATM   27  O   UNK N   1      21.369  16.613   3.061  0.00  0.00    -0.631 OA
BRANCH  26  28
HETATM   28  O   UNK N   1      19.646  18.063   1.580  0.00  0.00    -0.307 OA
HETATM   29  H   UNK N   1      19.109  18.872   1.565  0.00  0.00     0.222 HD
ENDBRANCH  26  28
BRANCH  26  30
HETATM   30  O   UNK N   1      19.825  16.077   1.795  0.00  0.00    -0.295 OA
BRANCH  30  31
HETATM   31  C   UNK N   1      19.890  14.829   2.426  0.00  0.00     0.208 C 
BRANCH  31  32
HETATM   32  C   UNK N   1      19.273  13.766   1.513  0.00  0.00     0.262 C 
BRANCH  32  33
HETATM   33  N   UNK N   1      20.143  12.602   1.315  0.00  0.00    -0.077 N 
HETATM   34  C   UNK N   1      19.443  11.659   0.461  0.00  0.00     0.271 C 
HETATM   35  C   UNK N   1      20.432  11.949   2.579  0.00  0.00     0.271 C 
HETATM   36  C   UNK N   1      21.386  12.970   0.656  0.00  0.00     0.271 C 
ENDBRANCH  32  33
ENDBRANCH  31  32
ENDBRANCH  30  31
ENDBRANCH  26  30
ENDBRANCH  25  26
ENDBRANCH  24  25
ENDBRANCH  21  24
ENDBRANCH  20  21
ENDBRANCH  19  20
ENDBRANCH   1  19
TORSDOF 28
ENDMDL
MODEL 8
REMARK VINA RESULT:      -5.0      3.452      6.769
REMARK  28 active torsions:
REMARK  status: ('A' for Active; 'I' for Inactive)
REMARK    1  A    between atoms: C_2  and  C_3 
REMARK    2  A    between atoms: C_3  and  C_4 
REMARK    3  A    between atoms: C_4  and  C_5 
REMARK    4  A    between atoms: C_5  and  C_6 
REMARK    5  A    between atoms: C_6  and  C_7 
REMARK    6  A    between atoms: C_7  and  C_8 
REMARK    7  A    between atoms: C_8  and  C_9 
REMARK    8  A    between atoms: C_9  and  C_10 
REMARK    9  A    between atoms: C_10  and  C_11 
REMARK   10  A    between atoms: C_11  and  C_12 
REMARK   11  A    between atoms: C_12  and  C_13 
REMARK   12  A    between atoms: C_13  and  C_14 
REMARK   13  A    between atoms: C_14  and  C_15 
REMARK   14  A    between atoms: C_15  and  C_16 
REMARK   15  A    between atoms: C_16  and  C_17 
REMARK   16  A    between atoms: C_17  and  C_18 
REMARK   17  A    between atoms: C_18  and  O_19 
REMARK   18  A    between atoms: O_19  and  C_20 
REMARK   19  A    between atoms: C_20  and  C_21 
REMARK   20  A    between atoms: C_21  and  O_22 
REMARK   21  A    between atoms: C_21  and  C_23 
REMARK   22  A    between atoms: C_23  and  O_24 
REMARK   23  A    between atoms: P_25  and  O_24 
REMARK   24  A    between atoms: P_25  and  O_26 
REMARK   25  A    between atoms: P_25  and  O_28 
REMARK   26  A    between atoms: O_28  and  C_29 
REMARK   27  A    between atoms: C_29  and  C_30 
REMARK   28  A    between atoms: C_30  and  N_31 
ROOT
HETATM    1  C   UNK N   1      24.447  12.991   7.998  0.00  0.00     0.167 C 
ENDROOT
BRANCH   1   2
HETATM    2  C   UNK N   1      25.352  14.164   7.673  0.00  0.00     0.026 C 
BRANCH   2   3
HETATM    3  C   UNK N   1      24.834  14.917   6.455  0.00  0.00     0.002 C 
BRANCH   3   4
HETATM    4  C   UNK N   1      25.728  16.093   6.080  0.00  0.00     0.000 C 
BRANCH   4   5
HETATM    5  C   UNK N   1      27.183  15.668   5.963  0.00  0.00     0.000 C 
BRANCH   5   6
HETATM    6  C   UNK N   1      27.841  16.342   4.772  0.00  0.00     0.000 C 
BRANCH   6   7
HETATM    7  C   UNK N   1      29.280  16.714   5.089  0.00  0.00     0.000 C 
BRANCH   7   8
HETATM    8  C   UNK N   1      29.708  16.161   6.443  0.00  0.00     0.000 C 
BRANCH   8   9
HETATM    9  C   UNK N   1      30.136  17.271   7.391  0.00  0.00     0.000 C 
BRANCH   9  10
HETATM   10  C   UNK N   1      29.373  17.167   8.698  0.00  0.00     0.000 C 
BRANCH  10  11
HETATM   11  C   UNK N   1      28.436  18.346   8.842  0.00  0.00     0.000 C 
BRANCH  11  12
HETATM   12  C   UNK N   1      28.600  19.256   7.641  0.00  0.00     0.000 C 
BRANCH  12  13
HETATM   13  C   UNK N   1      27.251  19.571   7.023  0.00  0.00     0.000 C 
BRANCH  13  14
HETATM   14  C   UNK N   1      27.220  21.011   6.550  0.00  0.00     0.000 C 
BRANCH  14  15
HETATM   15  C   UNK N   1      26.612  21.071   5.165  0.00  0.00     0.000 C 
BRANCH  15  16
HETATM   16  C   UNK N   1      25.753  19.845   4.941  0.00  0.00    -0.000 C 
BRANCH  16  17
HETATM   17  C   UNK N   1      25.836  19.432   3.487  0.00  0.00    -0.005 C 
HETATM   18  C   UNK N   1      25.139  20.466   2.629  0.00  0.00     0.005 C 
ENDBRANCH  16  17
ENDBRANCH  15  16
ENDBRANCH  14  15
ENDBRANCH  13  14
ENDBRANCH  12  13
ENDBRANCH  11  12
ENDBRANCH  10  11
ENDBRANCH   9  10
ENDBRANCH   8   9
ENDBRANCH   7   8
ENDBRANCH   6   7
ENDBRANCH   5   6
ENDBRANCH   4   5
ENDBRANCH   3   4
ENDBRANCH   2   3
ENDBRANCH   1   2
BRANCH   1  19
HETATM   19  O   UNK N   1      23.607  13.312   9.068  0.00  0.00    -0.389 OA
BRANCH  19  20
HETATM   20  C   UNK N   1      23.077  12.084   9.468  0.00  0.00     0.201 C 
BRANCH  20  21
HETATM   21  C   UNK N   1      21.718  12.286  10.112  0.00  0.00     0.166 C 
BRANCH  21  22
HETATM   22  O   UNK N   1      21.768  11.887  11.447  0.00  0.00    -0.391 OA
HETATM   23  H   UNK N   1      20.975  11.713  11.978  0.00  0.00     0.210 HD
ENDBRANCH  21  22
BRANCH  21  24
HETATM   24  C   UNK N   1      21.318  13.746  10.027  0.00  0.00     0.214 C 
BRANCH  24  25
HETATM   25  O   UNK N   1      20.133  13.872   9.293  0.00  0.00    -0.294 OA
BRANCH  25  26
HETATM   26  P   UNK N   1      20.350  15.301   8.329  0.00  0.00     0.393 P 
HETATM   27  O   UNK N   1      19.001  15.557   9.061  0.00  0.00    -0.631 OA
BRANCH  26  28
HETATM   28  O   UNK N   1      20.198  13.922   7.283  0.00  0.00    -0.307 OA
HETATM   29  H   UNK N   1      20.341  13.028   7.633  0.00  0.00     0.222 HD
ENDBRANCH  26  28
BRANCH  26  30
HETATM   30  O   UNK N   1      19.270  15.680   7.015  0.00  0.00    -0.295 OA
BRANCH  30  31
HETATM   31  C   UNK N   1      20.082  15.718   5.875  0.00  0.00     0.208 C 
BRANCH  31  32
HETATM   32  C   UNK N   1      20.824  17.056   5.825  0.00  0.00     0.262 C 
BRANCH  32  33
HETATM   33  N   UNK N   1      21.115  17.503   4.458  0.00  0.00    -0.077 N 
HETATM   34  C   UNK N   1      22.397  16.945   4.067  0.00  0.00     0.271 C 
HETATM   35  C   UNK N   1      21.205  18.951   4.393  0.00  0.00     0.271 C 
HETATM   36  C   UNK N   1      20.112  17.029   3.517  0.00  0.00     0.271 C 
ENDBRANCH  32  33
ENDBRANCH  31  32
ENDBRANCH  30  31
ENDBRANCH  26  30
ENDBRANCH  25  26
ENDBRANCH  24  25
ENDBRANCH  21  24
ENDBRANCH  20  21
ENDBRANCH  19  20
ENDBRANCH   1  19
TORSDOF 28
ENDMDL
MODEL 9
REMARK VINA RESULT:      -4.9     11.629     14.607
REMARK  28 active torsions:
REMARK  status: ('A' for Active; 'I' for Inactive)
REMARK    1  A    between atoms: C_2  and  C_3 
REMARK    2  A    between atoms: C_3  and  C_4 
REMARK    3  A    between atoms: C_4  and  C_5 
REMARK    4  A    between atoms: C_5  and  C_6 
REMARK    5  A    between atoms: C_6  and  C_7 
REMARK    6  A    between atoms: C_7  and  C_8 
REMARK    7  A    between atoms: C_8  and  C_9 
REMARK    8  A    between atoms: C_9  and  C_10 
REMARK    9  A    between atoms: C_10  and  C_11 
REMARK   10  A    between atoms: C_11  and  C_12 
REMARK   11  A    between atoms: C_12  and  C_13 
REMARK   12  A    between atoms: C_13  and  C_14 
REMARK   13  A    between atoms: C_14  and  C_15 
REMARK   14  A    between atoms: C_15  and  C_16 
REMARK   15  A    between atoms: C_16  and  C_17 
REMARK   16  A    between atoms: C_17  and  C_18 
REMARK   17  A    between atoms: C_18  and  O_19 
REMARK   18  A    between atoms: O_19  and  C_20 
REMARK   19  A    between atoms: C_20  and  C_21 
REMARK   20  A    between atoms: C_21  and  O_22 
REMARK   21  A    between atoms: C_21  and  C_23 
REMARK   22  A    between atoms: C_23  and  O_24 
REMARK   23  A    between atoms: P_25  and  O_24 
REMARK   24  A    between atoms: P_25  and  O_26 
REMARK   25  A    between atoms: P_25  and  O_28 
REMARK   26  A    between atoms: O_28  and  C_29 
REMARK   27  A    between atoms: C_29  and  C_30 
REMARK   28  A    between atoms: C_30  and  N_31 
ROOT
HETATM    1  C   UNK N   1      25.567  24.199  -7.865  0.00  0.00     0.167 C 
ENDROOT
BRANCH   1   2
HETATM    2  C   UNK N   1      25.920  23.763  -6.456  0.00  0.00     0.026 C 
BRANCH   2   3
HETATM    3  C   UNK N   1      25.810  24.936  -5.491  0.00  0.00     0.002 C 
BRANCH   3   4
HETATM    4  C   UNK N   1      25.355  26.214  -6.185  0.00  0.00     0.000 C 
BRANCH   4   5
HETATM    5  C   UNK N   1      25.054  27.314  -5.180  0.00  0.00     0.000 C 
BRANCH   5   6
HETATM    6  C   UNK N   1      25.934  27.169  -3.951  0.00  0.00     0.000 C 
BRANCH   6   7
HETATM    7  C   UNK N   1      26.423  28.526  -3.474  0.00  0.00     0.000 C 
BRANCH   7   8
HETATM    8  C   UNK N   1      26.774  29.431  -4.649  0.00  0.00     0.000 C 
BRANCH   8   9
HETATM    9  C   UNK N   1      28.175  29.151  -5.172  0.00  0.00     0.000 C 
BRANCH   9  10
HETATM   10  C   UNK N   1      28.188  29.208  -6.688  0.00  0.00     0.000 C 
BRANCH  10  11
HETATM   11  C   UNK N   1      28.378  27.818  -7.253  0.00  0.00     0.000 C 
BRANCH  11  12
HETATM   12  C   UNK N   1      29.035  26.944  -6.201  0.00  0.00     0.000 C 
BRANCH  12  13
HETATM   13  C   UNK N   1      29.242  25.538  -6.732  0.00  0.00     0.000 C 
BRANCH  13  14
HETATM   14  C   UNK N   1      29.607  24.603  -5.595  0.00  0.00     0.000 C 
BRANCH  14  15
HETATM   15  C   UNK N   1      29.294  25.272  -4.275  0.00  0.00     0.000 C 
BRANCH  15  16
HETATM   16  C   UNK N   1      30.439  25.044  -3.312  0.00  0.00    -0.000 C 
BRANCH  16  17
HETATM   17  C   UNK N   1      30.792  23.571  -3.291  0.00  0.00    -0.005 C 
HETATM   18  C   UNK N   1      30.015  22.884  -2.187  0.00  0.00     0.005 C 
ENDBRANCH  16  17
ENDBRANCH  15  16
ENDBRANCH  14  15
ENDBRANCH  13  14
ENDBRANCH  12  13
ENDBRANCH  11  12
ENDBRANCH  10  11
ENDBRANCH   9  10
ENDBRANCH   8   9
ENDBRANCH   7   8
ENDBRANCH   6   7
ENDBRANCH   5   6
ENDBRANCH   4   5
ENDBRANCH   3   4
ENDBRANCH   2   3
ENDBRANCH   1   2
BRANCH   1  19
HETATM   19  O   UNK N   1      24.876  23.179  -8.527  0.00  0.00    -0.389 OA
BRANCH  19  20
HETATM   20  C   UNK N   1      25.159  22.034  -7.780  0.00  0.00     0.201 C 
BRANCH  20  21
HETATM   21  C   UNK N   1      25.708  20.944  -8.682  0.00  0.00     0.166 C 
BRANCH  21  22
HETATM   22  O   UNK N   1      25.188  21.093  -9.967  0.00  0.00    -0.391 OA
HETATM   23  H   UNK N   1      24.276  20.859 -10.199  0.00  0.00     0.210 HD
ENDBRANCH  21  22
BRANCH  21  24
HETATM   24  C   UNK N   1      27.221  21.025  -8.729  0.00  0.00     0.214 C 
BRANCH  24  25
HETATM   25  O   UNK N   1      27.775  20.071  -7.868  0.00  0.00    -0.294 OA
BRANCH  25  26
HETATM   26  P   UNK N   1      29.483  20.387  -7.883  0.00  0.00     0.393 P 
HETATM   27  O   UNK N   1      29.393  18.900  -7.437  0.00  0.00    -0.631 OA
BRANCH  26  28
HETATM   28  O   UNK N   1      28.722  21.403  -6.697  0.00  0.00    -0.307 OA
HETATM   29  H   UNK N   1      28.831  21.214  -5.751  0.00  0.00     0.222 HD
ENDBRANCH  26  28
BRANCH  26  30
HETATM   30  O   UNK N   1      30.420  20.373  -6.414  0.00  0.00    -0.295 OA
BRANCH  30  31
HETATM   31  C   UNK N   1      31.660  20.920  -6.767  0.00  0.00     0.208 C 
BRANCH  31  32
HETATM   32  C   UNK N   1      32.465  21.210  -5.497  0.00  0.00     0.262 C 
BRANCH  32  33
HETATM   33  N   UNK N   1      33.846  20.721  -5.567  0.00  0.00    -0.077 N 
HETATM   34  C   UNK N   1      33.813  19.271  -5.497  0.00  0.00     0.271 C 
HETATM   35  C   UNK N   1      34.630  21.217  -4.449  0.00  0.00     0.271 C 
HETATM   36  C   UNK N   1      34.483  21.098  -6.819  0.00  0.00     0.271 C 
ENDBRANCH  32  33
ENDBRANCH  31  32
ENDBRANCH  30  31
ENDBRANCH  26  30
ENDBRANCH  25  26
ENDBRANCH  24  25
ENDBRANCH  21  24
ENDBRANCH  20  21
ENDBRANCH  19  20
ENDBRANCH   1  19
TORSDOF 28
ENDMDL
