MODEL 1
REMARK VINA RESULT:      -8.1      0.000      0.000
REMARK  18 active torsions:
REMARK  status: ('A' for Active; 'I' for Inactive)
REMARK    1  A    between atoms: C_10  and  C_4 
REMARK    2  A    between atoms: N_22  and  C_4 
REMARK    3  A    between atoms: C_11  and  C_6 
REMARK    4  A    between atoms: O_40  and  C_6 
REMARK    5  A    between atoms: C_12  and  C_7 
REMARK    6  A    between atoms: O_41  and  C_7 
REMARK    7  A    between atoms: C_14  and  O_32 
REMARK    8  A    between atoms: C_15  and  O_33 
REMARK    9  A    between atoms: C_16  and  O_34 
REMARK   10  A    between atoms: C_17  and  O_35 
REMARK   11  A    between atoms: N_23  and  C_18 
REMARK   12  A    between atoms: C_20  and  N_30 
REMARK   13  A    between atoms: C_21  and  N_31 
REMARK   14  A    between atoms: P_45  and  O_37 
REMARK   15  A    between atoms: P_45  and  O_40 
REMARK   16  A    between atoms: P_46  and  O_41 
REMARK   17  A    between atoms: P_45  and  O_44 
REMARK   18  A    between atoms: P_46  and  O_44 
ROOT
HETATM    1  O   UNK N   1      32.579  14.696   6.815  0.00  0.00    -0.624 OA
HETATM    2  O   UNK N   1      32.715  13.104   8.899  0.00  0.00    -0.624 OA
HETATM    3  P   UNK N   1      32.847  14.748   8.343  0.00  0.00     0.417 P 
ENDROOT
BRANCH   3   4
HETATM    4  O   UNK N   1      31.624  15.792   9.043  0.00  0.00    -0.287 OA
BRANCH   4   5
HETATM    5  C   UNK N   1      31.689  16.986   8.325  0.00  0.00     0.216 C 
BRANCH   5   6
HETATM    6  C   UNK N   1      30.476  17.854   8.636  0.00  0.00     0.180 C 
HETATM    7  C   UNK N   1      29.404  17.163   9.465  0.00  0.00     0.182 C 
HETATM    8  C   UNK N   1      28.127  17.904   9.042  0.00  0.00     0.198 C 
HETATM    9  C   UNK N   1      28.670  18.866   7.968  0.00  0.00     0.262 C 
HETATM   10  O   UNK N   1      29.817  18.233   7.454  0.00  0.00    -0.353 OA
BRANCH   7  11
HETATM   11  O   UNK N   1      29.662  17.236  10.835  0.00  0.00    -0.390 OA
HETATM   12  H   UNK N   1      29.295  16.709  11.562  0.00  0.00     0.210 HD
ENDBRANCH   7  11
BRANCH   8  13
HETATM   13  O   UNK N   1      27.258  16.962   8.480  0.00  0.00    -0.388 OA
HETATM   14  H   UNK N   1      26.474  16.824   7.928  0.00  0.00     0.210 HD
ENDBRANCH   8  13
BRANCH   9  15
HETATM   15  N   UNK N   1      27.763  19.271   6.887  0.00  0.00    -0.297 N 
HETATM   16  C   UNK N   1      27.083  20.448   6.876  0.00  0.00     0.188 A 
HETATM   17  N   UNK N   1      26.272  20.551   5.788  0.00  0.00    -0.346 N 
HETATM   18  C   UNK N   1      26.449  19.393   5.133  0.00  0.00     0.122 A 
ATOM     19  HN  UNK N   1      25.667  21.331   5.530  1.00  0.00     0.167 HD
HETATM   20  C   UNK N   1      25.848  18.935   3.973  0.00  0.00     0.131 A 
HETATM   21  C   UNK N   1      27.340  18.621   5.789  0.00  0.00     0.142 A 
HETATM   22  N   UNK N   1      26.183  17.689   3.528  0.00  0.00    -0.337 N 
HETATM   23  C   UNK N   1      27.087  16.913   4.215  0.00  0.00     0.183 A 
ATOM     24  HN  UNK N   1      25.759  17.328   2.673  1.00  0.00     0.168 HD
HETATM   25  N   UNK N   1      27.671  17.378   5.362  0.00  0.00    -0.336 N 
ATOM     26  HN  UNK N   1      28.336  16.805   5.883  1.00  0.00     0.168 HD
BRANCH  20  27
HETATM   27  N   UNK N   1      24.908  19.721   3.276  0.00  0.00    -0.383 N 
HETATM   28  H   UNK N   1      24.956  20.703   3.318  0.00  0.00     0.157 HD
HETATM   29  H   UNK N   1      24.202  19.286   2.746  0.00  0.00     0.157 HD
ENDBRANCH  20  27
ENDBRANCH   9  15
ENDBRANCH   5   6
ENDBRANCH   4   5
ENDBRANCH   3   4
BRANCH   3  30
HETATM   30  O   UNK N   1      34.479  15.325   8.552  0.00  0.00    -0.188 OA
BRANCH  30  31
HETATM   31  P   UNK N   1      34.764  15.453  10.266  0.00  0.00     0.402 P 
HETATM   32  O   UNK N   1      35.055  16.948  10.566  0.00  0.00    -0.631 OA
BRANCH  31  33
HETATM   33  O   UNK N   1      33.333  15.055  11.165  0.00  0.00    -0.307 OA
HETATM   34  H   UNK N   1      33.387  14.474  11.940  0.00  0.00     0.222 HD
ENDBRANCH  31  33
BRANCH  31  35
HETATM   35  O   UNK N   1      36.146  14.546  10.816  0.00  0.00    -0.294 OA
BRANCH  35  36
HETATM   36  C   UNK N   1      36.021  14.480  12.204  0.00  0.00     0.215 C 
BRANCH  36  37
HETATM   37  C   UNK N   1      36.050  13.033  12.692  0.00  0.00     0.180 C 
HETATM   38  C   UNK N   1      34.702  12.350  12.637  0.00  0.00     0.182 C 
HETATM   39  C   UNK N   1      34.958  11.128  13.489  0.00  0.00     0.198 C 
HETATM   40  C   UNK N   1      36.153  11.583  14.363  0.00  0.00     0.259 C 
HETATM   41  O   UNK N   1      36.421  12.941  14.050  0.00  0.00    -0.353 OA
BRANCH  38  42
HETATM   42  O   UNK N   1      34.292  12.033  11.339  0.00  0.00    -0.390 OA
HETATM   43  H   UNK N   1      34.507  12.627  10.604  0.00  0.00     0.210 HD
ENDBRANCH  38  42
BRANCH  39  44
HETATM   44  O   UNK N   1      33.809  10.798  14.215  0.00  0.00    -0.388 OA
HETATM   45  H   UNK N   1      33.213  10.240  14.737  0.00  0.00     0.210 HD
ENDBRANCH  39  44
BRANCH  40  46
HETATM   46  N   UNK N   1      35.988  11.340  15.806  0.00  0.00    -0.337 N 
HETATM   47  C   UNK N   1      36.398  10.143  16.321  0.00  0.00     0.093 A 
HETATM   48  C   UNK N   1      36.337   9.897  17.694  0.00  0.00     0.018 A 
HETATM   49  C   UNK N   1      35.876  10.896  18.546  0.00  0.00     0.011 A 
HETATM   50  C   UNK N   1      35.470  12.122  18.016  0.00  0.00    -0.025 A 
HETATM   51  C   UNK N   1      35.529  12.326  16.634  0.00  0.00     0.102 A 
BRANCH  50  52
HETATM   52  C   UNK N   1      35.003  13.215  18.915  0.00  0.00     0.151 C 
BRANCH  52  53
HETATM   53  N   UNK N   1      35.511  14.494  18.444  0.00  0.00    -0.426 N 
HETATM   54  H   UNK N   1      36.068  15.242  18.855  0.00  0.00     0.150 HD
HETATM   55  H   UNK N   1      35.247  14.688  17.477  0.00  0.00     0.150 HD
ENDBRANCH  52  53
ENDBRANCH  50  52
ENDBRANCH  40  46
ENDBRANCH  36  37
ENDBRANCH  35  36
ENDBRANCH  31  35
ENDBRANCH  30  31
ENDBRANCH   3  30
TORSDOF 18
ENDMDL
MODEL 2
REMARK VINA RESULT:      -8.0      2.217      3.567
REMARK  18 active torsions:
REMARK  status: ('A' for Active; 'I' for Inactive)
REMARK    1  A    between atoms: C_10  and  C_4 
REMARK    2  A    between atoms: N_22  and  C_4 
REMARK    3  A    between atoms: C_11  and  C_6 
REMARK    4  A    between atoms: O_40  and  C_6 
REMARK    5  A    between atoms: C_12  and  C_7 
REMARK    6  A    between atoms: O_41  and  C_7 
REMARK    7  A    between atoms: C_14  and  O_32 
REMARK    8  A    between atoms: C_15  and  O_33 
REMARK    9  A    between atoms: C_16  and  O_34 
REMARK   10  A    between atoms: C_17  and  O_35 
REMARK   11  A    between atoms: N_23  and  C_18 
REMARK   12  A    between atoms: C_20  and  N_30 
REMARK   13  A    between atoms: C_21  and  N_31 
REMARK   14  A    between atoms: P_45  and  O_37 
REMARK   15  A    between atoms: P_45  and  O_40 
REMARK   16  A    between atoms: P_46  and  O_41 
REMARK   17  A    between atoms: P_45  and  O_44 
REMARK   18  A    between atoms: P_46  and  O_44 
ROOT
HETATM    1  O   UNK N   1      34.566  17.092   6.815  0.00  0.00    -0.624 OA
HETATM    2  O   UNK N   1      35.977  15.134   5.781  0.00  0.00    -0.624 OA
HETATM    3  P   UNK N   1      34.851  15.582   7.030  0.00  0.00     0.417 P 
ENDROOT
BRANCH   3   4
HETATM    4  O   UNK N   1      33.318  14.744   6.880  0.00  0.00    -0.287 OA
BRANCH   4   5
HETATM    5  C   UNK N   1      33.309  14.199   5.595  0.00  0.00     0.216 C 
BRANCH   5   6
HETATM    6  C   UNK N   1      32.200  14.831   4.763  0.00  0.00     0.180 C 
HETATM    7  C   UNK N   1      32.682  15.839   3.733  0.00  0.00     0.182 C 
HETATM    8  C   UNK N   1      31.467  16.766   3.580  0.00  0.00     0.198 C 
HETATM    9  C   UNK N   1      30.494  16.173   4.617  0.00  0.00     0.262 C 
HETATM   10  O   UNK N   1      31.316  15.556   5.579  0.00  0.00    -0.353 OA
BRANCH   7  11
HETATM   11  O   UNK N   1      33.074  15.234   2.538  0.00  0.00    -0.390 OA
HETATM   12  H   UNK N   1      32.902  14.335   2.215  0.00  0.00     0.210 HD
ENDBRANCH   7  11
BRANCH   8  13
HETATM   13  O   UNK N   1      31.869  18.055   3.947  0.00  0.00    -0.388 OA
HETATM   14  H   UNK N   1      31.621  18.991   3.990  0.00  0.00     0.210 HD
ENDBRANCH   8  13
BRANCH   9  15
HETATM   15  N   UNK N   1      29.530  17.080   5.251  0.00  0.00    -0.297 N 
HETATM   16  C   UNK N   1      28.570  17.757   4.566  0.00  0.00     0.188 A 
HETATM   17  N   UNK N   1      27.846  18.569   5.383  0.00  0.00    -0.346 N 
HETATM   18  C   UNK N   1      28.398  18.396   6.594  0.00  0.00     0.122 A 
ATOM     19  HN  UNK N   1      27.063  19.172   5.132  1.00  0.00     0.167 HD
HETATM   20  C   UNK N   1      28.085  18.999   7.800  0.00  0.00     0.131 A 
HETATM   21  C   UNK N   1      29.409  17.506   6.520  0.00  0.00     0.142 A 
HETATM   22  N   UNK N   1      28.831  18.667   8.895  0.00  0.00    -0.337 N 
HETATM   23  C   UNK N   1      29.864  17.765   8.797  0.00  0.00     0.183 A 
ATOM     24  HN  UNK N   1      28.619  19.094   9.797  1.00  0.00     0.168 HD
HETATM   25  N   UNK N   1      30.164  17.179   7.597  0.00  0.00    -0.336 N 
ATOM     26  HN  UNK N   1      30.934  16.514   7.514  1.00  0.00     0.168 HD
BRANCH  20  27
HETATM   27  N   UNK N   1      27.038  19.938   7.899  0.00  0.00    -0.383 N 
HETATM   28  H   UNK N   1      26.108  19.661   7.735  0.00  0.00     0.157 HD
HETATM   29  H   UNK N   1      27.238  20.872   8.135  0.00  0.00     0.157 HD
ENDBRANCH  20  27
ENDBRANCH   9  15
ENDBRANCH   5   6
ENDBRANCH   4   5
ENDBRANCH   3   4
BRANCH   3  30
HETATM   30  O   UNK N   1      35.597  15.425   8.598  0.00  0.00    -0.188 OA
BRANCH  30  31
HETATM   31  P   UNK N   1      34.687  16.417   9.703  0.00  0.00     0.402 P 
HETATM   32  O   UNK N   1      35.426  17.778   9.804  0.00  0.00    -0.631 OA
BRANCH  31  33
HETATM   33  O   UNK N   1      33.113  16.775   9.065  0.00  0.00    -0.307 OA
HETATM   34  H   UNK N   1      32.393  16.129   9.143  0.00  0.00     0.222 HD
ENDBRANCH  31  33
BRANCH  31  35
HETATM   35  O   UNK N   1      34.597  15.766  11.317  0.00  0.00    -0.294 OA
BRANCH  35  36
HETATM   36  C   UNK N   1      35.919  15.541  11.703  0.00  0.00     0.215 C 
BRANCH  36  37
HETATM   37  C   UNK N   1      36.138  14.082  12.097  0.00  0.00     0.180 C 
HETATM   38  C   UNK N   1      34.943  13.198  11.826  0.00  0.00     0.182 C 
HETATM   39  C   UNK N   1      35.303  11.965  12.623  0.00  0.00     0.198 C 
HETATM   40  C   UNK N   1      36.294  12.532  13.671  0.00  0.00     0.259 C 
HETATM   41  O   UNK N   1      36.361  13.936  13.482  0.00  0.00    -0.353 OA
BRANCH  38  42
HETATM   42  O   UNK N   1      34.745  12.930  10.469  0.00  0.00    -0.390 OA
HETATM   43  H   UNK N   1      34.392  12.072  10.190  0.00  0.00     0.210 HD
ENDBRANCH  38  42
BRANCH  39  44
HETATM   44  O   UNK N   1      34.151  11.394  13.174  0.00  0.00    -0.388 OA
HETATM   45  H   UNK N   1      33.294  10.941  13.177  0.00  0.00     0.210 HD
ENDBRANCH  39  44
BRANCH  40  46
HETATM   46  N   UNK N   1      36.008  12.144  15.062  0.00  0.00    -0.337 N 
HETATM   47  C   UNK N   1      36.242  10.853  15.444  0.00  0.00     0.093 A 
HETATM   48  C   UNK N   1      36.064  10.458  16.771  0.00  0.00     0.018 A 
HETATM   49  C   UNK N   1      35.666  11.400  17.716  0.00  0.00     0.011 A 
HETATM   50  C   UNK N   1      35.440  12.719  17.322  0.00  0.00    -0.025 A 
HETATM   51  C   UNK N   1      35.612  13.075  15.981  0.00  0.00     0.102 A 
BRANCH  50  52
HETATM   52  C   UNK N   1      35.046  13.749  18.325  0.00  0.00     0.151 C 
BRANCH  52  53
HETATM   53  N   UNK N   1      35.854  14.945  18.151  0.00  0.00    -0.426 N 
HETATM   54  H   UNK N   1      36.142  15.712  18.757  0.00  0.00     0.150 HD
HETATM   55  H   UNK N   1      36.217  15.038  17.201  0.00  0.00     0.150 HD
ENDBRANCH  52  53
ENDBRANCH  50  52
ENDBRANCH  40  46
ENDBRANCH  36  37
ENDBRANCH  35  36
ENDBRANCH  31  35
ENDBRANCH  30  31
ENDBRANCH   3  30
TORSDOF 18
ENDMDL
MODEL 3
REMARK VINA RESULT:      -7.7      2.710      4.740
REMARK  18 active torsions:
REMARK  status: ('A' for Active; 'I' for Inactive)
REMARK    1  A    between atoms: C_10  and  C_4 
REMARK    2  A    between atoms: N_22  and  C_4 
REMARK    3  A    between atoms: C_11  and  C_6 
REMARK    4  A    between atoms: O_40  and  C_6 
REMARK    5  A    between atoms: C_12  and  C_7 
REMARK    6  A    between atoms: O_41  and  C_7 
REMARK    7  A    between atoms: C_14  and  O_32 
REMARK    8  A    between atoms: C_15  and  O_33 
REMARK    9  A    between atoms: C_16  and  O_34 
REMARK   10  A    between atoms: C_17  and  O_35 
REMARK   11  A    between atoms: N_23  and  C_18 
REMARK   12  A    between atoms: C_20  and  N_30 
REMARK   13  A    between atoms: C_21  and  N_31 
REMARK   14  A    between atoms: P_45  and  O_37 
REMARK   15  A    between atoms: P_45  and  O_40 
REMARK   16  A    between atoms: P_46  and  O_41 
REMARK   17  A    between atoms: P_45  and  O_44 
REMARK   18  A    between atoms: P_46  and  O_44 
ROOT
HETATM    1  O   UNK N   1      33.681  11.327   6.172  0.00  0.00    -0.624 OA
HETATM    2  O   UNK N   1      33.058  12.653   8.351  0.00  0.00    -0.624 OA
HETATM    3  P   UNK N   1      33.294  12.759   6.630  0.00  0.00     0.417 P 
ENDROOT
BRANCH   3   4
HETATM    4  O   UNK N   1      31.823  13.189   5.779  0.00  0.00    -0.287 OA
BRANCH   4   5
HETATM    5  C   UNK N   1      32.188  13.334   4.440  0.00  0.00     0.216 C 
BRANCH   5   6
HETATM    6  C   UNK N   1      31.645  14.645   3.885  0.00  0.00     0.180 C 
HETATM    7  C   UNK N   1      32.686  15.743   3.732  0.00  0.00     0.182 C 
HETATM    8  C   UNK N   1      31.843  17.020   3.862  0.00  0.00     0.198 C 
HETATM    9  C   UNK N   1      30.444  16.440   4.145  0.00  0.00     0.262 C 
HETATM   10  O   UNK N   1      30.681  15.191   4.749  0.00  0.00    -0.353 OA
BRANCH   7  11
HETATM   11  O   UNK N   1      33.379  15.654   2.524  0.00  0.00    -0.390 OA
HETATM   12  H   UNK N   1      33.581  14.874   1.983  0.00  0.00     0.210 HD
ENDBRANCH   7  11
BRANCH   8  13
HETATM   13  O   UNK N   1      32.324  17.734   4.964  0.00  0.00    -0.388 OA
HETATM   14  H   UNK N   1      33.059  17.851   5.586  0.00  0.00     0.210 HD
ENDBRANCH   8  13
BRANCH   9  15
HETATM   15  N   UNK N   1      29.516  17.246   4.947  0.00  0.00    -0.297 N 
HETATM   16  C   UNK N   1      28.493  17.968   4.417  0.00  0.00     0.188 A 
HETATM   17  N   UNK N   1      27.821  18.665   5.372  0.00  0.00    -0.346 N 
HETATM   18  C   UNK N   1      28.469  18.375   6.511  0.00  0.00     0.122 A 
ATOM     19  HN  UNK N   1      27.009  19.271   5.250  1.00  0.00     0.167 HD
HETATM   20  C   UNK N   1      28.240  18.834   7.796  0.00  0.00     0.131 A 
HETATM   21  C   UNK N   1      29.487  17.526   6.261  0.00  0.00     0.142 A 
HETATM   22  N   UNK N   1      29.076  18.404   8.787  0.00  0.00    -0.337 N 
HETATM   23  C   UNK N   1      30.115  17.547   8.512  0.00  0.00     0.183 A 
ATOM     24  HN  UNK N   1      28.928  18.724   9.745  1.00  0.00     0.168 HD
HETATM   25  N   UNK N   1      30.330  17.103   7.235  0.00  0.00    -0.336 N 
ATOM     26  HN  UNK N   1      31.104  16.473   7.020  1.00  0.00     0.168 HD
BRANCH  20  27
HETATM   27  N   UNK N   1      27.187  19.727   8.079  0.00  0.00    -0.383 N 
HETATM   28  H   UNK N   1      26.303  19.595   7.669  0.00  0.00     0.157 HD
HETATM   29  H   UNK N   1      27.338  20.486   8.689  0.00  0.00     0.157 HD
ENDBRANCH  20  27
ENDBRANCH   9  15
ENDBRANCH   5   6
ENDBRANCH   4   5
ENDBRANCH   3   4
BRANCH   3  30
HETATM   30  O   UNK N   1      34.652  13.791   6.271  0.00  0.00    -0.188 OA
BRANCH  30  31
HETATM   31  P   UNK N   1      34.375  15.307   7.082  0.00  0.00     0.402 P 
HETATM   32  O   UNK N   1      34.884  16.427   6.136  0.00  0.00    -0.631 OA
BRANCH  31  33
HETATM   33  O   UNK N   1      32.677  15.597   7.294  0.00  0.00    -0.307 OA
HETATM   34  H   UNK N   1      32.027  14.936   7.008  0.00  0.00     0.222 HD
ENDBRANCH  31  33
BRANCH  31  35
HETATM   35  O   UNK N   1      35.250  15.470   8.579  0.00  0.00    -0.294 OA
BRANCH  35  36
HETATM   36  C   UNK N   1      34.278  15.669   9.561  0.00  0.00     0.215 C 
BRANCH  36  37
HETATM   37  C   UNK N   1      34.821  15.340  10.950  0.00  0.00     0.180 C 
HETATM   38  C   UNK N   1      36.291  14.989  10.956  0.00  0.00     0.182 C 
HETATM   39  C   UNK N   1      36.442  14.379  12.331  0.00  0.00     0.198 C 
HETATM   40  C   UNK N   1      34.994  13.929  12.648  0.00  0.00     0.259 C 
HETATM   41  O   UNK N   1      34.199  14.203  11.505  0.00  0.00    -0.353 OA
BRANCH  38  42
HETATM   42  O   UNK N   1      37.127  16.091  10.755  0.00  0.00    -0.390 OA
HETATM   43  H   UNK N   1      36.754  16.986  10.738  0.00  0.00     0.210 HD
ENDBRANCH  38  42
BRANCH  39  44
HETATM   44  O   UNK N   1      37.372  13.335  12.294  0.00  0.00    -0.388 OA
HETATM   45  H   UNK N   1      37.922  12.644  11.895  0.00  0.00     0.210 HD
ENDBRANCH  39  44
BRANCH  40  46
HETATM   46  N   UNK N   1      34.871  12.542  13.125  0.00  0.00    -0.337 N 
HETATM   47  C   UNK N   1      34.824  12.312  14.471  0.00  0.00     0.093 A 
HETATM   48  C   UNK N   1      34.627  11.023  14.969  0.00  0.00     0.018 A 
HETATM   49  C   UNK N   1      34.451   9.967  14.079  0.00  0.00     0.011 A 
HETATM   50  C   UNK N   1      34.488  10.209  12.705  0.00  0.00    -0.025 A 
HETATM   51  C   UNK N   1      34.705  11.511  12.243  0.00  0.00     0.102 A 
BRANCH  50  52
HETATM   52  C   UNK N   1      34.270   9.097  11.737  0.00  0.00     0.151 C 
BRANCH  52  53
HETATM   53  N   UNK N   1      33.251   9.475  10.771  0.00  0.00    -0.426 N 
HETATM   54  H   UNK N   1      33.218  10.106   9.971  0.00  0.00     0.150 HD
HETATM   55  H   UNK N   1      32.363   8.997  10.931  0.00  0.00     0.150 HD
ENDBRANCH  52  53
ENDBRANCH  50  52
ENDBRANCH  40  46
ENDBRANCH  36  37
ENDBRANCH  35  36
ENDBRANCH  31  35
ENDBRANCH  30  31
ENDBRANCH   3  30
TORSDOF 18
ENDMDL
MODEL 4
REMARK VINA RESULT:      -7.7      8.833     12.411
REMARK  18 active torsions:
REMARK  status: ('A' for Active; 'I' for Inactive)
REMARK    1  A    between atoms: C_10  and  C_4 
REMARK    2  A    between atoms: N_22  and  C_4 
REMARK    3  A    between atoms: C_11  and  C_6 
REMARK    4  A    between atoms: O_40  and  C_6 
REMARK    5  A    between atoms: C_12  and  C_7 
REMARK    6  A    between atoms: O_41  and  C_7 
REMARK    7  A    between atoms: C_14  and  O_32 
REMARK    8  A    between atoms: C_15  and  O_33 
REMARK    9  A    between atoms: C_16  and  O_34 
REMARK   10  A    between atoms: C_17  and  O_35 
REMARK   11  A    between atoms: N_23  and  C_18 
REMARK   12  A    between atoms: C_20  and  N_30 
REMARK   13  A    between atoms: C_21  and  N_31 
REMARK   14  A    between atoms: P_45  and  O_37 
REMARK   15  A    between atoms: P_45  and  O_40 
REMARK   16  A    between atoms: P_46  and  O_41 
REMARK   17  A    between atoms: P_45  and  O_44 
REMARK   18  A    between atoms: P_46  and  O_44 
ROOT
HETATM    1  O   UNK N   1      19.259  16.054   5.206  0.00  0.00    -0.624 OA
HETATM    2  O   UNK N   1      19.397  15.032   2.792  0.00  0.00    -0.624 OA
HETATM    3  P   UNK N   1      20.121  16.143   3.919  0.00  0.00     0.417 P 
ENDROOT
BRANCH   3   4
HETATM    4  O   UNK N   1      21.753  15.679   4.361  0.00  0.00    -0.287 OA
BRANCH   4   5
HETATM    5  C   UNK N   1      21.617  14.600   5.235  0.00  0.00     0.216 C 
BRANCH   5   6
HETATM    6  C   UNK N   1      22.943  14.312   5.926  0.00  0.00     0.180 C 
HETATM    7  C   UNK N   1      23.669  13.080   5.408  0.00  0.00     0.182 C 
HETATM    8  C   UNK N   1      24.490  12.639   6.629  0.00  0.00     0.198 C 
HETATM    9  C   UNK N   1      24.039  13.661   7.689  0.00  0.00     0.262 C 
HETATM   10  O   UNK N   1      22.747  14.055   7.294  0.00  0.00    -0.353 OA
BRANCH   7  11
HETATM   11  O   UNK N   1      24.449  13.357   4.283  0.00  0.00    -0.390 OA
HETATM   12  H   UNK N   1      24.190  13.413   3.350  0.00  0.00     0.210 HD
ENDBRANCH   7  11
BRANCH   8  13
HETATM   13  O   UNK N   1      24.078  11.346   6.970  0.00  0.00    -0.388 OA
HETATM   14  H   UNK N   1      23.676  10.523   6.653  0.00  0.00     0.210 HD
ENDBRANCH   8  13
BRANCH   9  15
HETATM   15  N   UNK N   1      24.055  13.243   9.097  0.00  0.00    -0.297 N 
HETATM   16  C   UNK N   1      25.194  13.073   9.819  0.00  0.00     0.188 A 
HETATM   17  N   UNK N   1      24.932  12.631  11.078  0.00  0.00    -0.346 N 
HETATM   18  C   UNK N   1      23.596  12.507  11.113  0.00  0.00     0.122 A 
ATOM     19  HN  UNK N   1      25.598  12.436  11.825  1.00  0.00     0.167 HD
HETATM   20  C   UNK N   1      22.778  12.061  12.136  0.00  0.00     0.131 A 
HETATM   21  C   UNK N   1      23.066  12.872   9.927  0.00  0.00     0.142 A 
HETATM   22  N   UNK N   1      21.434  12.000  11.901  0.00  0.00    -0.337 N 
HETATM   23  C   UNK N   1      20.913  12.366  10.682  0.00  0.00     0.183 A 
ATOM     24  HN  UNK N   1      20.807  11.679  12.639  1.00  0.00     0.168 HD
HETATM   25  N   UNK N   1      21.735  12.804   9.678  0.00  0.00    -0.336 N 
ATOM     26  HN  UNK N   1      21.358  13.069   8.768  1.00  0.00     0.168 HD
BRANCH  20  27
HETATM   27  N   UNK N   1      23.310  11.668  13.380  0.00  0.00    -0.383 N 
HETATM   28  H   UNK N   1      23.241  12.265  14.159  0.00  0.00     0.157 HD
HETATM   29  H   UNK N   1      23.753  10.793  13.470  0.00  0.00     0.157 HD
ENDBRANCH  20  27
ENDBRANCH   9  15
ENDBRANCH   5   6
ENDBRANCH   4   5
ENDBRANCH   3   4
BRANCH   3  30
HETATM   30  O   UNK N   1      19.981  17.777   3.328  0.00  0.00    -0.188 OA
BRANCH  30  31
HETATM   31  P   UNK N   1      21.216  18.718   4.116  0.00  0.00     0.402 P 
HETATM   32  O   UNK N   1      20.705  20.182   4.171  0.00  0.00    -0.631 OA
BRANCH  31  33
HETATM   33  O   UNK N   1      21.416  18.221   5.768  0.00  0.00    -0.307 OA
HETATM   34  H   UNK N   1      20.868  18.611   6.467  0.00  0.00     0.222 HD
ENDBRANCH  31  33
BRANCH  31  35
HETATM   35  O   UNK N   1      22.734  18.741   3.261  0.00  0.00    -0.294 OA
BRANCH  35  36
HETATM   36  C   UNK N   1      23.717  18.838   4.247  0.00  0.00     0.215 C 
BRANCH  36  37
HETATM   37  C   UNK N   1      25.012  18.161   3.802  0.00  0.00     0.180 C 
HETATM   38  C   UNK N   1      24.991  16.657   3.955  0.00  0.00     0.182 C 
HETATM   39  C   UNK N   1      26.458  16.327   3.802  0.00  0.00     0.198 C 
HETATM   40  C   UNK N   1      27.137  17.666   4.185  0.00  0.00     0.259 C 
HETATM   41  O   UNK N   1      26.115  18.566   4.583  0.00  0.00    -0.353 OA
BRANCH  38  42
HETATM   42  O   UNK N   1      24.187  16.014   3.012  0.00  0.00    -0.390 OA
HETATM   43  H   UNK N   1      24.494  15.916   2.097  0.00  0.00     0.210 HD
ENDBRANCH  38  42
BRANCH  39  44
HETATM   44  O   UNK N   1      26.798  15.254   4.632  0.00  0.00    -0.388 OA
HETATM   45  H   UNK N   1      27.241  14.797   5.364  0.00  0.00     0.210 HD
ENDBRANCH  39  44
BRANCH  40  46
HETATM   46  N   UNK N   1      28.224  17.546   5.171  0.00  0.00    -0.337 N 
HETATM   47  C   UNK N   1      29.461  17.160   4.739  0.00  0.00     0.093 A 
HETATM   48  C   UNK N   1      30.542  17.110   5.620  0.00  0.00     0.018 A 
HETATM   49  C   UNK N   1      30.356  17.483   6.949  0.00  0.00     0.011 A 
HETATM   50  C   UNK N   1      29.093  17.887   7.382  0.00  0.00    -0.025 A 
HETATM   51  C   UNK N   1      28.030  17.908   6.474  0.00  0.00     0.102 A 
BRANCH  50  52
HETATM   52  C   UNK N   1      28.882  18.320   8.792  0.00  0.00     0.151 C 
BRANCH  52  53
HETATM   53  N   UNK N   1      27.460  18.335   9.098  0.00  0.00    -0.426 N 
HETATM   54  H   UNK N   1      26.819  17.697   9.570  0.00  0.00     0.150 HD
HETATM   55  H   UNK N   1      26.996  19.180   8.762  0.00  0.00     0.150 HD
ENDBRANCH  52  53
ENDBRANCH  50  52
ENDBRANCH  40  46
ENDBRANCH  36  37
ENDBRANCH  35  36
ENDBRANCH  31  35
ENDBRANCH  30  31
ENDBRANCH   3  30
TORSDOF 18
ENDMDL
MODEL 5
REMARK VINA RESULT:      -7.6      1.557      2.792
REMARK  18 active torsions:
REMARK  status: ('A' for Active; 'I' for Inactive)
REMARK    1  A    between atoms: C_10  and  C_4 
REMARK    2  A    between atoms: N_22  and  C_4 
REMARK    3  A    between atoms: C_11  and  C_6 
REMARK    4  A    between atoms: O_40  and  C_6 
REMARK    5  A    between atoms: C_12  and  C_7 
REMARK    6  A    between atoms: O_41  and  C_7 
REMARK    7  A    between atoms: C_14  and  O_32 
REMARK    8  A    between atoms: C_15  and  O_33 
REMARK    9  A    between atoms: C_16  and  O_34 
REMARK   10  A    between atoms: C_17  and  O_35 
REMARK   11  A    between atoms: N_23  and  C_18 
REMARK   12  A    between atoms: C_20  and  N_30 
REMARK   13  A    between atoms: C_21  and  N_31 
REMARK   14  A    between atoms: P_45  and  O_37 
REMARK   15  A    between atoms: P_45  and  O_40 
REMARK   16  A    between atoms: P_46  and  O_41 
REMARK   17  A    between atoms: P_45  and  O_44 
REMARK   18  A    between atoms: P_46  and  O_44 
ROOT
HETATM    1  O   UNK N   1      35.319  17.568  10.098  0.00  0.00    -0.624 OA
HETATM    2  O   UNK N   1      34.876  18.321   7.622  0.00  0.00    -0.624 OA
HETATM    3  P   UNK N   1      34.562  17.103   8.826  0.00  0.00     0.417 P 
ENDROOT
BRANCH   3   4
HETATM    4  O   UNK N   1      32.863  17.002   9.248  0.00  0.00    -0.287 OA
BRANCH   4   5
HETATM    5  C   UNK N   1      32.202  17.852   8.359  0.00  0.00     0.216 C 
BRANCH   5   6
HETATM    6  C   UNK N   1      31.522  17.040   7.264  0.00  0.00     0.180 C 
HETATM    7  C   UNK N   1      32.206  17.116   5.908  0.00  0.00     0.182 C 
HETATM    8  C   UNK N   1      31.045  16.864   4.935  0.00  0.00     0.198 C 
HETATM    9  C   UNK N   1      29.850  16.755   5.902  0.00  0.00     0.262 C 
HETATM   10  O   UNK N   1      30.220  17.513   7.028  0.00  0.00    -0.353 OA
BRANCH   7  11
HETATM   11  O   UNK N   1      33.245  16.192   5.784  0.00  0.00    -0.390 OA
HETATM   12  H   UNK N   1      33.250  15.240   5.967  0.00  0.00     0.210 HD
ENDBRANCH   7  11
BRANCH   8  13
HETATM   13  O   UNK N   1      30.927  17.992   4.116  0.00  0.00    -0.388 OA
HETATM   14  H   UNK N   1      30.867  18.959   4.086  0.00  0.00     0.210 HD
ENDBRANCH   8  13
BRANCH   9  15
HETATM   15  N   UNK N   1      28.527  17.157   5.407  0.00  0.00    -0.297 N 
HETATM   16  C   UNK N   1      27.841  16.475   4.452  0.00  0.00     0.188 A 
HETATM   17  N   UNK N   1      26.669  17.089   4.138  0.00  0.00    -0.346 N 
HETATM   18  C   UNK N   1      26.655  18.188   4.909  0.00  0.00     0.122 A 
ATOM     19  HN  UNK N   1      25.962  16.785   3.469  1.00  0.00     0.167 HD
HETATM   20  C   UNK N   1      25.716  19.202   4.981  0.00  0.00     0.131 A 
HETATM   21  C   UNK N   1      27.768  18.234   5.670  0.00  0.00     0.142 A 
HETATM   22  N   UNK N   1      25.959  20.239   5.836  0.00  0.00    -0.337 N 
HETATM   23  C   UNK N   1      27.104  20.274   6.597  0.00  0.00     0.183 A 
ATOM     24  HN  UNK N   1      25.281  20.998   5.913  1.00  0.00     0.168 HD
HETATM   25  N   UNK N   1      28.024  19.264   6.513  0.00  0.00    -0.336 N 
ATOM     26  HN  UNK N   1      28.881  19.286   7.068  1.00  0.00     0.168 HD
BRANCH  20  27
HETATM   27  N   UNK N   1      24.550  19.178   4.190  0.00  0.00    -0.383 N 
HETATM   28  H   UNK N   1      24.549  18.714   3.323  0.00  0.00     0.157 HD
HETATM   29  H   UNK N   1      23.733  19.628   4.506  0.00  0.00     0.157 HD
ENDBRANCH  20  27
ENDBRANCH   9  15
ENDBRANCH   5   6
ENDBRANCH   4   5
ENDBRANCH   3   4
BRANCH   3  30
HETATM   30  O   UNK N   1      35.267  15.584   8.343  0.00  0.00    -0.188 OA
BRANCH  30  31
HETATM   31  P   UNK N   1      35.877  14.817   9.784  0.00  0.00     0.402 P 
HETATM   32  O   UNK N   1      36.387  13.412   9.368  0.00  0.00    -0.631 OA
BRANCH  31  33
HETATM   33  O   UNK N   1      37.261  15.665  10.399  0.00  0.00    -0.307 OA
HETATM   34  H   UNK N   1      37.652  16.397   9.897  0.00  0.00     0.222 HD
ENDBRANCH  31  33
BRANCH  31  35
HETATM   35  O   UNK N   1      34.667  14.577  11.014  0.00  0.00    -0.294 OA
BRANCH  35  36
HETATM   36  C   UNK N   1      35.349  14.657  12.229  0.00  0.00     0.215 C 
BRANCH  36  37
HETATM   37  C   UNK N   1      35.729  13.270  12.742  0.00  0.00     0.180 C 
HETATM   38  C   UNK N   1      34.617  12.254  12.616  0.00  0.00     0.182 C 
HETATM   39  C   UNK N   1      35.133  11.143  13.501  0.00  0.00     0.198 C 
HETATM   40  C   UNK N   1      36.107  11.898  14.439  0.00  0.00     0.259 C 
HETATM   41  O   UNK N   1      36.026  13.278  14.121  0.00  0.00    -0.353 OA
BRANCH  38  42
HETATM   42  O   UNK N   1      34.389  11.840  11.300  0.00  0.00    -0.390 OA
HETATM   43  H   UNK N   1      33.612  11.300  11.090  0.00  0.00     0.210 HD
ENDBRANCH  38  42
BRANCH  39  44
HETATM   44  O   UNK N   1      34.069  10.520  14.160  0.00  0.00    -0.388 OA
HETATM   45  H   UNK N   1      33.151  10.382  14.442  0.00  0.00     0.210 HD
ENDBRANCH  39  44
BRANCH  40  46
HETATM   46  N   UNK N   1      35.921  11.619  15.873  0.00  0.00    -0.337 N 
HETATM   47  C   UNK N   1      36.265  10.387  16.352  0.00  0.00     0.093 A 
HETATM   48  C   UNK N   1      36.184  10.102  17.716  0.00  0.00     0.018 A 
HETATM   49  C   UNK N   1      35.770  11.097  18.597  0.00  0.00     0.011 A 
HETATM   50  C   UNK N   1      35.432  12.358  18.104  0.00  0.00    -0.025 A 
HETATM   51  C   UNK N   1      35.509  12.601  16.729  0.00  0.00     0.102 A 
BRANCH  50  52
HETATM   52  C   UNK N   1      35.018  13.446  19.035  0.00  0.00     0.151 C 
BRANCH  52  53
HETATM   53  N   UNK N   1      34.895  12.921  20.386  0.00  0.00    -0.426 N 
HETATM   54  H   UNK N   1      35.184  13.240  21.310  0.00  0.00     0.150 HD
HETATM   55  H   UNK N   1      34.405  12.026  20.416  0.00  0.00     0.150 HD
ENDBRANCH  52  53
ENDBRANCH  50  52
ENDBRANCH  40  46
ENDBRANCH  36  37
ENDBRANCH  35  36
ENDBRANCH  31  35
ENDBRANCH  30  31
ENDBRANCH   3  30
TORSDOF 18
ENDMDL
MODEL 6
REMARK VINA RESULT:      -7.6      1.582     12.917
REMARK  18 active torsions:
REMARK  status: ('A' for Active; 'I' for Inactive)
REMARK    1  A    between atoms: C_10  and  C_4 
REMARK    2  A    between atoms: N_22  and  C_4 
REMARK    3  A    between atoms: C_11  and  C_6 
REMARK    4  A    between atoms: O_40  and  C_6 
REMARK    5  A    between atoms: C_12  and  C_7 
REMARK    6  A    between atoms: O_41  and  C_7 
REMARK    7  A    between atoms: C_14  and  O_32 
REMARK    8  A    between atoms: C_15  and  O_33 
REMARK    9  A    between atoms: C_16  and  O_34 
REMARK   10  A    between atoms: C_17  and  O_35 
REMARK   11  A    between atoms: N_23  and  C_18 
REMARK   12  A    between atoms: C_20  and  N_30 
REMARK   13  A    between atoms: C_21  and  N_31 
REMARK   14  A    between atoms: P_45  and  O_37 
REMARK   15  A    between atoms: P_45  and  O_40 
REMARK   16  A    between atoms: P_46  and  O_41 
REMARK   17  A    between atoms: P_45  and  O_44 
REMARK   18  A    between atoms: P_46  and  O_44 
ROOT
HETATM    1  O   UNK N   1      35.470  13.585   9.461  0.00  0.00    -0.624 OA
HETATM    2  O   UNK N   1      37.459  15.093  10.274  0.00  0.00    -0.624 OA
HETATM    3  P   UNK N   1      35.729  14.917  10.213  0.00  0.00     0.417 P 
ENDROOT
BRANCH   3   4
HETATM    4  O   UNK N   1      35.018  14.752  11.808  0.00  0.00    -0.287 OA
BRANCH   4   5
HETATM    5  C   UNK N   1      36.078  14.465  12.668  0.00  0.00     0.216 C 
BRANCH   5   6
HETATM    6  C   UNK N   1      36.001  13.016  13.133  0.00  0.00     0.180 C 
HETATM    7  C   UNK N   1      34.668  12.337  12.857  0.00  0.00     0.182 C 
HETATM    8  C   UNK N   1      34.602  11.274  13.963  0.00  0.00     0.198 C 
HETATM    9  C   UNK N   1      35.893  11.567  14.751  0.00  0.00     0.262 C 
HETATM   10  O   UNK N   1      36.158  12.931  14.526  0.00  0.00    -0.353 OA
BRANCH   7  11
HETATM   11  O   UNK N   1      34.599  11.805  11.569  0.00  0.00    -0.390 OA
HETATM   12  H   UNK N   1      33.822  11.594  11.029  0.00  0.00     0.210 HD
ENDBRANCH   7  11
BRANCH   8  13
HETATM   13  O   UNK N   1      33.468  11.541  14.738  0.00  0.00    -0.388 OA
HETATM   14  H   UNK N   1      32.502  11.479  14.794  0.00  0.00     0.210 HD
ENDBRANCH   8  13
BRANCH   9  15
HETATM   15  N   UNK N   1      35.907  11.257  16.186  0.00  0.00    -0.297 N 
HETATM   16  C   UNK N   1      36.124  10.012  16.686  0.00  0.00     0.188 A 
HETATM   17  N   UNK N   1      36.030   9.989  18.043  0.00  0.00    -0.346 N 
HETATM   18  C   UNK N   1      35.725  11.254  18.374  0.00  0.00     0.122 A 
ATOM     19  HN  UNK N   1      36.161   9.193  18.667  1.00  0.00     0.167 HD
HETATM   20  C   UNK N   1      35.478  11.804  19.619  0.00  0.00     0.131 A 
HETATM   21  C   UNK N   1      35.648  12.017  17.264  0.00  0.00     0.142 A 
HETATM   22  N   UNK N   1      35.152  13.129  19.681  0.00  0.00    -0.337 N 
HETATM   23  C   UNK N   1      35.069  13.889  18.538  0.00  0.00     0.183 A 
ATOM     24  HN  UNK N   1      34.969  13.561  20.586  1.00  0.00     0.168 HD
HETATM   25  N   UNK N   1      35.314  13.330  17.312  0.00  0.00    -0.336 N 
ATOM     26  HN  UNK N   1      35.246  13.885  16.458  1.00  0.00     0.168 HD
BRANCH  20  27
HETATM   27  N   UNK N   1      35.545  11.023  20.791  0.00  0.00    -0.383 N 
HETATM   28  H   UNK N   1      36.138  11.289  21.530  0.00  0.00     0.157 HD
HETATM   29  H   UNK N   1      34.996  10.209  20.870  0.00  0.00     0.157 HD
ENDBRANCH  20  27
ENDBRANCH   9  15
ENDBRANCH   5   6
ENDBRANCH   4   5
ENDBRANCH   3   4
BRANCH   3  30
HETATM   30  O   UNK N   1      35.028  16.189   9.250  0.00  0.00    -0.188 OA
BRANCH  30  31
HETATM   31  P   UNK N   1      33.362  15.764   8.968  0.00  0.00     0.402 P 
HETATM   32  O   UNK N   1      33.352  14.686   7.851  0.00  0.00    -0.631 OA
BRANCH  31  33
HETATM   33  O   UNK N   1      32.669  15.007  10.368  0.00  0.00    -0.307 OA
HETATM   34  H   UNK N   1      32.236  14.142  10.294  0.00  0.00     0.222 HD
ENDBRANCH  31  33
BRANCH  31  35
HETATM   35  O   UNK N   1      32.387  17.091   8.401  0.00  0.00    -0.294 OA
BRANCH  35  36
HETATM   36  C   UNK N   1      31.063  16.679   8.566  0.00  0.00     0.215 C 
BRANCH  36  37
HETATM   37  C   UNK N   1      30.352  16.560   7.220  0.00  0.00     0.180 C 
HETATM   38  C   UNK N   1      31.173  17.066   6.055  0.00  0.00     0.182 C 
HETATM   39  C   UNK N   1      30.120  17.164   4.975  0.00  0.00     0.198 C 
HETATM   40  C   UNK N   1      28.815  17.290   5.801  0.00  0.00     0.259 C 
HETATM   41  O   UNK N   1      29.179  17.342   7.172  0.00  0.00    -0.353 OA
BRANCH  38  42
HETATM   42  O   UNK N   1      32.229  16.218   5.711  0.00  0.00    -0.390 OA
HETATM   43  H   UNK N   1      32.933  16.534   5.125  0.00  0.00     0.210 HD
ENDBRANCH  38  42
BRANCH  39  44
HETATM   44  O   UNK N   1      30.383  18.260   4.147  0.00  0.00    -0.388 OA
HETATM   45  H   UNK N   1      30.425  18.764   3.319  0.00  0.00     0.210 HD
ENDBRANCH  39  44
BRANCH  40  46
HETATM   46  N   UNK N   1      27.931  18.393   5.391  0.00  0.00    -0.337 N 
HETATM   47  C   UNK N   1      27.264  18.292   4.202  0.00  0.00     0.093 A 
HETATM   48  C   UNK N   1      26.353  19.274   3.808  0.00  0.00     0.018 A 
HETATM   49  C   UNK N   1      26.107  20.353   4.652  0.00  0.00     0.011 A 
HETATM   50  C   UNK N   1      26.781  20.445   5.870  0.00  0.00    -0.025 A 
HETATM   51  C   UNK N   1      27.700  19.452   6.223  0.00  0.00     0.102 A 
BRANCH  50  52
HETATM   52  C   UNK N   1      26.507  21.577   6.801  0.00  0.00     0.151 C 
BRANCH  52  53
HETATM   53  N   UNK N   1      25.915  21.074   8.030  0.00  0.00    -0.426 N 
HETATM   54  H   UNK N   1      26.241  20.487   8.797  0.00  0.00     0.150 HD
HETATM   55  H   UNK N   1      24.949  21.379   8.153  0.00  0.00     0.150 HD
ENDBRANCH  52  53
ENDBRANCH  50  52
ENDBRANCH  40  46
ENDBRANCH  36  37
ENDBRANCH  35  36
ENDBRANCH  31  35
ENDBRANCH  30  31
ENDBRANCH   3  30
TORSDOF 18
ENDMDL
MODEL 7
REMARK VINA RESULT:      -7.5      1.276     12.693
REMARK  18 active torsions:
REMARK  status: ('A' for Active; 'I' for Inactive)
REMARK    1  A    between atoms: C_10  and  C_4 
REMARK    2  A    between atoms: N_22  and  C_4 
REMARK    3  A    between atoms: C_11  and  C_6 
REMARK    4  A    between atoms: O_40  and  C_6 
REMARK    5  A    between atoms: C_12  and  C_7 
REMARK    6  A    between atoms: O_41  and  C_7 
REMARK    7  A    between atoms: C_14  and  O_32 
REMARK    8  A    between atoms: C_15  and  O_33 
REMARK    9  A    between atoms: C_16  and  O_34 
REMARK   10  A    between atoms: C_17  and  O_35 
REMARK   11  A    between atoms: N_23  and  C_18 
REMARK   12  A    between atoms: C_20  and  N_30 
REMARK   13  A    between atoms: C_21  and  N_31 
REMARK   14  A    between atoms: P_45  and  O_37 
REMARK   15  A    between atoms: P_45  and  O_40 
REMARK   16  A    between atoms: P_46  and  O_41 
REMARK   17  A    between atoms: P_45  and  O_44 
REMARK   18  A    between atoms: P_46  and  O_44 
ROOT
HETATM    1  O   UNK N   1      36.807  15.415  10.364  0.00  0.00    -0.624 OA
HETATM    2  O   UNK N   1      34.865  17.180  10.437  0.00  0.00    -0.624 OA
HETATM    3  P   UNK N   1      35.259  15.485  10.447  0.00  0.00     0.417 P 
ENDROOT
BRANCH   3   4
HETATM    4  O   UNK N   1      34.789  14.698  11.943  0.00  0.00    -0.287 OA
BRANCH   4   5
HETATM    5  C   UNK N   1      35.975  14.484  12.647  0.00  0.00     0.216 C 
BRANCH   5   6
HETATM    6  C   UNK N   1      36.057  13.036  13.110  0.00  0.00     0.180 C 
HETATM    7  C   UNK N   1      34.855  12.184  12.732  0.00  0.00     0.182 C 
HETATM    8  C   UNK N   1      34.845  11.115  13.834  0.00  0.00     0.198 C 
HETATM    9  C   UNK N   1      36.019  11.574  14.721  0.00  0.00     0.262 C 
HETATM   10  O   UNK N   1      36.114  12.963  14.512  0.00  0.00    -0.353 OA
BRANCH   7  11
HETATM   11  O   UNK N   1      34.960  11.656  11.445  0.00  0.00    -0.390 OA
HETATM   12  H   UNK N   1      35.707  11.679  10.827  0.00  0.00     0.210 HD
ENDBRANCH   7  11
BRANCH   8  13
HETATM   13  O   UNK N   1      33.628  11.221  14.516  0.00  0.00    -0.388 OA
HETATM   14  H   UNK N   1      33.191  11.482  15.342  0.00  0.00     0.210 HD
ENDBRANCH   8  13
BRANCH   9  15
HETATM   15  N   UNK N   1      35.961  11.259  16.154  0.00  0.00    -0.297 N 
HETATM   16  C   UNK N   1      36.126  10.007  16.657  0.00  0.00     0.188 A 
HETATM   17  N   UNK N   1      35.971   9.983  18.008  0.00  0.00    -0.346 N 
HETATM   18  C   UNK N   1      35.681  11.253  18.331  0.00  0.00     0.122 A 
ATOM     19  HN  UNK N   1      36.056   9.182  18.634  1.00  0.00     0.167 HD
HETATM   20  C   UNK N   1      35.391  11.805  19.566  0.00  0.00     0.131 A 
HETATM   21  C   UNK N   1      35.672  12.022  17.222  0.00  0.00     0.142 A 
HETATM   22  N   UNK N   1      35.094  13.137  19.619  0.00  0.00    -0.337 N 
HETATM   23  C   UNK N   1      35.080  13.902  18.477  0.00  0.00     0.183 A 
ATOM     24  HN  UNK N   1      34.881  13.570  20.517  1.00  0.00     0.168 HD
HETATM   25  N   UNK N   1      35.367  13.341  17.261  0.00  0.00    -0.336 N 
ATOM     26  HN  UNK N   1      35.350  13.901  16.407  1.00  0.00     0.168 HD
BRANCH  20  27
HETATM   27  N   UNK N   1      35.388  11.019  20.736  0.00  0.00    -0.383 N 
HETATM   28  H   UNK N   1      35.568  11.432  21.611  0.00  0.00     0.157 HD
HETATM   29  H   UNK N   1      35.203  10.053  20.678  0.00  0.00     0.157 HD
ENDBRANCH  20  27
ENDBRANCH   9  15
ENDBRANCH   5   6
ENDBRANCH   4   5
ENDBRANCH   3   4
BRANCH   3  30
HETATM   30  O   UNK N   1      34.639  14.714   9.012  0.00  0.00    -0.188 OA
BRANCH  30  31
HETATM   31  P   UNK N   1      32.901  14.745   9.121  0.00  0.00     0.402 P 
HETATM   32  O   UNK N   1      32.403  13.302   8.844  0.00  0.00    -0.631 OA
BRANCH  31  33
HETATM   33  O   UNK N   1      32.386  15.126  10.734  0.00  0.00    -0.307 OA
HETATM   34  H   UNK N   1      32.334  14.432  11.410  0.00  0.00     0.222 HD
ENDBRANCH  31  33
BRANCH  31  35
HETATM   35  O   UNK N   1      32.144  15.779   7.940  0.00  0.00    -0.294 OA
BRANCH  35  36
HETATM   36  C   UNK N   1      32.067  17.037   8.540  0.00  0.00     0.215 C 
BRANCH  36  37
HETATM   37  C   UNK N   1      30.755  17.735   8.190  0.00  0.00     0.180 C 
HETATM   38  C   UNK N   1      29.665  17.522   9.215  0.00  0.00     0.182 C 
HETATM   39  C   UNK N   1      28.448  17.990   8.450  0.00  0.00     0.198 C 
HETATM   40  C   UNK N   1      28.903  17.824   6.978  0.00  0.00     0.259 C 
HETATM   41  O   UNK N   1      30.196  17.242   6.993  0.00  0.00    -0.353 OA
BRANCH  38  42
HETATM   42  O   UNK N   1      29.869  18.232  10.400  0.00  0.00    -0.390 OA
HETATM   43  H   UNK N   1      29.552  19.145  10.480  0.00  0.00     0.210 HD
ENDBRANCH  38  42
BRANCH  39  44
HETATM   44  O   UNK N   1      27.335  17.216   8.797  0.00  0.00    -0.388 OA
HETATM   45  H   UNK N   1      26.768  16.672   9.366  0.00  0.00     0.210 HD
ENDBRANCH  39  44
BRANCH  40  46
HETATM   46  N   UNK N   1      27.950  17.106   6.116  0.00  0.00    -0.337 N 
HETATM   47  C   UNK N   1      28.060  15.749   6.003  0.00  0.00     0.093 A 
HETATM   48  C   UNK N   1      27.132  15.016   5.262  0.00  0.00     0.018 A 
HETATM   49  C   UNK N   1      26.068  15.678   4.655  0.00  0.00     0.011 A 
HETATM   50  C   UNK N   1      25.953  17.062   4.783  0.00  0.00    -0.025 A 
HETATM   51  C   UNK N   1      26.913  17.766   5.519  0.00  0.00     0.102 A 
BRANCH  50  52
HETATM   52  C   UNK N   1      24.804  17.784   4.167  0.00  0.00     0.151 C 
BRANCH  52  53
HETATM   53  N   UNK N   1      25.280  18.968   3.470  0.00  0.00    -0.426 N 
HETATM   54  H   UNK N   1      25.808  19.134   2.613  0.00  0.00     0.150 HD
HETATM   55  H   UNK N   1      25.027  19.833   3.949  0.00  0.00     0.150 HD
ENDBRANCH  52  53
ENDBRANCH  50  52
ENDBRANCH  40  46
ENDBRANCH  36  37
ENDBRANCH  35  36
ENDBRANCH  31  35
ENDBRANCH  30  31
ENDBRANCH   3  30
TORSDOF 18
ENDMDL
MODEL 8
REMARK VINA RESULT:      -7.4      2.090      3.021
REMARK  18 active torsions:
REMARK  status: ('A' for Active; 'I' for Inactive)
REMARK    1  A    between atoms: C_10  and  C_4 
REMARK    2  A    between atoms: N_22  and  C_4 
REMARK    3  A    between atoms: C_11  and  C_6 
REMARK    4  A    between atoms: O_40  and  C_6 
REMARK    5  A    between atoms: C_12  and  C_7 
REMARK    6  A    between atoms: O_41  and  C_7 
REMARK    7  A    between atoms: C_14  and  O_32 
REMARK    8  A    between atoms: C_15  and  O_33 
REMARK    9  A    between atoms: C_16  and  O_34 
REMARK   10  A    between atoms: C_17  and  O_35 
REMARK   11  A    between atoms: N_23  and  C_18 
REMARK   12  A    between atoms: C_20  and  N_30 
REMARK   13  A    between atoms: C_21  and  N_31 
REMARK   14  A    between atoms: P_45  and  O_37 
REMARK   15  A    between atoms: P_45  and  O_40 
REMARK   16  A    between atoms: P_46  and  O_41 
REMARK   17  A    between atoms: P_45  and  O_44 
REMARK   18  A    between atoms: P_46  and  O_44 
ROOT
HETATM    1  O   UNK N   1      33.228  17.557   5.143  0.00  0.00    -0.624 OA
HETATM    2  O   UNK N   1      34.074  15.076   4.998  0.00  0.00    -0.624 OA
HETATM    3  P   UNK N   1      33.600  16.366   6.066  0.00  0.00     0.417 P 
ENDROOT
BRANCH   3   4
HETATM    4  O   UNK N   1      32.166  15.971   6.996  0.00  0.00    -0.287 OA
BRANCH   4   5
HETATM    5  C   UNK N   1      31.086  16.199   6.142  0.00  0.00     0.216 C 
BRANCH   5   6
HETATM    6  C   UNK N   1      30.241  17.355   6.662  0.00  0.00     0.180 C 
HETATM    7  C   UNK N   1      29.567  17.091   8.000  0.00  0.00     0.182 C 
HETATM    8  C   UNK N   1      28.329  17.997   7.934  0.00  0.00     0.198 C 
HETATM    9  C   UNK N   1      28.455  18.590   6.517  0.00  0.00     0.262 C 
HETATM   10  O   UNK N   1      29.181  17.633   5.783  0.00  0.00    -0.353 OA
BRANCH   7  11
HETATM   11  O   UNK N   1      30.405  17.370   9.081  0.00  0.00    -0.390 OA
HETATM   12  H   UNK N   1      30.858  16.761   9.685  0.00  0.00     0.210 HD
ENDBRANCH   7  11
BRANCH   8  13
HETATM   13  O   UNK N   1      27.200  17.178   8.038  0.00  0.00    -0.388 OA
HETATM   14  H   UNK N   1      26.618  16.551   7.579  0.00  0.00     0.210 HD
ENDBRANCH   8  13
BRANCH   9  15
HETATM   15  N   UNK N   1      27.221  18.966   5.818  0.00  0.00    -0.297 N 
HETATM   16  C   UNK N   1      26.737  20.235   5.773  0.00  0.00     0.188 A 
HETATM   17  N   UNK N   1      25.553  20.301   5.108  0.00  0.00    -0.346 N 
HETATM   18  C   UNK N   1      25.299  19.030   4.759  0.00  0.00     0.122 A 
ATOM     19  HN  UNK N   1      24.986  21.128   4.918  1.00  0.00     0.167 HD
HETATM   20  C   UNK N   1      24.209  18.500   4.091  0.00  0.00     0.131 A 
HETATM   21  C   UNK N   1      26.295  18.225   5.184  0.00  0.00     0.142 A 
HETATM   22  N   UNK N   1      24.179  17.150   3.886  0.00  0.00    -0.337 N 
HETATM   23  C   UNK N   1      25.198  16.345   4.336  0.00  0.00     0.183 A 
ATOM     24  HN  UNK N   1      23.389  16.733   3.393  1.00  0.00     0.168 HD
HETATM   25  N   UNK N   1      26.269  16.884   4.997  0.00  0.00    -0.336 N 
ATOM     26  HN  UNK N   1      27.027  16.292   5.341  1.00  0.00     0.168 HD
BRANCH  20  27
HETATM   27  N   UNK N   1      23.154  19.321   3.645  0.00  0.00    -0.383 N 
HETATM   28  H   UNK N   1      23.322  20.027   2.982  0.00  0.00     0.157 HD
HETATM   29  H   UNK N   1      22.245  19.185   3.999  0.00  0.00     0.157 HD
ENDBRANCH  20  27
ENDBRANCH   9  15
ENDBRANCH   5   6
ENDBRANCH   4   5
ENDBRANCH   3   4
BRANCH   3  30
HETATM   30  O   UNK N   1      34.957  16.877   7.033  0.00  0.00    -0.188 OA
BRANCH  30  31
HETATM   31  P   UNK N   1      34.320  17.778   8.380  0.00  0.00     0.402 P 
HETATM   32  O   UNK N   1      35.333  18.913   8.686  0.00  0.00    -0.631 OA
BRANCH  31  33
HETATM   33  O   UNK N   1      32.834  18.568   7.952  0.00  0.00    -0.307 OA
HETATM   34  H   UNK N   1      32.305  19.018   8.630  0.00  0.00     0.222 HD
ENDBRANCH  31  33
BRANCH  31  35
HETATM   35  O   UNK N   1      34.155  16.837   9.837  0.00  0.00    -0.294 OA
BRANCH  35  36
HETATM   36  C   UNK N   1      35.423  16.824  10.419  0.00  0.00     0.215 C 
BRANCH  36  37
HETATM   37  C   UNK N   1      35.940  15.397  10.584  0.00  0.00     0.180 C 
HETATM   38  C   UNK N   1      34.894  14.340  10.310  0.00  0.00     0.182 C 
HETATM   39  C   UNK N   1      35.559  13.112  10.889  0.00  0.00     0.198 C 
HETATM   40  C   UNK N   1      36.554  13.728  11.905  0.00  0.00     0.259 C 
HETATM   41  O   UNK N   1      36.351  15.132  11.907  0.00  0.00    -0.353 OA
BRANCH  38  42
HETATM   42  O   UNK N   1      34.584  14.203   8.955  0.00  0.00    -0.390 OA
HETATM   43  H   UNK N   1      34.085  14.897   8.498  0.00  0.00     0.210 HD
ENDBRANCH  38  42
BRANCH  39  44
HETATM   44  O   UNK N   1      34.600  12.272  11.464  0.00  0.00    -0.388 OA
HETATM   45  H   UNK N   1      33.841  12.031  12.019  0.00  0.00     0.210 HD
ENDBRANCH  39  44
BRANCH  40  46
HETATM   46  N   UNK N   1      36.511  13.131  13.249  0.00  0.00    -0.337 N 
HETATM   47  C   UNK N   1      35.784  13.757  14.222  0.00  0.00     0.093 A 
HETATM   48  C   UNK N   1      35.646  13.187  15.489  0.00  0.00     0.018 A 
HETATM   49  C   UNK N   1      36.238  11.954  15.751  0.00  0.00     0.011 A 
HETATM   50  C   UNK N   1      36.970  11.314  14.750  0.00  0.00    -0.025 A 
HETATM   51  C   UNK N   1      37.101  11.923  13.498  0.00  0.00     0.102 A 
BRANCH  50  52
HETATM   52  C   UNK N   1      37.584   9.980  15.001  0.00  0.00     0.151 C 
BRANCH  52  53
HETATM   53  N   UNK N   1      38.430   9.605  13.879  0.00  0.00    -0.426 N 
HETATM   54  H   UNK N   1      38.270   9.166  12.973  0.00  0.00     0.150 HD
HETATM   55  H   UNK N   1      39.412   9.835  14.036  0.00  0.00     0.150 HD
ENDBRANCH  52  53
ENDBRANCH  50  52
ENDBRANCH  40  46
ENDBRANCH  36  37
ENDBRANCH  35  36
ENDBRANCH  31  35
ENDBRANCH  30  31
ENDBRANCH   3  30
TORSDOF 18
ENDMDL
MODEL 9
REMARK VINA RESULT:      -7.4      1.940      3.158
REMARK  18 active torsions:
REMARK  status: ('A' for Active; 'I' for Inactive)
REMARK    1  A    between atoms: C_10  and  C_4 
REMARK    2  A    between atoms: N_22  and  C_4 
REMARK    3  A    between atoms: C_11  and  C_6 
REMARK    4  A    between atoms: O_40  and  C_6 
REMARK    5  A    between atoms: C_12  and  C_7 
REMARK    6  A    between atoms: O_41  and  C_7 
REMARK    7  A    between atoms: C_14  and  O_32 
REMARK    8  A    between atoms: C_15  and  O_33 
REMARK    9  A    between atoms: C_16  and  O_34 
REMARK   10  A    between atoms: C_17  and  O_35 
REMARK   11  A    between atoms: N_23  and  C_18 
REMARK   12  A    between atoms: C_20  and  N_30 
REMARK   13  A    between atoms: C_21  and  N_31 
REMARK   14  A    between atoms: P_45  and  O_37 
REMARK   15  A    between atoms: P_45  and  O_40 
REMARK   16  A    between atoms: P_46  and  O_41 
REMARK   17  A    between atoms: P_45  and  O_44 
REMARK   18  A    between atoms: P_46  and  O_44 
ROOT
HETATM    1  O   UNK N   1      32.167  13.870   8.424  0.00  0.00    -0.624 OA
HETATM    2  O   UNK N   1      32.093  16.476   8.737  0.00  0.00    -0.624 OA
HETATM    3  P   UNK N   1      32.854  15.156   7.894  0.00  0.00     0.417 P 
ENDROOT
BRANCH   3   4
HETATM    4  O   UNK N   1      32.569  15.215   6.165  0.00  0.00    -0.287 OA
BRANCH   4   5
HETATM    5  C   UNK N   1      31.520  14.328   5.923  0.00  0.00     0.216 C 
BRANCH   5   6
HETATM    6  C   UNK N   1      30.309  15.079   5.386  0.00  0.00     0.180 C 
HETATM    7  C   UNK N   1      30.582  15.904   4.138  0.00  0.00     0.182 C 
HETATM    8  C   UNK N   1      29.528  17.017   4.237  0.00  0.00     0.198 C 
HETATM    9  C   UNK N   1      28.856  16.686   5.584  0.00  0.00     0.262 C 
HETATM   10  O   UNK N   1      29.841  16.010   6.329  0.00  0.00    -0.353 OA
BRANCH   7  11
HETATM   11  O   UNK N   1      30.486  15.148   2.969  0.00  0.00    -0.390 OA
HETATM   12  H   UNK N   1      30.622  14.197   2.835  0.00  0.00     0.210 HD
ENDBRANCH   7  11
BRANCH   8  13
HETATM   13  O   UNK N   1      30.207  18.238   4.300  0.00  0.00    -0.388 OA
HETATM   14  H   UNK N   1      30.769  18.869   3.824  0.00  0.00     0.210 HD
ENDBRANCH   8  13
BRANCH   9  15
HETATM   15  N   UNK N   1      28.282  17.796   6.355  0.00  0.00    -0.297 N 
HETATM   16  C   UNK N   1      28.255  17.834   7.714  0.00  0.00     0.188 A 
HETATM   17  N   UNK N   1      27.620  18.945   8.174  0.00  0.00    -0.346 N 
HETATM   18  C   UNK N   1      27.230  19.588   7.062  0.00  0.00     0.122 A 
ATOM     19  HN  UNK N   1      27.472  19.226   9.144  1.00  0.00     0.167 HD
HETATM   20  C   UNK N   1      26.510  20.762   6.929  0.00  0.00     0.131 A 
HETATM   21  C   UNK N   1      27.623  18.902   5.969  0.00  0.00     0.142 A 
HETATM   22  N   UNK N   1      26.212  21.190   5.667  0.00  0.00    -0.337 N 
HETATM   23  C   UNK N   1      26.612  20.472   4.565  0.00  0.00     0.183 A 
ATOM     24  HN  UNK N   1      25.686  22.055   5.540  1.00  0.00     0.168 HD
HETATM   25  N   UNK N   1      27.323  19.311   4.713  0.00  0.00    -0.336 N 
ATOM     26  HN  UNK N   1      27.617  18.768   3.900  1.00  0.00     0.168 HD
BRANCH  20  27
HETATM   27  N   UNK N   1      26.082  21.491   8.058  0.00  0.00    -0.383 N 
HETATM   28  H   UNK N   1      25.555  21.050   8.761  0.00  0.00     0.157 HD
HETATM   29  H   UNK N   1      26.314  22.444   8.142  0.00  0.00     0.157 HD
ENDBRANCH  20  27
ENDBRANCH   9  15
ENDBRANCH   5   6
ENDBRANCH   4   5
ENDBRANCH   3   4
BRANCH   3  30
HETATM   30  O   UNK N   1      34.537  15.051   8.335  0.00  0.00    -0.188 OA
BRANCH  30  31
HETATM   31  P   UNK N   1      34.613  15.030  10.075  0.00  0.00     0.402 P 
HETATM   32  O   UNK N   1      35.183  16.403  10.521  0.00  0.00    -0.631 OA
BRANCH  31  33
HETATM   33  O   UNK N   1      33.024  14.926  10.766  0.00  0.00    -0.307 OA
HETATM   34  H   UNK N   1      32.695  15.628  11.350  0.00  0.00     0.222 HD
ENDBRANCH  31  33
BRANCH  31  35
HETATM   35  O   UNK N   1      35.676  13.807  10.715  0.00  0.00    -0.294 OA
BRANCH  35  36
HETATM   36  C   UNK N   1      34.891  13.045  11.582  0.00  0.00     0.215 C 
BRANCH  36  37
HETATM   37  C   UNK N   1      34.996  13.560  13.016  0.00  0.00     0.180 C 
HETATM   38  C   UNK N   1      36.374  14.062  13.379  0.00  0.00     0.182 C 
HETATM   39  C   UNK N   1      36.270  14.147  14.884  0.00  0.00     0.198 C 
HETATM   40  C   UNK N   1      35.125  13.148  15.188  0.00  0.00     0.259 C 
HETATM   41  O   UNK N   1      34.745  12.544  13.962  0.00  0.00    -0.353 OA
BRANCH  38  42
HETATM   42  O   UNK N   1      36.694  15.286  12.786  0.00  0.00    -0.390 OA
HETATM   43  H   UNK N   1      37.616  15.586  12.756  0.00  0.00     0.210 HD
ENDBRANCH  38  42
BRANCH  39  44
HETATM   44  O   UNK N   1      37.494  13.812  15.471  0.00  0.00    -0.388 OA
HETATM   45  H   UNK N   1      38.124  13.278  15.980  0.00  0.00     0.210 HD
ENDBRANCH  39  44
BRANCH  40  46
HETATM   46  N   UNK N   1      35.425  12.172  16.250  0.00  0.00    -0.337 N 
HETATM   47  C   UNK N   1      36.045  11.003  15.910  0.00  0.00     0.093 A 
HETATM   48  C   UNK N   1      36.422  10.083  16.890  0.00  0.00     0.018 A 
HETATM   49  C   UNK N   1      36.185  10.379  18.230  0.00  0.00     0.011 A 
HETATM   50  C   UNK N   1      35.563  11.580  18.572  0.00  0.00    -0.025 A 
HETATM   51  C   UNK N   1      35.183  12.469  17.561  0.00  0.00     0.102 A 
BRANCH  50  52
HETATM   52  C   UNK N   1      35.329  11.928  20.002  0.00  0.00     0.151 C 
BRANCH  52  53
HETATM   53  N   UNK N   1      35.107  10.717  20.776  0.00  0.00    -0.426 N 
HETATM   54  H   UNK N   1      35.535   9.792  20.803  0.00  0.00     0.150 HD
HETATM   55  H   UNK N   1      34.345  10.816  21.449  0.00  0.00     0.150 HD
ENDBRANCH  52  53
ENDBRANCH  50  52
ENDBRANCH  40  46
ENDBRANCH  36  37
ENDBRANCH  35  36
ENDBRANCH  31  35
ENDBRANCH  30  31
ENDBRANCH   3  30
TORSDOF 18
ENDMDL
