MODEL 1
REMARK VINA RESULT:      -7.6      0.000      0.000
REMARK  11 active torsions:
REMARK  status: ('A' for Active; 'I' for Inactive)
REMARK    1  A    between atoms: C_4  and  C_1 
REMARK    2  A    between atoms: C_1  and  O_26 
REMARK    3  A    between atoms: C_6  and  O_19 
REMARK    4  A    between atoms: C_7  and  O_20 
REMARK    5  A    between atoms: C_8  and  N_11 
REMARK    6  A    between atoms: C_10  and  N_18 
REMARK    7  A    between atoms: O_21  and  P_29 
REMARK    8  A    between atoms: O_23  and  S_30 
REMARK    9  A    between atoms: O_26  and  P_29 
REMARK   10  A    between atoms: O_28  and  P_29 
REMARK   11  A    between atoms: O_28  and  S_30 
ROOT
HETATM    1  C   UNK N   1      35.571  13.586  13.000  0.00  0.00     0.180 C 
HETATM    2  C   UNK N   1      36.592  12.590  12.528  0.00  0.00     0.182 C 
HETATM    3  C   UNK N   1      36.805  11.833  13.780  0.00  0.00     0.198 C 
HETATM    4  C   UNK N   1      35.363  11.704  14.224  0.00  0.00     0.262 C 
HETATM    5  O   UNK N   1      34.711  12.921  13.905  0.00  0.00    -0.353 OA
ENDROOT
BRANCH   4   6
HETATM    6  N   UNK N   1      35.257  11.389  15.654  0.00  0.00    -0.297 N 
HETATM    7  C   UNK N   1      35.124  10.161  16.222  0.00  0.00     0.188 A 
HETATM    8  N   UNK N   1      35.090  10.242  17.584  0.00  0.00    -0.346 N 
HETATM    9  C   UNK N   1      35.208  11.558  17.843  0.00  0.00     0.122 A 
ATOM     10  HN  UNK N   1      34.996   9.479  18.254  1.00  0.00     0.167 HD
HETATM   11  C   UNK N   1      35.241  12.230  19.054  0.00  0.00     0.131 A 
HETATM   12  C   UNK N   1      35.308  12.243  16.686  0.00  0.00     0.142 A 
HETATM   13  N   UNK N   1      35.368  13.591  19.029  0.00  0.00    -0.337 N 
HETATM   14  C   UNK N   1      35.466  14.269  17.838  0.00  0.00     0.183 A 
ATOM     15  HN  UNK N   1      35.392  14.111  19.906  1.00  0.00     0.168 HD
HETATM   16  N   UNK N   1      35.442  13.591  16.649  0.00  0.00    -0.336 N 
ATOM     17  HN  UNK N   1      35.521  14.085  15.761  1.00  0.00     0.168 HD
BRANCH  11  18
HETATM   18  N   UNK N   1      35.150  11.541  20.280  0.00  0.00    -0.383 N 
HETATM   19  H   UNK N   1      35.761  10.803  20.504  0.00  0.00     0.157 HD
HETATM   20  H   UNK N   1      34.458  11.805  20.930  0.00  0.00     0.157 HD
ENDBRANCH  11  18
ENDBRANCH   4   6
BRANCH   3  21
HETATM   21  O   UNK N   1      37.367  10.589  13.497  0.00  0.00    -0.388 OA
HETATM   22  H   UNK N   1      37.529   9.929  14.189  0.00  0.00     0.210 HD
ENDBRANCH   3  21
BRANCH   2  23
HETATM   23  O   UNK N   1      37.763  13.215  12.100  0.00  0.00    -0.390 OA
HETATM   24  H   UNK N   1      38.062  13.929  11.516  0.00  0.00     0.210 HD
ENDBRANCH   2  23
BRANCH   1  25
HETATM   25  C   UNK N   1      34.815  14.120  11.788  0.00  0.00     0.215 C 
BRANCH  25  26
HETATM   26  O   UNK N   1      34.966  15.509  11.665  0.00  0.00    -0.294 OA
BRANCH  26  27
HETATM   27  P   UNK N   1      35.356  15.802   9.988  0.00  0.00     0.409 P 
HETATM   28  O   UNK N   1      36.501  16.382  10.862  0.00  0.00    -0.631 OA
BRANCH  27  29
HETATM   29  O   UNK N   1      33.689  16.193  10.322  0.00  0.00    -0.306 OA
HETATM   30  H   UNK N   1      32.926  16.775  10.178  0.00  0.00     0.222 HD
ENDBRANCH  27  29
BRANCH  27  31
HETATM   31  O   UNK N   1      35.305  17.512   9.469  0.00  0.00    -0.159 OA
BRANCH  31  32
HETATM   32  S   UNK N   1      34.060  17.858   8.285  0.00  0.00     0.249 S 
HETATM   33  O   UNK N   1      34.947  19.112   8.292  0.00  0.00    -0.579 OA
HETATM   34  O   UNK N   1      34.566  17.901   6.835  0.00  0.00    -0.579 OA
BRANCH  32  35
HETATM   35  O   UNK N   1      35.005  16.460   7.958  0.00  0.00    -0.273 OA
HETATM   36  H   UNK N   1      34.919  15.660   8.501  0.00  0.00     0.234 HD
ENDBRANCH  32  35
ENDBRANCH  31  32
ENDBRANCH  27  31
ENDBRANCH  26  27
ENDBRANCH  25  26
ENDBRANCH   1  25
TORSDOF 11
ENDMDL
MODEL 2
REMARK VINA RESULT:      -7.4      6.994      9.462
REMARK  11 active torsions:
REMARK  status: ('A' for Active; 'I' for Inactive)
REMARK    1  A    between atoms: C_4  and  C_1 
REMARK    2  A    between atoms: C_1  and  O_26 
REMARK    3  A    between atoms: C_6  and  O_19 
REMARK    4  A    between atoms: C_7  and  O_20 
REMARK    5  A    between atoms: C_8  and  N_11 
REMARK    6  A    between atoms: C_10  and  N_18 
REMARK    7  A    between atoms: O_21  and  P_29 
REMARK    8  A    between atoms: O_23  and  S_30 
REMARK    9  A    between atoms: O_26  and  P_29 
REMARK   10  A    between atoms: O_28  and  P_29 
REMARK   11  A    between atoms: O_28  and  S_30 
ROOT
HETATM    1  C   UNK N   1      34.011  14.630   7.492  0.00  0.00     0.180 C 
HETATM    2  C   UNK N   1      34.898  15.759   7.050  0.00  0.00     0.182 C 
HETATM    3  C   UNK N   1      33.879  16.690   6.521  0.00  0.00     0.198 C 
HETATM    4  C   UNK N   1      32.847  16.556   7.620  0.00  0.00     0.262 C 
HETATM    5  O   UNK N   1      32.828  15.198   8.022  0.00  0.00    -0.353 OA
ENDROOT
BRANCH   4   6
HETATM    6  N   UNK N   1      31.521  17.012   7.183  0.00  0.00    -0.297 N 
HETATM    7  C   UNK N   1      30.986  16.923   5.937  0.00  0.00     0.188 A 
HETATM    8  N   UNK N   1      29.715  17.419   5.903  0.00  0.00    -0.346 N 
HETATM    9  C   UNK N   1      29.479  17.817   7.168  0.00  0.00     0.122 A 
ATOM     10  HN  UNK N   1      29.086  17.475   5.102  1.00  0.00     0.167 HD
HETATM   11  C   UNK N   1      28.349  18.394   7.726  0.00  0.00     0.131 A 
HETATM   12  C   UNK N   1      30.561  17.573   7.932  0.00  0.00     0.142 A 
HETATM   13  N   UNK N   1      28.380  18.706   9.056  0.00  0.00    -0.337 N 
HETATM   14  C   UNK N   1      29.495  18.451   9.816  0.00  0.00     0.183 A 
ATOM     15  HN  UNK N   1      27.562  19.135   9.492  1.00  0.00     0.168 HD
HETATM   16  N   UNK N   1      30.600  17.872   9.253  0.00  0.00    -0.336 N 
ATOM     17  HN  UNK N   1      31.430  17.672   9.811  1.00  0.00     0.168 HD
BRANCH  11  18
HETATM   18  N   UNK N   1      27.197  18.651   6.955  0.00  0.00    -0.383 N 
HETATM   19  H   UNK N   1      27.241  18.739   5.975  0.00  0.00     0.157 HD
HETATM   20  H   UNK N   1      26.327  18.745   7.407  0.00  0.00     0.157 HD
ENDBRANCH  11  18
ENDBRANCH   4   6
BRANCH   3  21
HETATM   21  O   UNK N   1      34.398  17.982   6.460  0.00  0.00    -0.388 OA
HETATM   22  H   UNK N   1      33.885  18.756   6.741  0.00  0.00     0.210 HD
ENDBRANCH   3  21
BRANCH   2  23
HETATM   23  O   UNK N   1      35.790  15.355   6.057  0.00  0.00    -0.390 OA
HETATM   24  H   UNK N   1      36.294  15.712   5.309  0.00  0.00     0.210 HD
ENDBRANCH   2  23
BRANCH   1  25
HETATM   25  C   UNK N   1      34.757  13.802   8.532  0.00  0.00     0.215 C 
BRANCH  25  26
HETATM   26  O   UNK N   1      34.099  13.827   9.771  0.00  0.00    -0.294 OA
BRANCH  26  27
HETATM   27  P   UNK N   1      34.952  15.000  10.744  0.00  0.00     0.409 P 
HETATM   28  O   UNK N   1      35.790  13.693  10.715  0.00  0.00    -0.631 OA
BRANCH  27  29
HETATM   29  O   UNK N   1      33.255  14.968  11.145  0.00  0.00    -0.306 OA
HETATM   30  H   UNK N   1      32.480  14.467  11.445  0.00  0.00     0.222 HD
ENDBRANCH  27  29
BRANCH  27  31
HETATM   31  O   UNK N   1      35.030  14.644  12.494  0.00  0.00    -0.159 OA
BRANCH  31  32
HETATM   32  S   UNK N   1      36.073  13.294  12.899  0.00  0.00     0.249 S 
HETATM   33  O   UNK N   1      36.395  14.362  13.955  0.00  0.00    -0.579 OA
HETATM   34  O   UNK N   1      35.696  12.578  14.204  0.00  0.00    -0.579 OA
BRANCH  32  35
HETATM   35  O   UNK N   1      34.391  12.940  12.902  0.00  0.00    -0.273 OA
HETATM   36  H   UNK N   1      33.739  13.609  12.638  0.00  0.00     0.234 HD
ENDBRANCH  32  35
ENDBRANCH  31  32
ENDBRANCH  27  31
ENDBRANCH  26  27
ENDBRANCH  25  26
ENDBRANCH   1  25
TORSDOF 11
ENDMDL
MODEL 3
REMARK VINA RESULT:      -6.9      2.988      5.002
REMARK  11 active torsions:
REMARK  status: ('A' for Active; 'I' for Inactive)
REMARK    1  A    between atoms: C_4  and  C_1 
REMARK    2  A    between atoms: C_1  and  O_26 
REMARK    3  A    between atoms: C_6  and  O_19 
REMARK    4  A    between atoms: C_7  and  O_20 
REMARK    5  A    between atoms: C_8  and  N_11 
REMARK    6  A    between atoms: C_10  and  N_18 
REMARK    7  A    between atoms: O_21  and  P_29 
REMARK    8  A    between atoms: O_23  and  S_30 
REMARK    9  A    between atoms: O_26  and  P_29 
REMARK   10  A    between atoms: O_28  and  P_29 
REMARK   11  A    between atoms: O_28  and  S_30 
ROOT
HETATM    1  C   UNK N   1      33.839  15.655   9.709  0.00  0.00     0.180 C 
HETATM    2  C   UNK N   1      35.194  16.297   9.600  0.00  0.00     0.182 C 
HETATM    3  C   UNK N   1      35.790  15.848  10.876  0.00  0.00     0.198 C 
HETATM    4  C   UNK N   1      35.324  14.408  10.859  0.00  0.00     0.262 C 
HETATM    5  O   UNK N   1      34.012  14.393  10.324  0.00  0.00    -0.353 OA
ENDROOT
BRANCH   4   6
HETATM    6  N   UNK N   1      35.373  13.801  12.195  0.00  0.00    -0.297 N 
HETATM    7  C   UNK N   1      35.857  14.357  13.337  0.00  0.00     0.188 A 
HETATM    8  N   UNK N   1      35.711  13.516  14.402  0.00  0.00    -0.346 N 
HETATM    9  C   UNK N   1      35.119  12.422  13.884  0.00  0.00     0.122 A 
ATOM     10  HN  UNK N   1      35.986  13.678  15.370  1.00  0.00     0.167 HD
HETATM   11  C   UNK N   1      34.723  11.245  14.500  0.00  0.00     0.131 A 
HETATM   12  C   UNK N   1      34.918  12.595  12.563  0.00  0.00     0.142 A 
HETATM   13  N   UNK N   1      34.140  10.282  13.726  0.00  0.00    -0.337 N 
HETATM   14  C   UNK N   1      33.947  10.479  12.380  0.00  0.00     0.183 A 
ATOM     15  HN  UNK N   1      33.842   9.404  14.153  1.00  0.00     0.168 HD
HETATM   16  N   UNK N   1      34.334  11.650  11.787  0.00  0.00    -0.336 N 
ATOM     17  HN  UNK N   1      34.188  11.807  10.790  1.00  0.00     0.168 HD
BRANCH  11  18
HETATM   18  N   UNK N   1      34.910  11.039  15.882  0.00  0.00    -0.383 N 
HETATM   19  H   UNK N   1      34.732  10.167  16.302  0.00  0.00     0.157 HD
HETATM   20  H   UNK N   1      35.227  11.786  16.440  0.00  0.00     0.157 HD
ENDBRANCH  11  18
ENDBRANCH   4   6
BRANCH   3  21
HETATM   21  O   UNK N   1      37.180  15.937  10.811  0.00  0.00    -0.388 OA
HETATM   22  H   UNK N   1      37.659  15.891   9.968  0.00  0.00     0.210 HD
ENDBRANCH   3  21
BRANCH   2  23
HETATM   23  O   UNK N   1      35.102  17.687   9.536  0.00  0.00    -0.390 OA
HETATM   24  H   UNK N   1      34.489  18.409   9.744  0.00  0.00     0.210 HD
ENDBRANCH   2  23
BRANCH   1  25
HETATM   25  C   UNK N   1      33.245  15.529   8.311  0.00  0.00     0.215 C 
BRANCH  25  26
HETATM   26  O   UNK N   1      33.185  16.774   7.668  0.00  0.00    -0.294 OA
BRANCH  26  27
HETATM   27  P   UNK N   1      33.545  16.465   5.988  0.00  0.00     0.409 P 
HETATM   28  O   UNK N   1      34.384  17.687   6.447  0.00  0.00    -0.631 OA
BRANCH  27  29
HETATM   29  O   UNK N   1      31.827  16.394   6.284  0.00  0.00    -0.306 OA
HETATM   30  H   UNK N   1      30.923  16.570   5.980  0.00  0.00     0.222 HD
ENDBRANCH  27  29
BRANCH  27  31
HETATM   31  O   UNK N   1      32.958  17.694   4.831  0.00  0.00    -0.159 OA
BRANCH  31  32
HETATM   32  S   UNK N   1      32.655  17.068   3.221  0.00  0.00     0.249 S 
HETATM   33  O   UNK N   1      33.182  15.861   4.014  0.00  0.00    -0.579 OA
HETATM   34  O   UNK N   1      31.474  16.090   3.139  0.00  0.00    -0.579 OA
BRANCH  32  35
HETATM   35  O   UNK N   1      31.285  17.746   4.007  0.00  0.00    -0.273 OA
HETATM   36  H   UNK N   1      31.223  17.768   4.975  0.00  0.00     0.234 HD
ENDBRANCH  32  35
ENDBRANCH  31  32
ENDBRANCH  27  31
ENDBRANCH  26  27
ENDBRANCH  25  26
ENDBRANCH   1  25
TORSDOF 11
ENDMDL
MODEL 4
REMARK VINA RESULT:      -6.7      7.837     10.614
REMARK  11 active torsions:
REMARK  status: ('A' for Active; 'I' for Inactive)
REMARK    1  A    between atoms: C_4  and  C_1 
REMARK    2  A    between atoms: C_1  and  O_26 
REMARK    3  A    between atoms: C_6  and  O_19 
REMARK    4  A    between atoms: C_7  and  O_20 
REMARK    5  A    between atoms: C_8  and  N_11 
REMARK    6  A    between atoms: C_10  and  N_18 
REMARK    7  A    between atoms: O_21  and  P_29 
REMARK    8  A    between atoms: O_23  and  S_30 
REMARK    9  A    between atoms: O_26  and  P_29 
REMARK   10  A    between atoms: O_28  and  P_29 
REMARK   11  A    between atoms: O_28  and  S_30 
ROOT
HETATM    1  C   UNK N   1      32.369  16.222   8.423  0.00  0.00     0.180 C 
HETATM    2  C   UNK N   1      32.500  14.902   7.717  0.00  0.00     0.182 C 
HETATM    3  C   UNK N   1      31.445  15.055   6.695  0.00  0.00     0.198 C 
HETATM    4  C   UNK N   1      31.727  16.483   6.277  0.00  0.00     0.262 C 
HETATM    5  O   UNK N   1      32.082  17.203   7.445  0.00  0.00    -0.353 OA
ENDROOT
BRANCH   4   6
HETATM    6  N   UNK N   1      30.580  17.090   5.592  0.00  0.00    -0.297 N 
HETATM    7  C   UNK N   1      30.319  17.087   4.257  0.00  0.00     0.188 A 
HETATM    8  N   UNK N   1      29.142  17.719   3.978  0.00  0.00    -0.346 N 
HETATM    9  C   UNK N   1      28.681  18.112   5.181  0.00  0.00     0.122 A 
ATOM     10  HN  UNK N   1      28.709  17.861   3.065  1.00  0.00     0.167 HD
HETATM   11  C   UNK N   1      27.522  18.796   5.513  0.00  0.00     0.131 A 
HETATM   12  C   UNK N   1      29.543  17.735   6.145  0.00  0.00     0.142 A 
HETATM   13  N   UNK N   1      27.297  19.073   6.832  0.00  0.00    -0.337 N 
HETATM   14  C   UNK N   1      28.192  18.681   7.798  0.00  0.00     0.183 A 
ATOM     15  HN  UNK N   1      26.453  19.578   7.104  1.00  0.00     0.168 HD
HETATM   16  N   UNK N   1      29.327  17.998   7.457  0.00  0.00    -0.336 N 
ATOM     17  HN  UNK N   1      29.993  17.697   8.168  1.00  0.00     0.168 HD
BRANCH  11  18
HETATM   18  N   UNK N   1      26.595  19.194   4.528  0.00  0.00    -0.383 N 
HETATM   19  H   UNK N   1      26.654  20.073   4.090  0.00  0.00     0.157 HD
HETATM   20  H   UNK N   1      25.872  18.577   4.271  0.00  0.00     0.157 HD
ENDBRANCH  11  18
ENDBRANCH   4   6
BRANCH   3  21
HETATM   21  O   UNK N   1      31.662  14.162   5.646  0.00  0.00    -0.388 OA
HETATM   22  H   UNK N   1      31.809  13.216   5.800  0.00  0.00     0.210 HD
ENDBRANCH   3  21
BRANCH   2  23
HETATM   23  O   UNK N   1      32.237  13.833   8.573  0.00  0.00    -0.390 OA
HETATM   24  H   UNK N   1      32.669  13.288   9.248  0.00  0.00     0.210 HD
ENDBRANCH   2  23
BRANCH   1  25
HETATM   25  C   UNK N   1      33.674  16.516   9.154  0.00  0.00     0.215 C 
BRANCH  25  26
HETATM   26  O   UNK N   1      34.391  15.339   9.410  0.00  0.00    -0.294 OA
BRANCH  26  27
HETATM   27  P   UNK N   1      35.174  15.578  10.952  0.00  0.00     0.409 P 
HETATM   28  O   UNK N   1      36.217  14.988   9.965  0.00  0.00    -0.631 OA
BRANCH  27  29
HETATM   29  O   UNK N   1      33.609  14.834  11.152  0.00  0.00    -0.306 OA
HETATM   30  H   UNK N   1      32.659  14.830  10.958  0.00  0.00     0.222 HD
ENDBRANCH  27  29
BRANCH  27  31
HETATM   31  O   UNK N   1      35.624  14.088  11.832  0.00  0.00    -0.159 OA
BRANCH  31  32
HETATM   32  S   UNK N   1      36.188  14.373  13.468  0.00  0.00     0.249 S 
HETATM   33  O   UNK N   1      34.897  13.557  13.639  0.00  0.00    -0.579 OA
HETATM   34  O   UNK N   1      36.697  13.113  14.184  0.00  0.00    -0.579 OA
BRANCH  32  35
HETATM   35  O   UNK N   1      37.293  13.534  12.453  0.00  0.00    -0.273 OA
HETATM   36  H   UNK N   1      37.395  12.571  12.513  0.00  0.00     0.234 HD
ENDBRANCH  32  35
ENDBRANCH  31  32
ENDBRANCH  27  31
ENDBRANCH  26  27
ENDBRANCH  25  26
ENDBRANCH   1  25
TORSDOF 11
ENDMDL
MODEL 5
REMARK VINA RESULT:      -6.6      2.944      4.809
REMARK  11 active torsions:
REMARK  status: ('A' for Active; 'I' for Inactive)
REMARK    1  A    between atoms: C_4  and  C_1 
REMARK    2  A    between atoms: C_1  and  O_26 
REMARK    3  A    between atoms: C_6  and  O_19 
REMARK    4  A    between atoms: C_7  and  O_20 
REMARK    5  A    between atoms: C_8  and  N_11 
REMARK    6  A    between atoms: C_10  and  N_18 
REMARK    7  A    between atoms: O_21  and  P_29 
REMARK    8  A    between atoms: O_23  and  S_30 
REMARK    9  A    between atoms: O_26  and  P_29 
REMARK   10  A    between atoms: O_28  and  P_29 
REMARK   11  A    between atoms: O_28  and  S_30 
ROOT
HETATM    1  C   UNK N   1      33.785  15.671  10.070  0.00  0.00     0.180 C 
HETATM    2  C   UNK N   1      35.137  16.249   9.759  0.00  0.00     0.182 C 
HETATM    3  C   UNK N   1      35.868  15.853  10.981  0.00  0.00     0.198 C 
HETATM    4  C   UNK N   1      35.357  14.435  11.113  0.00  0.00     0.262 C 
HETATM    5  O   UNK N   1      33.989  14.441  10.740  0.00  0.00    -0.353 OA
ENDROOT
BRANCH   4   6
HETATM    6  N   UNK N   1      35.548  13.909  12.470  0.00  0.00    -0.297 N 
HETATM    7  C   UNK N   1      36.187  14.511  13.507  0.00  0.00     0.188 A 
HETATM    8  N   UNK N   1      36.143  13.743  14.635  0.00  0.00    -0.346 N 
HETATM    9  C   UNK N   1      35.455  12.646  14.263  0.00  0.00     0.122 A 
ATOM     10  HN  UNK N   1      36.540  13.952  15.550  1.00  0.00     0.167 HD
HETATM   11  C   UNK N   1      35.097  11.526  14.997  0.00  0.00     0.131 A 
HETATM   12  C   UNK N   1      35.100  12.747  12.968  0.00  0.00     0.142 A 
HETATM   13  N   UNK N   1      34.390  10.544  14.363  0.00  0.00    -0.337 N 
HETATM   14  C   UNK N   1      34.041  10.667  13.040  0.00  0.00     0.183 A 
ATOM     15  HN  UNK N   1      34.116   9.707  14.879  1.00  0.00     0.168 HD
HETATM   16  N   UNK N   1      34.392  11.783  12.330  0.00  0.00    -0.336 N 
ATOM     17  HN  UNK N   1      34.131  11.886  11.350  1.00  0.00     0.168 HD
BRANCH  11  18
HETATM   18  N   UNK N   1      35.444  11.396  16.357  0.00  0.00    -0.383 N 
HETATM   19  H   UNK N   1      36.371  11.510  16.666  0.00  0.00     0.157 HD
HETATM   20  H   UNK N   1      34.741  11.188  17.015  0.00  0.00     0.157 HD
ENDBRANCH  11  18
ENDBRANCH   4   6
BRANCH   3  21
HETATM   21  O   UNK N   1      37.242  15.883  10.745  0.00  0.00    -0.388 OA
HETATM   22  H   UNK N   1      37.836  15.194  11.083  0.00  0.00     0.210 HD
ENDBRANCH   3  21
BRANCH   2  23
HETATM   23  O   UNK N   1      35.084  17.635   9.617  0.00  0.00    -0.390 OA
HETATM   24  H   UNK N   1      35.668  18.406   9.549  0.00  0.00     0.210 HD
ENDBRANCH   2  23
BRANCH   1  25
HETATM   25  C   UNK N   1      33.022  15.484   8.764  0.00  0.00     0.215 C 
BRANCH  25  26
HETATM   26  O   UNK N   1      33.441  16.405   7.793  0.00  0.00    -0.294 OA
BRANCH  26  27
HETATM   27  P   UNK N   1      31.983  17.065   7.096  0.00  0.00     0.409 P 
HETATM   28  O   UNK N   1      32.397  17.962   8.293  0.00  0.00    -0.631 OA
BRANCH  27  29
HETATM   29  O   UNK N   1      31.866  15.334   7.271  0.00  0.00    -0.306 OA
HETATM   30  H   UNK N   1      31.786  14.459   6.858  0.00  0.00     0.222 HD
ENDBRANCH  27  29
BRANCH  27  31
HETATM   31  O   UNK N   1      30.513  16.932   8.104  0.00  0.00    -0.159 OA
BRANCH  31  32
HETATM   32  S   UNK N   1      30.050  18.432   8.886  0.00  0.00     0.249 S 
HETATM   33  O   UNK N   1      29.035  18.260   7.745  0.00  0.00    -0.579 OA
HETATM   34  O   UNK N   1      28.719  18.357   9.649  0.00  0.00    -0.579 OA
BRANCH  32  35
HETATM   35  O   UNK N   1      30.041  17.047   9.905  0.00  0.00    -0.273 OA
HETATM   36  H   UNK N   1      29.658  17.084  10.796  0.00  0.00     0.234 HD
ENDBRANCH  32  35
ENDBRANCH  31  32
ENDBRANCH  27  31
ENDBRANCH  26  27
ENDBRANCH  25  26
ENDBRANCH   1  25
TORSDOF 11
ENDMDL
MODEL 6
REMARK VINA RESULT:      -6.5     14.571     17.301
REMARK  11 active torsions:
REMARK  status: ('A' for Active; 'I' for Inactive)
REMARK    1  A    between atoms: C_4  and  C_1 
REMARK    2  A    between atoms: C_1  and  O_26 
REMARK    3  A    between atoms: C_6  and  O_19 
REMARK    4  A    between atoms: C_7  and  O_20 
REMARK    5  A    between atoms: C_8  and  N_11 
REMARK    6  A    between atoms: C_10  and  N_18 
REMARK    7  A    between atoms: O_21  and  P_29 
REMARK    8  A    between atoms: O_23  and  S_30 
REMARK    9  A    between atoms: O_26  and  P_29 
REMARK   10  A    between atoms: O_28  and  P_29 
REMARK   11  A    between atoms: O_28  and  S_30 
ROOT
HETATM    1  C   UNK N   1      24.387  19.177   3.647  0.00  0.00     0.180 C 
HETATM    2  C   UNK N   1      23.922  20.563   3.301  0.00  0.00     0.182 C 
HETATM    3  C   UNK N   1      22.663  20.240   2.597  0.00  0.00     0.198 C 
HETATM    4  C   UNK N   1      22.135  19.177   3.536  0.00  0.00     0.262 C 
HETATM    5  O   UNK N   1      23.243  18.412   3.977  0.00  0.00    -0.353 OA
ENDROOT
BRANCH   4   6
HETATM    6  N   UNK N   1      21.116  18.338   2.893  0.00  0.00    -0.297 N 
HETATM    7  C   UNK N   1      19.932  18.740   2.357  0.00  0.00     0.188 A 
HETATM    8  N   UNK N   1      19.249  17.691   1.813  0.00  0.00    -0.346 N 
HETATM    9  C   UNK N   1      20.047  16.626   2.027  0.00  0.00     0.122 A 
ATOM     10  HN  UNK N   1      18.342  17.708   1.349  1.00  0.00     0.167 HD
HETATM   11  C   UNK N   1      19.871  15.295   1.685  0.00  0.00     0.131 A 
HETATM   12  C   UNK N   1      21.163  17.016   2.674  0.00  0.00     0.142 A 
HETATM   13  N   UNK N   1      20.852  14.409   2.031  0.00  0.00    -0.337 N 
HETATM   14  C   UNK N   1      21.981  14.829   2.692  0.00  0.00     0.183 A 
ATOM     15  HN  UNK N   1      20.746  13.422   1.794  1.00  0.00     0.168 HD
HETATM   16  N   UNK N   1      22.146  16.148   3.015  0.00  0.00    -0.336 N 
ATOM     17  HN  UNK N   1      22.984  16.469   3.500  1.00  0.00     0.168 HD
BRANCH  11  18
HETATM   18  N   UNK N   1      18.720  14.859   0.999  0.00  0.00    -0.383 N 
HETATM   19  H   UNK N   1      18.408  13.927   1.054  0.00  0.00     0.157 HD
HETATM   20  H   UNK N   1      18.214  15.503   0.451  0.00  0.00     0.157 HD
ENDBRANCH  11  18
ENDBRANCH   4   6
BRANCH   3  21
HETATM   21  O   UNK N   1      21.831  21.359   2.569  0.00  0.00    -0.388 OA
HETATM   22  H   UNK N   1      22.043  22.144   2.040  0.00  0.00     0.210 HD
ENDBRANCH   3  21
BRANCH   2  23
HETATM   23  O   UNK N   1      24.827  21.217   2.465  0.00  0.00    -0.390 OA
HETATM   24  H   UNK N   1      25.050  21.309   1.526  0.00  0.00     0.210 HD
ENDBRANCH   2  23
BRANCH   1  25
HETATM   25  C   UNK N   1      25.364  19.267   4.813  0.00  0.00     0.215 C 
BRANCH  25  26
HETATM   26  O   UNK N   1      26.460  20.083   4.498  0.00  0.00    -0.294 OA
BRANCH  26  27
HETATM   27  P   UNK N   1      27.712  19.670   5.643  0.00  0.00     0.409 P 
HETATM   28  O   UNK N   1      27.929  18.823   4.361  0.00  0.00    -0.631 OA
BRANCH  27  29
HETATM   29  O   UNK N   1      26.150  19.738   6.419  0.00  0.00    -0.306 OA
HETATM   30  H   UNK N   1      25.559  19.437   7.126  0.00  0.00     0.222 HD
ENDBRANCH  27  29
BRANCH  27  31
HETATM   31  O   UNK N   1      27.614  18.026   6.339  0.00  0.00    -0.159 OA
BRANCH  31  32
HETATM   32  S   UNK N   1      28.669  17.773   7.716  0.00  0.00     0.249 S 
HETATM   33  O   UNK N   1      28.535  19.300   7.605  0.00  0.00    -0.579 OA
HETATM   34  O   UNK N   1      28.037  18.137   9.067  0.00  0.00    -0.579 OA
BRANCH  32  35
HETATM   35  O   UNK N   1      27.117  17.046   7.846  0.00  0.00    -0.273 OA
HETATM   36  H   UNK N   1      26.973  16.124   7.580  0.00  0.00     0.234 HD
ENDBRANCH  32  35
ENDBRANCH  31  32
ENDBRANCH  27  31
ENDBRANCH  26  27
ENDBRANCH  25  26
ENDBRANCH   1  25
TORSDOF 11
ENDMDL
MODEL 7
REMARK VINA RESULT:      -6.5      5.950      9.092
REMARK  11 active torsions:
REMARK  status: ('A' for Active; 'I' for Inactive)
REMARK    1  A    between atoms: C_4  and  C_1 
REMARK    2  A    between atoms: C_1  and  O_26 
REMARK    3  A    between atoms: C_6  and  O_19 
REMARK    4  A    between atoms: C_7  and  O_20 
REMARK    5  A    between atoms: C_8  and  N_11 
REMARK    6  A    between atoms: C_10  and  N_18 
REMARK    7  A    between atoms: O_21  and  P_29 
REMARK    8  A    between atoms: O_23  and  S_30 
REMARK    9  A    between atoms: O_26  and  P_29 
REMARK   10  A    between atoms: O_28  and  P_29 
REMARK   11  A    between atoms: O_28  and  S_30 
ROOT
HETATM    1  C   UNK N   1      35.310  14.412  10.687  0.00  0.00     0.180 C 
HETATM    2  C   UNK N   1      35.870  15.801  10.821  0.00  0.00     0.182 C 
HETATM    3  C   UNK N   1      35.231  16.445   9.654  0.00  0.00     0.198 C 
HETATM    4  C   UNK N   1      33.838  15.874   9.805  0.00  0.00     0.262 C 
HETATM    5  O   UNK N   1      33.974  14.532  10.239  0.00  0.00    -0.353 OA
ENDROOT
BRANCH   4   6
HETATM    6  N   UNK N   1      33.071  15.967   8.557  0.00  0.00    -0.297 N 
HETATM    7  C   UNK N   1      33.351  15.369   7.368  0.00  0.00     0.188 A 
HETATM    8  N   UNK N   1      32.399  15.650   6.431  0.00  0.00    -0.346 N 
HETATM    9  C   UNK N   1      31.519  16.440   7.077  0.00  0.00     0.122 A 
ATOM     10  HN  UNK N   1      32.362  15.334   5.462  1.00  0.00     0.167 HD
HETATM   11  C   UNK N   1      30.347  17.025   6.625  0.00  0.00     0.131 A 
HETATM   12  C   UNK N   1      31.923  16.628   8.348  0.00  0.00     0.142 A 
HETATM   13  N   UNK N   1      29.635  17.793   7.503  0.00  0.00    -0.337 N 
HETATM   14  C   UNK N   1      30.067  17.973   8.795  0.00  0.00     0.183 A 
ATOM     15  HN  UNK N   1      28.769  18.238   7.196  1.00  0.00     0.168 HD
HETATM   16  N   UNK N   1      31.222  17.381   9.229  0.00  0.00    -0.336 N 
ATOM     17  HN  UNK N   1      31.546  17.504  10.188  1.00  0.00     0.168 HD
BRANCH  11  18
HETATM   18  N   UNK N   1      29.893  16.837   5.304  0.00  0.00    -0.383 N 
HETATM   19  H   UNK N   1      28.949  16.974   5.059  0.00  0.00     0.157 HD
HETATM   20  H   UNK N   1      30.535  16.563   4.609  0.00  0.00     0.157 HD
ENDBRANCH  11  18
ENDBRANCH   4   6
BRANCH   3  21
HETATM   21  O   UNK N   1      35.238  17.831   9.812  0.00  0.00    -0.388 OA
HETATM   22  H   UNK N   1      34.883  18.259  10.607  0.00  0.00     0.210 HD
ENDBRANCH   3  21
BRANCH   2  23
HETATM   23  O   UNK N   1      37.261  15.807  10.715  0.00  0.00    -0.390 OA
HETATM   24  H   UNK N   1      38.021  15.208  10.770  0.00  0.00     0.210 HD
ENDBRANCH   2  23
BRANCH   1  25
HETATM   25  C   UNK N   1      35.394  13.720  12.042  0.00  0.00     0.215 C 
BRANCH  25  26
HETATM   26  O   UNK N   1      36.720  13.410  12.375  0.00  0.00    -0.294 OA
BRANCH  26  27
HETATM   27  P   UNK N   1      36.643  12.513  13.871  0.00  0.00     0.409 P 
HETATM   28  O   UNK N   1      35.989  11.654  12.755  0.00  0.00    -0.631 OA
BRANCH  27  29
HETATM   29  O   UNK N   1      36.174  14.176  14.112  0.00  0.00    -0.306 OA
HETATM   30  H   UNK N   1      36.431  15.104  14.226  0.00  0.00     0.222 HD
ENDBRANCH  27  29
BRANCH  27  31
HETATM   31  O   UNK N   1      35.009  12.300  14.563  0.00  0.00    -0.159 OA
BRANCH  31  32
HETATM   32  S   UNK N   1      35.009  11.790  16.241  0.00  0.00     0.249 S 
HETATM   33  O   UNK N   1      36.488  12.042  15.912  0.00  0.00    -0.579 OA
HETATM   34  O   UNK N   1      35.372  12.902  17.236  0.00  0.00    -0.579 OA
BRANCH  32  35
HETATM   35  O   UNK N   1      34.076  13.195  15.908  0.00  0.00    -0.273 OA
HETATM   36  H   UNK N   1      34.478  13.977  15.497  0.00  0.00     0.234 HD
ENDBRANCH  32  35
ENDBRANCH  31  32
ENDBRANCH  27  31
ENDBRANCH  26  27
ENDBRANCH  25  26
ENDBRANCH   1  25
TORSDOF 11
ENDMDL
MODEL 8
REMARK VINA RESULT:      -6.5     11.343     13.787
REMARK  11 active torsions:
REMARK  status: ('A' for Active; 'I' for Inactive)
REMARK    1  A    between atoms: C_4  and  C_1 
REMARK    2  A    between atoms: C_1  and  O_26 
REMARK    3  A    between atoms: C_6  and  O_19 
REMARK    4  A    between atoms: C_7  and  O_20 
REMARK    5  A    between atoms: C_8  and  N_11 
REMARK    6  A    between atoms: C_10  and  N_18 
REMARK    7  A    between atoms: O_21  and  P_29 
REMARK    8  A    between atoms: O_23  and  S_30 
REMARK    9  A    between atoms: O_26  and  P_29 
REMARK   10  A    between atoms: O_28  and  P_29 
REMARK   11  A    between atoms: O_28  and  S_30 
ROOT
HETATM    1  C   UNK N   1      25.813  18.293   5.486  0.00  0.00     0.180 C 
HETATM    2  C   UNK N   1      26.375  19.404   4.645  0.00  0.00     0.182 C 
HETATM    3  C   UNK N   1      27.793  19.341   5.055  0.00  0.00     0.198 C 
HETATM    4  C   UNK N   1      27.976  17.839   5.039  0.00  0.00     0.262 C 
HETATM    5  O   UNK N   1      26.780  17.260   5.531  0.00  0.00    -0.353 OA
ENDROOT
BRANCH   4   6
HETATM    6  N   UNK N   1      29.145  17.422   5.823  0.00  0.00    -0.297 N 
HETATM    7  C   UNK N   1      30.352  17.008   5.351  0.00  0.00     0.188 A 
HETATM    8  N   UNK N   1      31.217  16.731   6.370  0.00  0.00    -0.346 N 
HETATM    9  C   UNK N   1      30.509  16.986   7.487  0.00  0.00     0.122 A 
ATOM     10  HN  UNK N   1      32.180  16.404   6.301  1.00  0.00     0.167 HD
HETATM   11  C   UNK N   1      30.878  16.887   8.820  0.00  0.00     0.131 A 
HETATM   12  C   UNK N   1      29.270  17.399   7.157  0.00  0.00     0.142 A 
HETATM   13  N   UNK N   1      29.948  17.212   9.767  0.00  0.00    -0.337 N 
HETATM   14  C   UNK N   1      28.689  17.628   9.408  0.00  0.00     0.183 A 
ATOM     15  HN  UNK N   1      30.192  17.144  10.756  1.00  0.00     0.168 HD
HETATM   16  N   UNK N   1      28.342  17.731   8.088  0.00  0.00    -0.336 N 
ATOM     17  HN  UNK N   1      27.413  18.046   7.813  1.00  0.00     0.168 HD
BRANCH  11  18
HETATM   18  N   UNK N   1      32.170  16.469   9.196  0.00  0.00    -0.383 N 
HETATM   19  H   UNK N   1      32.316  15.877   9.969  0.00  0.00     0.157 HD
HETATM   20  H   UNK N   1      32.946  16.775   8.672  0.00  0.00     0.157 HD
ENDBRANCH  11  18
ENDBRANCH   4   6
BRANCH   3  21
HETATM   21  O   UNK N   1      28.595  19.966   4.100  0.00  0.00    -0.388 OA
HETATM   22  H   UNK N   1      28.228  20.580   3.444  0.00  0.00     0.210 HD
ENDBRANCH   3  21
BRANCH   2  23
HETATM   23  O   UNK N   1      25.800  20.633   4.965  0.00  0.00    -0.390 OA
HETATM   24  H   UNK N   1      24.995  21.150   4.806  0.00  0.00     0.210 HD
ENDBRANCH   2  23
BRANCH   1  25
HETATM   25  C   UNK N   1      24.507  17.819   4.861  0.00  0.00     0.215 C 
BRANCH  25  26
HETATM   26  O   UNK N   1      23.424  18.602   5.286  0.00  0.00    -0.294 OA
BRANCH  26  27
HETATM   27  P   UNK N   1      22.201  18.443   4.050  0.00  0.00     0.409 P 
HETATM   28  O   UNK N   1      23.394  19.238   3.454  0.00  0.00    -0.631 OA
BRANCH  27  29
HETATM   29  O   UNK N   1      21.494  18.901   5.577  0.00  0.00    -0.306 OA
HETATM   30  H   UNK N   1      20.741  18.868   6.189  0.00  0.00     0.222 HD
ENDBRANCH  27  29
BRANCH  27  31
HETATM   31  O   UNK N   1      21.365  19.954   3.589  0.00  0.00    -0.159 OA
BRANCH  31  32
HETATM   32  S   UNK N   1      21.377  20.275   1.866  0.00  0.00     0.249 S 
HETATM   33  O   UNK N   1      19.924  19.885   2.178  0.00  0.00    -0.579 OA
HETATM   34  O   UNK N   1      20.610  21.542   1.457  0.00  0.00    -0.579 OA
BRANCH  32  35
HETATM   35  O   UNK N   1      21.865  21.594   2.854  0.00  0.00    -0.273 OA
HETATM   36  H   UNK N   1      21.942  21.496   3.816  0.00  0.00     0.234 HD
ENDBRANCH  32  35
ENDBRANCH  31  32
ENDBRANCH  27  31
ENDBRANCH  26  27
ENDBRANCH  25  26
ENDBRANCH   1  25
TORSDOF 11
ENDMDL
MODEL 9
REMARK VINA RESULT:      -6.4     14.263     16.886
REMARK  11 active torsions:
REMARK  status: ('A' for Active; 'I' for Inactive)
REMARK    1  A    between atoms: C_4  and  C_1 
REMARK    2  A    between atoms: C_1  and  O_26 
REMARK    3  A    between atoms: C_6  and  O_19 
REMARK    4  A    between atoms: C_7  and  O_20 
REMARK    5  A    between atoms: C_8  and  N_11 
REMARK    6  A    between atoms: C_10  and  N_18 
REMARK    7  A    between atoms: O_21  and  P_29 
REMARK    8  A    between atoms: O_23  and  S_30 
REMARK    9  A    between atoms: O_26  and  P_29 
REMARK   10  A    between atoms: O_28  and  P_29 
REMARK   11  A    between atoms: O_28  and  S_30 
ROOT
HETATM    1  C   UNK N   1      22.260  19.400   3.864  0.00  0.00     0.180 C 
HETATM    2  C   UNK N   1      22.676  20.293   2.729  0.00  0.00     0.182 C 
HETATM    3  C   UNK N   1      24.073  20.570   3.123  0.00  0.00     0.198 C 
HETATM    4  C   UNK N   1      24.481  19.174   3.543  0.00  0.00     0.262 C 
HETATM    5  O   UNK N   1      23.369  18.586   4.196  0.00  0.00    -0.353 OA
ENDROOT
BRANCH   4   6
HETATM    6  N   UNK N   1      25.672  19.186   4.400  0.00  0.00    -0.297 N 
HETATM    7  C   UNK N   1      26.564  20.200   4.562  0.00  0.00     0.188 A 
HETATM    8  N   UNK N   1      27.532  19.873   5.467  0.00  0.00    -0.346 N 
HETATM    9  C   UNK N   1      27.211  18.626   5.862  0.00  0.00     0.122 A 
ATOM     10  HN  UNK N   1      28.319  20.444   5.774  1.00  0.00     0.167 HD
HETATM   11  C   UNK N   1      27.837  17.790   6.774  0.00  0.00     0.131 A 
HETATM   12  C   UNK N   1      26.098  18.217   5.222  0.00  0.00     0.142 A 
HETATM   13  N   UNK N   1      27.293  16.555   6.988  0.00  0.00    -0.337 N 
HETATM   14  C   UNK N   1      26.159  16.158   6.323  0.00  0.00     0.183 A 
ATOM     15  HN  UNK N   1      27.735  15.918   7.652  1.00  0.00     0.168 HD
HETATM   16  N   UNK N   1      25.546  16.997   5.432  0.00  0.00    -0.336 N 
ATOM     17  HN  UNK N   1      24.700  16.713   4.940  1.00  0.00     0.168 HD
BRANCH  11  18
HETATM   18  N   UNK N   1      28.995  18.194   7.467  0.00  0.00    -0.383 N 
HETATM   19  H   UNK N   1      29.860  17.743   7.333  0.00  0.00     0.157 HD
HETATM   20  H   UNK N   1      28.940  18.947   8.100  0.00  0.00     0.157 HD
ENDBRANCH  11  18
ENDBRANCH   4   6
BRANCH   3  21
HETATM   21  O   UNK N   1      24.804  21.007   2.018  0.00  0.00    -0.388 OA
HETATM   22  H   UNK N   1      24.530  21.775   1.493  0.00  0.00     0.210 HD
ENDBRANCH   3  21
BRANCH   2  23
HETATM   23  O   UNK N   1      21.913  21.459   2.684  0.00  0.00    -0.390 OA
HETATM   24  H   UNK N   1      21.913  22.369   3.018  0.00  0.00     0.210 HD
ENDBRANCH   2  23
BRANCH   1  25
HETATM   25  C   UNK N   1      21.062  18.571   3.419  0.00  0.00     0.215 C 
BRANCH  25  26
HETATM   26  O   UNK N   1      20.911  18.601   2.025  0.00  0.00    -0.294 OA
BRANCH  26  27
HETATM   27  P   UNK N   1      19.910  17.229   1.620  0.00  0.00     0.409 P 
HETATM   28  O   UNK N   1      20.992  16.759   2.629  0.00  0.00    -0.631 OA
BRANCH  27  29
HETATM   29  O   UNK N   1      20.347  18.129   0.191  0.00  0.00    -0.306 OA
HETATM   30  H   UNK N   1      20.117  18.796  -0.475  0.00  0.00     0.222 HD
ENDBRANCH  27  29
BRANCH  27  31
HETATM   31  O   UNK N   1      20.700  15.951   0.652  0.00  0.00    -0.159 OA
BRANCH  31  32
HETATM   32  S   UNK N   1      20.701  14.375   1.420  0.00  0.00     0.249 S 
HETATM   33  O   UNK N   1      19.553  14.309   0.400  0.00  0.00    -0.579 OA
HETATM   34  O   UNK N   1      21.153  13.229   0.503  0.00  0.00    -0.579 OA
BRANCH  32  35
HETATM   35  O   UNK N   1      22.170  14.803   0.638  0.00  0.00    -0.273 OA
HETATM   36  H   UNK N   1      22.168  15.328  -0.178  0.00  0.00     0.234 HD
ENDBRANCH  32  35
ENDBRANCH  31  32
ENDBRANCH  27  31
ENDBRANCH  26  27
ENDBRANCH  25  26
ENDBRANCH   1  25
TORSDOF 11
ENDMDL
