REMARK  9 active torsions:
REMARK  status: ('A' for Active; 'I' for Inactive)
REMARK    1  A    between atoms: C_2  and  N_1 
REMARK    2  A    between atoms: C_2  and  C_3 
REMARK    3  A    between atoms: C_2  and  C_11 
REMARK    4  A    between atoms: C_3  and  C_4 
REMARK    5  A    between atoms: C_4  and  C_5 
REMARK    6  A    between atoms: C_5  and  C_6 
REMARK    7  A    between atoms: C_6  and  N_7 
REMARK       I    between atoms: N_7  and  C_8 
REMARK    8  A    between atoms: C_8  and  O_9 
REMARK    9  A    between atoms: C_11  and  O_12 
ROOT
HETATM    1  C   UNK N   1       7.142   1.662  -0.000  0.00  0.00     0.035 C 
ENDROOT
BRANCH   1   2
HETATM    2  C   UNK N   1       8.402   2.509   0.000  0.00  0.00     0.173 C 
BRANCH   2   3
HETATM    3  N   UNK N   1       8.320   3.965  -0.000  0.00  0.00    -0.418 N 
HETATM    4  H   UNK N   1       9.173   4.524  -0.000  0.00  0.00     0.150 HD
HETATM    5  H   UNK N   1       7.409   4.425  -0.000  0.00  0.00     0.150 HD
ENDBRANCH   2   3
BRANCH   2   6
HETATM    6  C   UNK N   1       9.745   1.871  -0.000  0.00  0.00     0.163 C 
HETATM    7  O   UNK N   1       9.840   0.655  -0.000  0.00  0.00    -0.648 OA
BRANCH   6   8
HETATM    8  O   UNK N   1      10.855   2.631  -0.000  0.00  0.00    -0.775 OA
HETATM    9  H   UNK N   1      11.700   2.226  -0.000  0.00  0.00     0.167 HD
ENDBRANCH   6   8
ENDBRANCH   2   6
ENDBRANCH   1   2
BRANCH   1  10
HETATM   10  C   UNK N   1       5.926   2.537   0.000  0.00  0.00     0.004 C 
BRANCH  10  11
HETATM   11  C   UNK N   1       4.686   1.698  -0.000  0.00  0.00     0.020 C 
BRANCH  11  12
HETATM   12  C   UNK N   1       3.577   2.701   0.000  0.00  0.00     0.125 C 
BRANCH  12  13
HETATM   13  N   UNK N   1       2.300   2.056  -0.000  0.00  0.00    -0.338 N 
HETATM   14  C   UNK N   1       1.171   2.792  -0.000  0.00  0.00     0.249 C 
HETATM   15  O   UNK N   1       1.233   4.019   0.000  0.00  0.00    -0.632 OA
HETATM   16  H   UNK N   1       2.246   1.073  -0.000  0.00  0.00     0.165 HD
BRANCH  14  17
HETATM   17  O   UNK N   1      -0.024   2.189  -0.000  0.00  0.00    -0.760 OA
HETATM   18  H   UNK N   1      -0.808   2.703  -0.000  0.00  0.00     0.169 HD
ENDBRANCH  14  17
ENDBRANCH  12  13
ENDBRANCH  11  12
ENDBRANCH  10  11
ENDBRANCH   1  10
TORSDOF 9
