REMARK  8 active torsions:
REMARK  status: ('A' for Active; 'I' for Inactive)
REMARK    1  A    between atoms: C_6  and  C_7 
REMARK    2  A    between atoms: C_7  and  N_8 
REMARK    3  A    between atoms: C_11  and  C_12 
REMARK    4  A    between atoms: C_12  and  C_13 
REMARK    5  A    between atoms: C_13  and  O_14 
REMARK    6  A    between atoms: O_14  and  P_15 
REMARK    7  A    between atoms: P_15  and  O_16 
REMARK    8  A    between atoms: C_21  and  N_22 
ROOT
HETATM    1  N   UNK N   1      -4.852   4.435  -0.867  0.00  0.00    -0.349 N 
HETATM    2  C   UNK N   1      -4.015   5.479  -1.128  0.00  0.00     0.141 A 
HETATM    3  S   UNK N   1      -2.478   5.011  -0.731  0.00  0.00    -0.087 SA
HETATM    4  C   UNK N   1      -2.823   3.476  -0.217  0.00  0.00     0.008 A 
HETATM    5  C   UNK N   1      -4.205   3.322  -0.363  0.00  0.00     0.021 A 
HETATM    6  C   UNK N   1      -4.915   2.046  -0.048  0.00  0.00     0.069 C 
ENDROOT
BRANCH   1   7
HETATM    7  C   UNK N   1      -6.275   4.467  -1.203  0.00  0.00     0.172 C 
BRANCH   7   8
HETATM    8  C   UNK N   1      -7.062   5.478  -0.421  0.00  0.00     0.019 A 
HETATM    9  C   UNK N   1      -6.634   6.806  -0.325  0.00  0.00     0.102 A 
HETATM   10  N   UNK N   1      -7.383   7.717   0.343  0.00  0.00    -0.355 N 
HETATM   11  C   UNK N   1      -8.564   7.366   0.917  0.00  0.00     0.078 A 
ATOM     12  HN  UNK N   1      -7.055   8.680   0.416  1.00  0.00     0.166 HD
HETATM   13  C   UNK N   1      -9.377   8.384   1.625  0.00  0.00     0.089 C 
HETATM   14  N   UNK N   1      -9.006   6.080   0.828  0.00  0.00    -0.332 N 
HETATM   15  C   UNK N   1      -8.283   5.137   0.178  0.00  0.00     0.109 A 
ATOM     16  HN  UNK N   1      -9.894   5.824   1.259  1.00  0.00     0.168 HD
BRANCH  15  17
HETATM   17  N   UNK N   1      -8.784   3.818   0.080  0.00  0.00    -0.385 N 
HETATM   18  H   UNK N   1      -9.754   3.661   0.012  0.00  0.00     0.157 HD
HETATM   19  H   UNK N   1      -8.162   3.055   0.080  0.00  0.00     0.157 HD
ENDBRANCH  15  17
ENDBRANCH   7   8
ENDBRANCH   1   7
BRANCH   4  20
HETATM   20  C   UNK N   1      -1.849   2.430   0.214  0.00  0.00     0.075 C 
BRANCH  20  21
HETATM   21  C   UNK N   1      -0.762   3.009   1.093  0.00  0.00     0.186 C 
BRANCH  21  22
HETATM   22  O   UNK N   1       0.464   2.833   0.452  0.00  0.00    -0.290 OA
BRANCH  22  23
HETATM   23  P   UNK N   1       1.075   4.427   0.125  0.00  0.00     0.406 P 
HETATM   24  O   UNK N   1       2.493   3.859   0.924  0.00  0.00    -0.624 OA
HETATM   25  O   UNK N   1       0.954   5.488   1.251  0.00  0.00    -0.624 OA
BRANCH  23  26
HETATM   26  O   UNK N   1       2.140   4.809  -1.191  0.00  0.00    -0.300 OA
HETATM   27  H   UNK N   1       2.622   4.400  -1.927  0.00  0.00     0.223 HD
ENDBRANCH  23  26
ENDBRANCH  22  23
ENDBRANCH  21  22
ENDBRANCH  20  21
ENDBRANCH   4  20
TORSDOF 8
