MODEL 1
REMARK VINA RESULT:      -5.2      0.000      0.000
REMARK  5 active torsions:
REMARK  status: ('A' for Active; 'I' for Inactive)
REMARK    1  A    between atoms: C_2  and  C_1 
REMARK    2  A    between atoms: O_7  and  C_1 
REMARK    3  A    between atoms: C_3  and  O_8 
REMARK    4  A    between atoms: C_5  and  S_12 
REMARK    5  A    between atoms: C_6  and  O_10 
ROOT
HETATM    1  C   UNK N   1      34.721  17.042   8.896  0.00  0.00     0.164 C 
HETATM    2  C   UNK N   1      33.517  15.075  10.005  0.00  0.00     0.167 C 
HETATM    3  C   UNK N   1      34.957  14.786  10.423  0.00  0.00     0.203 C 
HETATM    4  C   UNK N   1      33.503  16.070   8.812  0.00  0.00     0.107 C 
HETATM    5  C   UNK N   1      35.553  16.140  10.914  0.00  0.00     0.288 C 
HETATM    6  O   UNK N   1      35.677  14.271   9.338  0.00  0.00    -0.388 OA
HETATM    7  O   UNK N   1      35.069  17.307  10.237  0.00  0.00    -0.350 OA
HETATM    8  H   UNK N   1      36.239  13.939   8.621  0.00  0.00     0.210 HD
ENDROOT
BRANCH   2   9
HETATM    9  O   UNK N   1      32.810  13.906   9.712  0.00  0.00    -0.392 OA
HETATM   10  H   UNK N   1      31.964  13.929   9.238  0.00  0.00     0.210 HD
ENDBRANCH   2   9
BRANCH   5  11
HETATM   11  O   UNK N   1      36.948  16.107  10.907  0.00  0.00    -0.369 OA
HETATM   12  H   UNK N   1      37.572  15.431  10.599  0.00  0.00     0.212 HD
ENDBRANCH   5  11
BRANCH   4  13
HETATM   13  S   UNK N   1      33.555  15.204   7.197  0.00  0.00    -0.172 SA
HETATM   14  H   UNK N   1      33.915  14.117   6.464  0.00  0.00     0.102 HD
ENDBRANCH   4  13
BRANCH   1  15
HETATM   15  C   UNK N   1      34.434  18.370   8.198  0.00  0.00     0.197 C 
BRANCH  15  16
HETATM   16  O   UNK N   1      35.366  19.346   8.554  0.00  0.00    -0.398 OA
HETATM   17  H   UNK N   1      35.616  20.233   8.252  0.00  0.00     0.209 HD
ENDBRANCH  15  16
ENDBRANCH   1  15
TORSDOF 5
ENDMDL
MODEL 2
REMARK VINA RESULT:      -4.5     14.249     15.590
REMARK  5 active torsions:
REMARK  status: ('A' for Active; 'I' for Inactive)
REMARK    1  A    between atoms: C_2  and  C_1 
REMARK    2  A    between atoms: O_7  and  C_1 
REMARK    3  A    between atoms: C_3  and  O_8 
REMARK    4  A    between atoms: C_5  and  S_12 
REMARK    5  A    between atoms: C_6  and  O_10 
ROOT
HETATM    1  C   UNK N   1      21.096  18.527   4.749  0.00  0.00     0.164 C 
HETATM    2  C   UNK N   1      20.977  17.615   2.361  0.00  0.00     0.167 C 
HETATM    3  C   UNK N   1      20.390  19.008   2.151  0.00  0.00     0.203 C 
HETATM    4  C   UNK N   1      20.940  17.247   3.870  0.00  0.00     0.107 C 
HETATM    5  C   UNK N   1      21.321  19.997   2.915  0.00  0.00     0.288 C 
HETATM    6  O   UNK N   1      19.079  19.054   2.641  0.00  0.00    -0.388 OA
HETATM    7  O   UNK N   1      21.915  19.484   4.113  0.00  0.00    -0.350 OA
HETATM    8  H   UNK N   1      18.179  19.162   2.988  0.00  0.00     0.210 HD
ENDROOT
BRANCH   2   9
HETATM    9  O   UNK N   1      20.337  16.651   1.578  0.00  0.00    -0.392 OA
HETATM   10  H   UNK N   1      19.712  16.016   1.963  0.00  0.00     0.210 HD
ENDBRANCH   2   9
BRANCH   5  11
HETATM   11  O   UNK N   1      20.672  21.208   3.164  0.00  0.00    -0.369 OA
HETATM   12  H   UNK N   1      20.562  22.001   2.616  0.00  0.00     0.212 HD
ENDBRANCH   5  11
BRANCH   4  13
HETATM   13  S   UNK N   1      19.378  16.406   4.332  0.00  0.00    -0.172 SA
HETATM   14  H   UNK N   1      18.652  15.705   5.244  0.00  0.00     0.102 HD
ENDBRANCH   4  13
BRANCH   1  15
HETATM   15  C   UNK N   1      21.697  18.205   6.116  0.00  0.00     0.197 C 
BRANCH  15  16
HETATM   16  O   UNK N   1      20.956  18.783   7.148  0.00  0.00    -0.398 OA
HETATM   17  H   UNK N   1      20.688  18.544   8.050  0.00  0.00     0.209 HD
ENDBRANCH  15  16
ENDBRANCH   1  15
TORSDOF 5
ENDMDL
MODEL 3
REMARK VINA RESULT:      -4.4      2.153      3.403
REMARK  5 active torsions:
REMARK  status: ('A' for Active; 'I' for Inactive)
REMARK    1  A    between atoms: C_2  and  C_1 
REMARK    2  A    between atoms: O_7  and  C_1 
REMARK    3  A    between atoms: C_3  and  O_8 
REMARK    4  A    between atoms: C_5  and  S_12 
REMARK    5  A    between atoms: C_6  and  O_10 
ROOT
HETATM    1  C   UNK N   1      35.940  14.386   9.799  0.00  0.00     0.164 C 
HETATM    2  C   UNK N   1      33.576  13.726   9.076  0.00  0.00     0.167 C 
HETATM    3  C   UNK N   1      33.284  15.037   9.802  0.00  0.00     0.203 C 
HETATM    4  C   UNK N   1      34.979  13.198   9.482  0.00  0.00     0.107 C 
HETATM    5  C   UNK N   1      34.350  16.060   9.305  0.00  0.00     0.288 C 
HETATM    6  O   UNK N   1      33.361  14.846  11.187  0.00  0.00    -0.388 OA
HETATM    7  O   UNK N   1      35.638  15.510   9.003  0.00  0.00    -0.350 OA
HETATM    8  H   UNK N   1      33.428  14.789  12.153  0.00  0.00     0.210 HD
ENDROOT
BRANCH   2   9
HETATM    9  O   UNK N   1      32.579  12.771   9.296  0.00  0.00    -0.392 OA
HETATM   10  H   UNK N   1      32.409  12.410  10.181  0.00  0.00     0.210 HD
ENDBRANCH   2   9
BRANCH   5  11
HETATM   11  O   UNK N   1      34.466  17.134  10.190  0.00  0.00    -0.369 OA
HETATM   12  H   UNK N   1      35.100  17.867  10.227  0.00  0.00     0.212 HD
ENDBRANCH   5  11
BRANCH   4  13
HETATM   13  S   UNK N   1      34.900  12.101  10.950  0.00  0.00    -0.172 SA
HETATM   14  H   UNK N   1      34.195  11.602  12.000  0.00  0.00     0.102 HD
ENDBRANCH   4  13
BRANCH   1  15
HETATM   15  C   UNK N   1      37.402  14.007   9.570  0.00  0.00     0.197 C 
BRANCH  15  16
HETATM   16  O   UNK N   1      38.267  14.959  10.112  0.00  0.00    -0.398 OA
HETATM   17  H   UNK N   1      38.509  15.881   9.935  0.00  0.00     0.209 HD
ENDBRANCH  15  16
ENDBRANCH   1  15
TORSDOF 5
ENDMDL
MODEL 4
REMARK VINA RESULT:      -4.4      2.308      3.409
REMARK  5 active torsions:
REMARK  status: ('A' for Active; 'I' for Inactive)
REMARK    1  A    between atoms: C_2  and  C_1 
REMARK    2  A    between atoms: O_7  and  C_1 
REMARK    3  A    between atoms: C_3  and  O_8 
REMARK    4  A    between atoms: C_5  and  S_12 
REMARK    5  A    between atoms: C_6  and  O_10 
ROOT
HETATM    1  C   UNK N   1      34.667  16.142   7.110  0.00  0.00     0.164 C 
HETATM    2  C   UNK N   1      32.456  16.634   8.300  0.00  0.00     0.167 C 
HETATM    3  C   UNK N   1      33.352  17.693   8.938  0.00  0.00     0.203 C 
HETATM    4  C   UNK N   1      33.329  15.535   7.634  0.00  0.00     0.107 C 
HETATM    5  C   UNK N   1      34.154  18.349   7.774  0.00  0.00     0.288 C 
HETATM    6  O   UNK N   1      34.203  17.099   9.877  0.00  0.00    -0.388 OA
HETATM    7  O   UNK N   1      34.489  17.477   6.688  0.00  0.00    -0.350 OA
HETATM    8  H   UNK N   1      34.840  16.746  10.518  0.00  0.00     0.210 HD
ENDROOT
BRANCH   2   9
HETATM    9  O   UNK N   1      31.550  16.092   9.215  0.00  0.00    -0.392 OA
HETATM   10  H   UNK N   1      30.648  16.440   9.305  0.00  0.00     0.210 HD
ENDBRANCH   2   9
BRANCH   5  11
HETATM   11  O   UNK N   1      35.291  19.003   8.253  0.00  0.00    -0.369 OA
HETATM   12  H   UNK N   1      35.409  19.887   8.633  0.00  0.00     0.212 HD
ENDBRANCH   5  11
BRANCH   4  13
HETATM   13  S   UNK N   1      33.720  14.173   8.798  0.00  0.00    -0.172 SA
HETATM   14  H   UNK N   1      33.907  13.742  10.074  0.00  0.00     0.102 HD
ENDBRANCH   4  13
BRANCH   1  15
HETATM   15  C   UNK N   1      35.235  15.336   5.943  0.00  0.00     0.197 C 
BRANCH  15  16
HETATM   16  O   UNK N   1      34.388  15.375   4.835  0.00  0.00    -0.398 OA
HETATM   17  H   UNK N   1      33.911  16.052   4.329  0.00  0.00     0.209 HD
ENDBRANCH  15  16
ENDBRANCH   1  15
TORSDOF 5
ENDMDL
MODEL 5
REMARK VINA RESULT:      -4.4      2.921      3.758
REMARK  5 active torsions:
REMARK  status: ('A' for Active; 'I' for Inactive)
REMARK    1  A    between atoms: C_2  and  C_1 
REMARK    2  A    between atoms: O_7  and  C_1 
REMARK    3  A    between atoms: C_3  and  O_8 
REMARK    4  A    between atoms: C_5  and  S_12 
REMARK    5  A    between atoms: C_6  and  O_10 
ROOT
HETATM    1  C   UNK N   1      32.093  17.906   8.137  0.00  0.00     0.164 C 
HETATM    2  C   UNK N   1      33.416  15.933   7.184  0.00  0.00     0.167 C 
HETATM    3  C   UNK N   1      34.460  17.041   7.077  0.00  0.00     0.203 C 
HETATM    4  C   UNK N   1      32.003  16.555   7.361  0.00  0.00     0.107 C 
HETATM    5  C   UNK N   1      34.433  17.805   8.435  0.00  0.00     0.288 C 
HETATM    6  O   UNK N   1      34.153  17.889   6.005  0.00  0.00    -0.388 OA
HETATM    7  O   UNK N   1      33.151  17.887   9.069  0.00  0.00    -0.350 OA
HETATM    8  H   UNK N   1      33.980  18.530   5.298  0.00  0.00     0.210 HD
ENDROOT
BRANCH   2   9
HETATM    9  O   UNK N   1      33.464  15.059   6.095  0.00  0.00    -0.392 OA
HETATM   10  H   UNK N   1      33.787  15.346   5.226  0.00  0.00     0.210 HD
ENDBRANCH   2   9
BRANCH   5  11
HETATM   11  O   UNK N   1      35.006  19.072   8.312  0.00  0.00    -0.369 OA
HETATM   12  H   UNK N   1      35.885  19.404   8.554  0.00  0.00     0.212 HD
ENDBRANCH   5  11
BRANCH   4  13
HETATM   13  S   UNK N   1      31.181  16.857   5.750  0.00  0.00    -0.172 SA
HETATM   14  H   UNK N   1      30.805  16.402   4.525  0.00  0.00     0.102 HD
ENDBRANCH   4  13
BRANCH   1  15
HETATM   15  C   UNK N   1      30.795  18.218   8.880  0.00  0.00     0.197 C 
BRANCH  15  16
HETATM   16  O   UNK N   1      30.373  17.132   9.648  0.00  0.00    -0.398 OA
HETATM   17  H   UNK N   1      29.649  16.486   9.626  0.00  0.00     0.209 HD
ENDBRANCH  15  16
ENDBRANCH   1  15
TORSDOF 5
ENDMDL
MODEL 6
REMARK VINA RESULT:      -4.2      5.582      6.584
REMARK  5 active torsions:
REMARK  status: ('A' for Active; 'I' for Inactive)
REMARK    1  A    between atoms: C_2  and  C_1 
REMARK    2  A    between atoms: O_7  and  C_1 
REMARK    3  A    between atoms: C_3  and  O_8 
REMARK    4  A    between atoms: C_5  and  S_12 
REMARK    5  A    between atoms: C_6  and  O_10 
ROOT
HETATM    1  C   UNK N   1      29.862  17.025   7.465  0.00  0.00     0.164 C 
HETATM    2  C   UNK N   1      28.290  19.031   7.700  0.00  0.00     0.167 C 
HETATM    3  C   UNK N   1      28.228  18.466   9.117  0.00  0.00     0.203 C 
HETATM    4  C   UNK N   1      28.850  17.957   6.728  0.00  0.00     0.107 C 
HETATM    5  C   UNK N   1      29.697  18.155   9.532  0.00  0.00     0.288 C 
HETATM    6  O   UNK N   1      27.433  17.313   9.140  0.00  0.00    -0.388 OA
HETATM    7  O   UNK N   1      30.559  17.726   8.471  0.00  0.00    -0.350 OA
HETATM    8  H   UNK N   1      26.919  16.494   9.217  0.00  0.00     0.210 HD
ENDROOT
BRANCH   2   9
HETATM    9  O   UNK N   1      27.053  19.520   7.275  0.00  0.00    -0.392 OA
HETATM   10  H   UNK N   1      26.877  20.473   7.213  0.00  0.00     0.210 HD
ENDBRANCH   2   9
BRANCH   5  11
HETATM   11  O   UNK N   1      29.739  17.253  10.597  0.00  0.00    -0.369 OA
HETATM   12  H   UNK N   1      30.484  16.815  11.037  0.00  0.00     0.212 HD
ENDBRANCH   5  11
BRANCH   4  13
HETATM   13  S   UNK N   1      27.518  16.922   6.009  0.00  0.00    -0.172 SA
HETATM   14  H   UNK N   1      27.125  15.978   5.112  0.00  0.00     0.102 HD
ENDBRANCH   4  13
BRANCH   1  15
HETATM   15  C   UNK N   1      30.880  16.419   6.500  0.00  0.00     0.197 C 
BRANCH  15  16
HETATM   16  O   UNK N   1      31.205  17.310   5.476  0.00  0.00    -0.398 OA
HETATM   17  H   UNK N   1      30.763  17.693   4.702  0.00  0.00     0.209 HD
ENDBRANCH  15  16
ENDBRANCH   1  15
TORSDOF 5
ENDMDL
MODEL 7
REMARK VINA RESULT:      -4.2      2.288      3.831
REMARK  5 active torsions:
REMARK  status: ('A' for Active; 'I' for Inactive)
REMARK    1  A    between atoms: C_2  and  C_1 
REMARK    2  A    between atoms: O_7  and  C_1 
REMARK    3  A    between atoms: C_3  and  O_8 
REMARK    4  A    between atoms: C_5  and  S_12 
REMARK    5  A    between atoms: C_6  and  O_10 
ROOT
HETATM    1  C   UNK N   1      34.802  14.277   9.745  0.00  0.00     0.164 C 
HETATM    2  C   UNK N   1      35.823  14.524  12.079  0.00  0.00     0.167 C 
HETATM    3  C   UNK N   1      36.200  15.872  11.471  0.00  0.00     0.203 C 
HETATM    4  C   UNK N   1      35.443  13.524  10.952  0.00  0.00     0.107 C 
HETATM    5  C   UNK N   1      34.922  16.407  10.758  0.00  0.00     0.288 C 
HETATM    6  O   UNK N   1      37.261  15.713  10.571  0.00  0.00    -0.388 OA
HETATM    7  O   UNK N   1      34.076  15.406  10.178  0.00  0.00    -0.350 OA
HETATM    8  H   UNK N   1      37.973  15.666   9.914  0.00  0.00     0.210 HD
ENDROOT
BRANCH   2   9
HETATM    9  O   UNK N   1      36.832  14.018  12.902  0.00  0.00    -0.392 OA
HETATM   10  H   UNK N   1      37.614  13.576  12.534  0.00  0.00     0.210 HD
ENDBRANCH   2   9
BRANCH   5  11
HETATM   11  O   UNK N   1      35.242  17.388   9.819  0.00  0.00    -0.369 OA
HETATM   12  H   UNK N   1      35.631  18.271   9.921  0.00  0.00     0.212 HD
ENDBRANCH   5  11
BRANCH   4  13
HETATM   13  S   UNK N   1      36.899  12.585  10.351  0.00  0.00    -0.172 SA
HETATM   14  H   UNK N   1      37.996  11.829  10.621  0.00  0.00     0.102 HD
ENDBRANCH   4  13
BRANCH   1  15
HETATM   15  C   UNK N   1      33.864  13.373   8.948  0.00  0.00     0.197 C 
BRANCH  15  16
HETATM   16  O   UNK N   1      32.532  13.566   9.318  0.00  0.00    -0.398 OA
HETATM   17  H   UNK N   1      31.915  13.195   9.969  0.00  0.00     0.209 HD
ENDBRANCH  15  16
ENDBRANCH   1  15
TORSDOF 5
ENDMDL
MODEL 8
REMARK VINA RESULT:      -4.2      1.726      3.793
REMARK  5 active torsions:
REMARK  status: ('A' for Active; 'I' for Inactive)
REMARK    1  A    between atoms: C_2  and  C_1 
REMARK    2  A    between atoms: O_7  and  C_1 
REMARK    3  A    between atoms: C_3  and  O_8 
REMARK    4  A    between atoms: C_5  and  S_12 
REMARK    5  A    between atoms: C_6  and  O_10 
ROOT
HETATM    1  C   UNK N   1      33.646  14.948   8.604  0.00  0.00     0.164 C 
HETATM    2  C   UNK N   1      34.460  16.941   7.220  0.00  0.00     0.167 C 
HETATM    3  C   UNK N   1      34.403  17.575   8.608  0.00  0.00     0.203 C 
HETATM    4  C   UNK N   1      33.621  15.634   7.202  0.00  0.00     0.107 C 
HETATM    5  C   UNK N   1      35.067  16.559   9.584  0.00  0.00     0.288 C 
HETATM    6  O   UNK N   1      33.073  17.835   8.962  0.00  0.00    -0.388 OA
HETATM    7  O   UNK N   1      34.874  15.176   9.260  0.00  0.00    -0.350 OA
HETATM    8  H   UNK N   1      32.174  18.012   9.281  0.00  0.00     0.210 HD
ENDROOT
BRANCH   2   9
HETATM    9  O   UNK N   1      34.057  17.829   6.219  0.00  0.00    -0.392 OA
HETATM   10  H   UNK N   1      33.300  18.424   6.343  0.00  0.00     0.210 HD
ENDBRANCH   2   9
BRANCH   5  11
HETATM   11  O   UNK N   1      34.695  16.813  10.905  0.00  0.00    -0.369 OA
HETATM   12  H   UNK N   1      35.037  16.467  11.745  0.00  0.00     0.212 HD
ENDBRANCH   5  11
BRANCH   4  13
HETATM   13  S   UNK N   1      31.875  15.947   6.735  0.00  0.00    -0.172 SA
HETATM   14  H   UNK N   1      30.565  15.588   6.798  0.00  0.00     0.102 HD
ENDBRANCH   4  13
BRANCH   1  15
HETATM   15  C   UNK N   1      33.424  13.440   8.499  0.00  0.00     0.197 C 
BRANCH  15  16
HETATM   16  O   UNK N   1      32.304  13.037   9.228  0.00  0.00    -0.398 OA
HETATM   17  H   UNK N   1      31.691  13.436   9.865  0.00  0.00     0.209 HD
ENDBRANCH  15  16
ENDBRANCH   1  15
TORSDOF 5
ENDMDL
MODEL 9
REMARK VINA RESULT:      -4.2     17.142     18.878
REMARK  5 active torsions:
REMARK  status: ('A' for Active; 'I' for Inactive)
REMARK    1  A    between atoms: C_2  and  C_1 
REMARK    2  A    between atoms: O_7  and  C_1 
REMARK    3  A    between atoms: C_3  and  O_8 
REMARK    4  A    between atoms: C_5  and  S_12 
REMARK    5  A    between atoms: C_6  and  O_10 
ROOT
HETATM    1  C   UNK N   1      26.833  26.522  -3.885  0.00  0.00     0.164 C 
HETATM    2  C   UNK N   1      25.631  24.953  -5.511  0.00  0.00     0.167 C 
HETATM    3  C   UNK N   1      26.760  24.042  -5.035  0.00  0.00     0.203 C 
HETATM    4  C   UNK N   1      25.973  26.432  -5.185  0.00  0.00     0.107 C 
HETATM    5  C   UNK N   1      26.825  24.194  -3.486  0.00  0.00     0.288 C 
HETATM    6  O   UNK N   1      27.967  24.417  -5.639  0.00  0.00    -0.388 OA
HETATM    7  O   UNK N   1      26.495  25.494  -2.980  0.00  0.00    -0.350 OA
HETATM    8  H   UNK N   1      28.838  24.645  -5.999  0.00  0.00     0.210 HD
ENDROOT
BRANCH   2   9
HETATM    9  O   UNK N   1      25.348  24.774  -6.867  0.00  0.00    -0.392 OA
HETATM   10  H   UNK N   1      26.046  24.807  -7.541  0.00  0.00     0.210 HD
ENDBRANCH   2   9
BRANCH   5  11
HETATM   11  O   UNK N   1      28.059  23.770  -2.989  0.00  0.00    -0.369 OA
HETATM   12  H   UNK N   1      28.832  23.391  -3.435  0.00  0.00     0.212 HD
ENDBRANCH   5  11
BRANCH   4  13
HETATM   13  S   UNK N   1      26.891  27.241  -6.551  0.00  0.00    -0.172 SA
HETATM   14  H   UNK N   1      27.366  28.376  -7.130  0.00  0.00     0.102 HD
ENDBRANCH   4  13
BRANCH   1  15
HETATM   15  C   UNK N   1      26.656  27.866  -3.181  0.00  0.00     0.197 C 
BRANCH  15  16
HETATM   16  O   UNK N   1      25.338  28.316  -3.264  0.00  0.00    -0.398 OA
HETATM   17  H   UNK N   1      24.831  28.931  -3.817  0.00  0.00     0.209 HD
ENDBRANCH  15  16
ENDBRANCH   1  15
TORSDOF 5
ENDMDL
