MODEL 1
REMARK VINA RESULT:      -3.6      0.000      0.000
REMARK  4 active torsions:
REMARK  status: ('A' for Active; 'I' for Inactive)
REMARK       I    between atoms: N_1  and  C_2 
REMARK       I    between atoms: C_2  and  N_4 
REMARK    1  A    between atoms: N_4  and  C_5 
REMARK    2  A    between atoms: C_5  and  C_6 
REMARK    3  A    between atoms: C_6  and  C_7 
REMARK    4  A    between atoms: C_7  and  O_8 
ROOT
HETATM    1  N   UNK N   1      20.719  15.599   0.999  0.00  0.00    -0.235 N 
HETATM    2  C   UNK N   1      20.078  16.833   1.218  0.00  0.00     0.665 C 
HETATM    3  N   UNK N   1      19.103  17.189   0.456  0.00  0.00    -0.235 N 
HETATM    4  N   UNK N   1      20.509  17.672   2.271  0.00  0.00    -0.227 N 
HETATM    5  H   UNK N   1      21.465  15.323   1.579  0.00  0.00     0.174 HD
HETATM    6  H   UNK N   1      20.421  15.013   0.266  0.00  0.00     0.174 HD
HETATM    7  H   UNK N   1      18.809  16.600  -0.275  0.00  0.00     0.174 HD
HETATM    8  H   UNK N   1      18.652  18.052   0.605  0.00  0.00     0.174 HD
HETATM    9  H   UNK N   1      21.257  17.374   2.839  0.00  0.00     0.177 HD
ENDROOT
BRANCH   4  10
HETATM   10  C   UNK N   1      19.895  18.941   2.543  0.00  0.00     0.140 C 
BRANCH  10  11
HETATM   11  C   UNK N   1      20.942  20.019   2.395  0.00  0.00     0.046 C 
BRANCH  11  12
HETATM   12  C   UNK N   1      20.676  20.826   1.149  0.00  0.00     0.165 C 
BRANCH  12  13
HETATM   13  O   UNK N   1      20.646  19.964   0.054  0.00  0.00    -0.401 OA
HETATM   14  H   UNK N   1      20.645  19.004   0.193  0.00  0.00     0.209 HD
ENDBRANCH  12  13
ENDBRANCH  11  12
ENDBRANCH  10  11
ENDBRANCH   4  10
TORSDOF 4
ENDMDL
MODEL 2
REMARK VINA RESULT:      -3.5     22.672     23.346
REMARK  4 active torsions:
REMARK  status: ('A' for Active; 'I' for Inactive)
REMARK       I    between atoms: N_1  and  C_2 
REMARK       I    between atoms: C_2  and  N_4 
REMARK    1  A    between atoms: N_4  and  C_5 
REMARK    2  A    between atoms: C_5  and  C_6 
REMARK    3  A    between atoms: C_6  and  C_7 
REMARK    4  A    between atoms: C_7  and  O_8 
ROOT
HETATM    1  N   UNK N   1      43.609  23.696   4.167  0.00  0.00    -0.235 N 
HETATM    2  C   UNK N   1      44.125  22.411   3.916  0.00  0.00     0.665 C 
HETATM    3  N   UNK N   1      45.366  22.164   4.157  0.00  0.00    -0.235 N 
HETATM    4  N   UNK N   1      43.279  21.402   3.403  0.00  0.00    -0.227 N 
HETATM    5  H   UNK N   1      42.660  23.890   3.984  0.00  0.00     0.174 HD
HETATM    6  H   UNK N   1      44.196  24.401   4.525  0.00  0.00     0.174 HD
HETATM    7  H   UNK N   1      45.948  22.872   4.515  0.00  0.00     0.174 HD
HETATM    8  H   UNK N   1      45.731  21.266   3.982  0.00  0.00     0.174 HD
HETATM    9  H   UNK N   1      42.334  21.618   3.229  0.00  0.00     0.177 HD
ENDROOT
BRANCH   4  10
HETATM   10  C   UNK N   1      43.747  20.072   3.127  0.00  0.00     0.140 C 
BRANCH  10  11
HETATM   11  C   UNK N   1      42.549  19.181   2.906  0.00  0.00     0.046 C 
BRANCH  11  12
HETATM   12  C   UNK N   1      41.282  19.998   2.962  0.00  0.00     0.165 C 
BRANCH  12  13
HETATM   13  O   UNK N   1      40.613  19.707   4.148  0.00  0.00    -0.401 OA
HETATM   14  H   UNK N   1      41.073  19.238   4.863  0.00  0.00     0.209 HD
ENDBRANCH  12  13
ENDBRANCH  11  12
ENDBRANCH  10  11
ENDBRANCH   4  10
TORSDOF 4
ENDMDL
MODEL 3
REMARK VINA RESULT:      -3.5     10.843     11.513
REMARK  4 active torsions:
REMARK  status: ('A' for Active; 'I' for Inactive)
REMARK       I    between atoms: N_1  and  C_2 
REMARK       I    between atoms: C_2  and  N_4 
REMARK    1  A    between atoms: N_4  and  C_5 
REMARK    2  A    between atoms: C_5  and  C_6 
REMARK    3  A    between atoms: C_6  and  C_7 
REMARK    4  A    between atoms: C_7  and  O_8 
ROOT
HETATM    1  N   UNK N   1      22.823  11.554  13.067  0.00  0.00    -0.235 N 
HETATM    2  C   UNK N   1      23.214  11.875  11.753  0.00  0.00     0.665 C 
HETATM    3  N   UNK N   1      24.389  12.355  11.537  0.00  0.00    -0.235 N 
HETATM    4  N   UNK N   1      22.315  11.668  10.682  0.00  0.00    -0.227 N 
HETATM    5  H   UNK N   1      21.925  11.187  13.237  0.00  0.00     0.174 HD
HETATM    6  H   UNK N   1      23.447  11.697  13.815  0.00  0.00     0.174 HD
HETATM    7  H   UNK N   1      25.009  12.496  12.288  0.00  0.00     0.174 HD
HETATM    8  H   UNK N   1      24.667  12.582  10.620  0.00  0.00     0.174 HD
HETATM    9  H   UNK N   1      21.423  11.299  10.877  0.00  0.00     0.177 HD
ENDROOT
BRANCH   4  10
HETATM   10  C   UNK N   1      22.656  11.976   9.322  0.00  0.00     0.140 C 
BRANCH  10  11
HETATM   11  C   UNK N   1      21.504  12.727   8.700  0.00  0.00     0.046 C 
BRANCH  11  12
HETATM   12  C   UNK N   1      21.038  13.817   9.632  0.00  0.00     0.165 C 
BRANCH  12  13
HETATM   13  O   UNK N   1      19.867  13.398  10.262  0.00  0.00    -0.401 OA
HETATM   14  H   UNK N   1      19.564  12.482  10.162  0.00  0.00     0.209 HD
ENDBRANCH  12  13
ENDBRANCH  11  12
ENDBRANCH  10  11
ENDBRANCH   4  10
TORSDOF 4
ENDMDL
MODEL 4
REMARK VINA RESULT:      -3.4     14.471     15.019
REMARK  4 active torsions:
REMARK  status: ('A' for Active; 'I' for Inactive)
REMARK       I    between atoms: N_1  and  C_2 
REMARK       I    between atoms: C_2  and  N_4 
REMARK    1  A    between atoms: N_4  and  C_5 
REMARK    2  A    between atoms: C_5  and  C_6 
REMARK    3  A    between atoms: C_6  and  C_7 
REMARK    4  A    between atoms: C_7  and  O_8 
ROOT
HETATM    1  N   UNK N   1      32.436  13.468   8.944  0.00  0.00    -0.235 N 
HETATM    2  C   UNK N   1      32.476  14.837   9.267  0.00  0.00     0.665 C 
HETATM    3  N   UNK N   1      32.767  15.200  10.468  0.00  0.00    -0.235 N 
HETATM    4  N   UNK N   1      32.196  15.803   8.274  0.00  0.00    -0.227 N 
HETATM    5  H   UNK N   1      32.213  13.186   8.027  0.00  0.00     0.174 HD
HETATM    6  H   UNK N   1      32.630  12.793   9.634  0.00  0.00     0.174 HD
HETATM    7  H   UNK N   1      32.961  14.522  11.154  0.00  0.00     0.174 HD
HETATM    8  H   UNK N   1      32.795  16.157  10.699  0.00  0.00     0.174 HD
HETATM    9  H   UNK N   1      31.976  15.497   7.363  0.00  0.00     0.177 HD
ENDROOT
BRANCH   4  10
HETATM   10  C   UNK N   1      32.220  17.213   8.543  0.00  0.00     0.140 C 
BRANCH  10  11
HETATM   11  C   UNK N   1      33.292  17.844   7.688  0.00  0.00     0.046 C 
BRANCH  11  12
HETATM   12  C   UNK N   1      34.590  17.910   8.454  0.00  0.00     0.165 C 
BRANCH  12  13
HETATM   13  O   UNK N   1      35.079  19.213   8.396  0.00  0.00    -0.401 OA
HETATM   14  H   UNK N   1      34.733  19.889   9.000  0.00  0.00     0.209 HD
ENDBRANCH  12  13
ENDBRANCH  11  12
ENDBRANCH  10  11
ENDBRANCH   4  10
TORSDOF 4
ENDMDL
MODEL 5
REMARK VINA RESULT:      -3.2     24.275     24.974
REMARK  4 active torsions:
REMARK  status: ('A' for Active; 'I' for Inactive)
REMARK       I    between atoms: N_1  and  C_2 
REMARK       I    between atoms: C_2  and  N_4 
REMARK    1  A    between atoms: N_4  and  C_5 
REMARK    2  A    between atoms: C_5  and  C_6 
REMARK    3  A    between atoms: C_6  and  C_7 
REMARK    4  A    between atoms: C_7  and  O_8 
ROOT
HETATM    1  N   UNK N   1      45.435  26.557   2.131  0.00  0.00    -0.235 N 
HETATM    2  C   UNK N   1      45.258  25.161   2.127  0.00  0.00     0.665 C 
HETATM    3  N   UNK N   1      46.115  24.408   2.723  0.00  0.00    -0.235 N 
HETATM    4  N   UNK N   1      44.142  24.596   1.469  0.00  0.00    -0.227 N 
HETATM    5  H   UNK N   1      44.782  27.137   1.676  0.00  0.00     0.174 HD
HETATM    6  H   UNK N   1      46.212  26.954   2.589  0.00  0.00     0.174 HD
HETATM    7  H   UNK N   1      46.890  24.809   3.179  0.00  0.00     0.174 HD
HETATM    8  H   UNK N   1      45.996  23.430   2.722  0.00  0.00     0.174 HD
HETATM    9  H   UNK N   1      43.501  25.196   1.021  0.00  0.00     0.177 HD
ENDROOT
BRANCH   4  10
HETATM   10  C   UNK N   1      43.908  23.180   1.430  0.00  0.00     0.140 C 
BRANCH  10  11
HETATM   11  C   UNK N   1      42.767  22.859   2.365  0.00  0.00     0.046 C 
BRANCH  11  12
HETATM   12  C   UNK N   1      43.308  22.406   3.699  0.00  0.00     0.165 C 
BRANCH  12  13
HETATM   13  O   UNK N   1      43.564  23.528   4.484  0.00  0.00    -0.401 OA
HETATM   14  H   UNK N   1      42.991  23.734   5.239  0.00  0.00     0.209 HD
ENDBRANCH  12  13
ENDBRANCH  11  12
ENDBRANCH  10  11
ENDBRANCH   4  10
TORSDOF 4
ENDMDL
MODEL 6
REMARK VINA RESULT:      -3.2     17.896     18.461
REMARK  4 active torsions:
REMARK  status: ('A' for Active; 'I' for Inactive)
REMARK       I    between atoms: N_1  and  C_2 
REMARK       I    between atoms: C_2  and  N_4 
REMARK    1  A    between atoms: N_4  and  C_5 
REMARK    2  A    between atoms: C_5  and  C_6 
REMARK    3  A    between atoms: C_6  and  C_7 
REMARK    4  A    between atoms: C_7  and  O_8 
ROOT
HETATM    1  N   UNK N   1      37.486  13.237  12.027  0.00  0.00    -0.235 N 
HETATM    2  C   UNK N   1      36.399  14.131  12.005  0.00  0.00     0.665 C 
HETATM    3  N   UNK N   1      36.360  15.109  12.842  0.00  0.00    -0.235 N 
HETATM    4  N   UNK N   1      35.358  13.949  11.065  0.00  0.00    -0.227 N 
HETATM    5  H   UNK N   1      37.519  12.488  11.389  0.00  0.00     0.174 HD
HETATM    6  H   UNK N   1      38.212  13.362  12.680  0.00  0.00     0.174 HD
HETATM    7  H   UNK N   1      37.089  15.229  13.493  0.00  0.00     0.174 HD
HETATM    8  H   UNK N   1      35.601  15.736  12.831  0.00  0.00     0.174 HD
HETATM    9  H   UNK N   1      35.414  13.193  10.436  0.00  0.00     0.177 HD
ENDROOT
BRANCH   4  10
HETATM   10  C   UNK N   1      34.224  14.827  10.994  0.00  0.00     0.140 C 
BRANCH  10  11
HETATM   11  C   UNK N   1      34.160  15.413   9.605  0.00  0.00     0.046 C 
BRANCH  11  12
HETATM   12  C   UNK N   1      34.738  16.806   9.606  0.00  0.00     0.165 C 
BRANCH  12  13
HETATM   13  O   UNK N   1      35.074  17.151  10.914  0.00  0.00    -0.401 OA
HETATM   14  H   UNK N   1      35.942  17.540  11.106  0.00  0.00     0.209 HD
ENDBRANCH  12  13
ENDBRANCH  11  12
ENDBRANCH  10  11
ENDBRANCH   4  10
TORSDOF 4
ENDMDL
MODEL 7
REMARK VINA RESULT:      -3.2     10.831     11.638
REMARK  4 active torsions:
REMARK  status: ('A' for Active; 'I' for Inactive)
REMARK       I    between atoms: N_1  and  C_2 
REMARK       I    between atoms: C_2  and  N_4 
REMARK    1  A    between atoms: N_4  and  C_5 
REMARK    2  A    between atoms: C_5  and  C_6 
REMARK    3  A    between atoms: C_6  and  C_7 
REMARK    4  A    between atoms: C_7  and  O_8 
ROOT
HETATM    1  N   UNK N   1      27.274  19.995   7.281  0.00  0.00    -0.235 N 
HETATM    2  C   UNK N   1      27.946  18.867   7.789  0.00  0.00     0.665 C 
HETATM    3  N   UNK N   1      27.737  18.493   9.003  0.00  0.00    -0.235 N 
HETATM    4  N   UNK N   1      28.845  18.154   6.963  0.00  0.00    -0.227 N 
HETATM    5  H   UNK N   1      27.432  20.285   6.353  0.00  0.00     0.174 HD
HETATM    6  H   UNK N   1      26.648  20.494   7.854  0.00  0.00     0.174 HD
HETATM    7  H   UNK N   1      27.110  18.995   9.572  0.00  0.00     0.174 HD
HETATM    8  H   UNK N   1      28.205  17.705   9.363  0.00  0.00     0.174 HD
HETATM    9  H   UNK N   1      28.985  18.462   6.038  0.00  0.00     0.177 HD
ENDROOT
BRANCH   4  10
HETATM   10  C   UNK N   1      29.559  16.997   7.424  0.00  0.00     0.140 C 
BRANCH  10  11
HETATM   11  C   UNK N   1      31.038  17.249   7.254  0.00  0.00     0.046 C 
BRANCH  11  12
HETATM   12  C   UNK N   1      31.589  17.926   8.485  0.00  0.00     0.165 C 
BRANCH  12  13
HETATM   13  O   UNK N   1      30.699  17.731   9.540  0.00  0.00    -0.401 OA
HETATM   14  H   UNK N   1      30.791  18.251  10.354  0.00  0.00     0.209 HD
ENDBRANCH  12  13
ENDBRANCH  11  12
ENDBRANCH  10  11
ENDBRANCH   4  10
TORSDOF 4
ENDMDL
MODEL 8
REMARK VINA RESULT:      -3.2     12.267     13.047
REMARK  4 active torsions:
REMARK  status: ('A' for Active; 'I' for Inactive)
REMARK       I    between atoms: N_1  and  C_2 
REMARK       I    between atoms: C_2  and  N_4 
REMARK    1  A    between atoms: N_4  and  C_5 
REMARK    2  A    between atoms: C_5  and  C_6 
REMARK    3  A    between atoms: C_6  and  C_7 
REMARK    4  A    between atoms: C_7  and  O_8 
ROOT
HETATM    1  N   UNK N   1      27.909  18.714   8.827  0.00  0.00    -0.235 N 
HETATM    2  C   UNK N   1      29.238  18.339   9.097  0.00  0.00     0.665 C 
HETATM    3  N   UNK N   1      29.771  18.648  10.228  0.00  0.00    -0.235 N 
HETATM    4  N   UNK N   1      29.978  17.627   8.126  0.00  0.00    -0.227 N 
HETATM    5  H   UNK N   1      27.497  18.480   7.964  0.00  0.00     0.174 HD
HETATM    6  H   UNK N   1      27.391  19.210   9.502  0.00  0.00     0.174 HD
HETATM    7  H   UNK N   1      29.249  19.144  10.899  0.00  0.00     0.174 HD
HETATM    8  H   UNK N   1      30.701  18.389  10.420  0.00  0.00     0.174 HD
HETATM    9  H   UNK N   1      29.545  17.403   7.270  0.00  0.00     0.177 HD
ENDROOT
BRANCH   4  10
HETATM   10  C   UNK N   1      31.338  17.217   8.342  0.00  0.00     0.140 C 
BRANCH  10  11
HETATM   11  C   UNK N   1      32.083  17.327   7.035  0.00  0.00     0.046 C 
BRANCH  11  12
HETATM   12  C   UNK N   1      33.512  17.739   7.290  0.00  0.00     0.165 C 
BRANCH  12  13
HETATM   13  O   UNK N   1      34.161  17.887   6.066  0.00  0.00    -0.401 OA
HETATM   14  H   UNK N   1      34.012  17.243   5.357  0.00  0.00     0.209 HD
ENDBRANCH  12  13
ENDBRANCH  11  12
ENDBRANCH  10  11
ENDBRANCH   4  10
TORSDOF 4
ENDMDL
MODEL 9
REMARK VINA RESULT:      -3.1     16.556     17.164
REMARK  4 active torsions:
REMARK  status: ('A' for Active; 'I' for Inactive)
REMARK       I    between atoms: N_1  and  C_2 
REMARK       I    between atoms: C_2  and  N_4 
REMARK    1  A    between atoms: N_4  and  C_5 
REMARK    2  A    between atoms: C_5  and  C_6 
REMARK    3  A    between atoms: C_6  and  C_7 
REMARK    4  A    between atoms: C_7  and  O_8 
ROOT
HETATM    1  N   UNK N   1      34.702  13.893  11.938  0.00  0.00    -0.235 N 
HETATM    2  C   UNK N   1      35.216  15.019  11.266  0.00  0.00     0.665 C 
HETATM    3  N   UNK N   1      36.469  15.300  11.359  0.00  0.00    -0.235 N 
HETATM    4  N   UNK N   1      34.354  15.831  10.495  0.00  0.00    -0.227 N 
HETATM    5  H   UNK N   1      33.745  13.675  11.870  0.00  0.00     0.174 HD
HETATM    6  H   UNK N   1      35.301  13.326  12.476  0.00  0.00     0.174 HD
HETATM    7  H   UNK N   1      37.063  14.729  11.898  0.00  0.00     0.174 HD
HETATM    8  H   UNK N   1      36.833  16.086  10.891  0.00  0.00     0.174 HD
HETATM    9  H   UNK N   1      33.399  15.592  10.441  0.00  0.00     0.177 HD
ENDROOT
BRANCH   4  10
HETATM   10  C   UNK N   1      34.818  16.991   9.787  0.00  0.00     0.140 C 
BRANCH  10  11
HETATM   11  C   UNK N   1      33.920  17.215   8.596  0.00  0.00     0.046 C 
BRANCH  11  12
HETATM   12  C   UNK N   1      34.244  18.538   7.948  0.00  0.00     0.165 C 
BRANCH  12  13
HETATM   13  O   UNK N   1      35.322  19.113   8.618  0.00  0.00    -0.401 OA
HETATM   14  H   UNK N   1      36.165  19.245   8.158  0.00  0.00     0.209 HD
ENDBRANCH  12  13
ENDBRANCH  11  12
ENDBRANCH  10  11
ENDBRANCH   4  10
TORSDOF 4
ENDMDL
