MODEL 1
REMARK VINA RESULT:      -7.1      0.000      0.000
REMARK  19 active torsions:
REMARK  status: ('A' for Active; 'I' for Inactive)
REMARK    1  A    between atoms: C_2  and  C_1 
REMARK    2  A    between atoms: C_3  and  C_1 
REMARK    3  A    between atoms: C_12  and  C_2 
REMARK    4  A    between atoms: C_13  and  C_3 
REMARK    5  A    between atoms: C_9  and  C_8 
REMARK    6  A    between atoms: C_14  and  C_8 
REMARK    7  A    between atoms: C_15  and  C_9 
REMARK    8  A    between atoms: C_13  and  C_10 
REMARK    9  A    between atoms: C_17  and  C_11 
REMARK   10  A    between atoms: C_21  and  C_13 
REMARK   11  A    between atoms: C_19  and  C_14 
REMARK   12  A    between atoms: C_14  and  N_28 
REMARK   13  A    between atoms: O_33  and  C_15 
REMARK   14  A    between atoms: C_16  and  N_26 
REMARK       I    between atoms: N_28  and  C_17 
REMARK   15  A    between atoms: O_35  and  C_18 
REMARK   16  A    between atoms: O_37  and  C_19 
REMARK       I    between atoms: C_20  and  N_27 
REMARK   17  A    between atoms: C_22  and  C_21 
REMARK   18  A    between atoms: O_38  and  C_21 
REMARK   19  A    between atoms: O_39  and  C_21 
ROOT
HETATM    1  C   UNK N   1      26.689  26.713  -4.768  0.00  0.00     0.090 C 
ENDROOT
BRANCH   1   2
HETATM    2  C   UNK N   1      25.621  25.631  -4.939  0.00  0.00     0.015 C 
BRANCH   2   3
HETATM    3  C   UNK N   1      25.591  25.098  -6.349  0.00  0.00     0.002 C 
BRANCH   3   4
HETATM    4  C   UNK N   1      25.925  23.626  -6.259  0.00  0.00     0.017 C 
BRANCH   4   5
HETATM    5  C   UNK N   1      26.551  23.040  -7.531  0.00  0.00     0.102 C 
HETATM    6  C   UNK N   1      27.552  23.952  -8.225  0.00  0.00     0.184 C 
HETATM    7  N   UNK N   1      28.259  23.155  -9.234  0.00  0.00    -0.365 N 
HETATM    8  C   UNK N   1      27.397  22.402 -10.173  0.00  0.00     0.280 C 
HETATM    9  H   UNK N   1      29.277  23.121  -9.285  0.00  0.00     0.159 HD
HETATM   10  N   UNK N   1      27.945  21.068 -10.351  0.00  0.00    -0.395 N 
HETATM   11  N   UNK N   1      26.006  22.284  -9.760  0.00  0.00    -0.337 N 
HETATM   12  H   UNK N   1      28.923  20.860 -10.152  0.00  0.00     0.153 HD
HETATM   13  H   UNK N   1      27.335  20.322 -10.683  0.00  0.00     0.153 HD
HETATM   14  C   UNK N   1      25.578  22.606  -8.591  0.00  0.00     0.122 C 
ATOM     15  HN  UNK N   1      25.332  21.925 -10.436  1.00  0.00     0.165 HD
BRANCH   6  16
HETATM   16  N   UNK N   1      28.522  24.455  -7.266  0.00  0.00    -0.410 N 
HETATM   17  H   UNK N   1      28.350  25.107  -6.500  0.00  0.00     0.151 HD
HETATM   18  H   UNK N   1      29.480  24.120  -7.371  0.00  0.00     0.151 HD
ENDBRANCH   6  16
BRANCH  14  19
HETATM   19  O   UNK N   1      24.264  22.554  -8.344  0.00  0.00    -0.349 OA
HETATM   20  H   UNK N   1      23.681  23.221  -8.651  0.00  0.00     0.219 HD
ENDBRANCH  14  19
ENDBRANCH   4   5
ENDBRANCH   3   4
ENDBRANCH   2   3
ENDBRANCH   1   2
BRANCH   1  21
HETATM   21  C   UNK N   1      27.851  26.006  -4.080  0.00  0.00    -0.048 A 
HETATM   22  C   UNK N   1      27.607  24.792  -3.463  0.00  0.00     0.009 A 
HETATM   23  C   UNK N   1      28.626  23.972  -3.095  0.00  0.00     0.017 A 
HETATM   24  C   UNK N   1      29.950  24.324  -3.304  0.00  0.00     0.032 A 
HETATM   25  C   UNK N   1      30.256  25.596  -3.822  0.00  0.00     0.017 A 
HETATM   26  C   UNK N   1      29.195  26.431  -4.237  0.00  0.00     0.009 A 
BRANCH  24  27
HETATM   27  C   UNK N   1      30.925  23.311  -2.902  0.00  0.00     0.252 C 
HETATM   28  N   UNK N   1      31.834  22.968  -3.860  0.00  0.00    -0.343 N 
HETATM   29  H   UNK N   1      32.190  23.705  -4.408  0.00  0.00     0.163 HD
HETATM   30  O   UNK N   1      30.864  22.736  -1.834  0.00  0.00    -0.268 OA
BRANCH  28  31
HETATM   31  C   UNK N   1      32.328  21.659  -4.158  0.00  0.00     0.183 C 
BRANCH  31  32
HETATM   32  C   UNK N   1      31.062  20.796  -4.309  0.00  0.00     0.046 C 
BRANCH  32  33
HETATM   33  C   UNK N   1      30.762  20.264  -5.696  0.00  0.00     0.112 C 
BRANCH  33  34
HETATM   34  C   UNK N   1      29.755  21.103  -6.403  0.00  0.00     0.139 C 
HETATM   35  O   UNK N   1      29.346  22.118  -5.870  0.00  0.00    -0.650 OA
BRANCH  34  36
HETATM   36  O   UNK N   1      29.298  20.748  -7.619  0.00  0.00    -0.776 OA
HETATM   37  H   UNK N   1      29.178  21.345  -8.331  0.00  0.00     0.167 HD
ENDBRANCH  34  36
ENDBRANCH  33  34
ENDBRANCH  32  33
ENDBRANCH  31  32
BRANCH  31  38
HETATM   38  C   UNK N   1      33.317  21.142  -3.153  0.00  0.00     0.163 C 
HETATM   39  O   UNK N   1      34.416  20.760  -3.521  0.00  0.00    -0.648 OA
BRANCH  38  40
HETATM   40  O   UNK N   1      32.955  20.986  -1.867  0.00  0.00    -0.775 OA
HETATM   41  H   UNK N   1      32.443  21.427  -1.219  0.00  0.00     0.167 HD
ENDBRANCH  38  40
ENDBRANCH  31  38
ENDBRANCH  28  31
ENDBRANCH  24  27
ENDBRANCH   1  21
BRANCH   1  42
HETATM   42  C   UNK N   1      26.022  27.881  -3.973  0.00  0.00     0.268 C 
BRANCH  42  43
HETATM   43  C   UNK N   1      26.760  29.186  -4.247  0.00  0.00     0.445 C 
HETATM   44  F   UNK N   1      27.092  29.266  -5.589  0.00  0.00    -0.166 F 
HETATM   45  F   UNK N   1      27.914  29.339  -3.505  0.00  0.00    -0.166 F 
HETATM   46  F   UNK N   1      25.917  30.244  -3.949  0.00  0.00    -0.166 F 
ENDBRANCH  42  43
BRANCH  42  47
HETATM   47  O   UNK N   1      24.753  28.046  -4.391  0.00  0.00    -0.358 OA
HETATM   48  H   UNK N   1      24.104  28.562  -3.955  0.00  0.00     0.213 HD
ENDBRANCH  42  47
BRANCH  42  49
HETATM   49  O   UNK N   1      26.036  27.613  -2.648  0.00  0.00    -0.358 OA
HETATM   50  H   UNK N   1      25.938  26.855  -2.106  0.00  0.00     0.213 HD
ENDBRANCH  42  49
ENDBRANCH   1  42
TORSDOF 19
ENDMDL
MODEL 2
REMARK VINA RESULT:      -6.9     11.401     15.125
REMARK  19 active torsions:
REMARK  status: ('A' for Active; 'I' for Inactive)
REMARK    1  A    between atoms: C_2  and  C_1 
REMARK    2  A    between atoms: C_3  and  C_1 
REMARK    3  A    between atoms: C_12  and  C_2 
REMARK    4  A    between atoms: C_13  and  C_3 
REMARK    5  A    between atoms: C_9  and  C_8 
REMARK    6  A    between atoms: C_14  and  C_8 
REMARK    7  A    between atoms: C_15  and  C_9 
REMARK    8  A    between atoms: C_13  and  C_10 
REMARK    9  A    between atoms: C_17  and  C_11 
REMARK   10  A    between atoms: C_21  and  C_13 
REMARK   11  A    between atoms: C_19  and  C_14 
REMARK   12  A    between atoms: C_14  and  N_28 
REMARK   13  A    between atoms: O_33  and  C_15 
REMARK   14  A    between atoms: C_16  and  N_26 
REMARK       I    between atoms: N_28  and  C_17 
REMARK   15  A    between atoms: O_35  and  C_18 
REMARK   16  A    between atoms: O_37  and  C_19 
REMARK       I    between atoms: C_20  and  N_27 
REMARK   17  A    between atoms: C_22  and  C_21 
REMARK   18  A    between atoms: O_38  and  C_21 
REMARK   19  A    between atoms: O_39  and  C_21 
ROOT
HETATM    1  C   UNK N   1      30.158  17.555   5.198  0.00  0.00     0.090 C 
ENDROOT
BRANCH   1   2
HETATM    2  C   UNK N   1      30.308  16.689   6.449  0.00  0.00     0.015 C 
BRANCH   2   3
HETATM    3  C   UNK N   1      30.316  17.523   7.705  0.00  0.00     0.002 C 
BRANCH   3   4
HETATM    4  C   UNK N   1      31.767  17.698   8.095  0.00  0.00     0.017 C 
BRANCH   4   5
HETATM    5  C   UNK N   1      32.650  16.478   7.808  0.00  0.00     0.102 C 
HETATM    6  C   UNK N   1      33.021  15.657   9.034  0.00  0.00     0.184 C 
HETATM    7  N   UNK N   1      33.609  14.396   8.568  0.00  0.00    -0.365 N 
HETATM    8  C   UNK N   1      34.713  14.528   7.591  0.00  0.00     0.280 C 
HETATM    9  H   UNK N   1      33.278  13.488   8.895  0.00  0.00     0.159 HD
HETATM   10  N   UNK N   1      34.535  13.541   6.540  0.00  0.00    -0.395 N 
HETATM   11  N   UNK N   1      34.830  15.844   6.980  0.00  0.00    -0.337 N 
HETATM   12  H   UNK N   1      33.970  12.704   6.681  0.00  0.00     0.153 HD
HETATM   13  H   UNK N   1      34.987  13.689   5.638  0.00  0.00     0.153 HD
HETATM   14  C   UNK N   1      33.941  16.766   7.094  0.00  0.00     0.122 C 
ATOM     15  HN  UNK N   1      35.664  16.047   6.429  1.00  0.00     0.165 HD
BRANCH   6  16
HETATM   16  N   UNK N   1      31.832  15.355   9.814  0.00  0.00    -0.410 N 
HETATM   17  H   UNK N   1      31.145  14.623   9.633  0.00  0.00     0.151 HD
HETATM   18  H   UNK N   1      31.667  15.940  10.634  0.00  0.00     0.151 HD
ENDBRANCH   6  16
BRANCH  14  19
HETATM   19  O   UNK N   1      34.191  17.975   6.577  0.00  0.00    -0.349 OA
HETATM   20  H   UNK N   1      33.948  18.191   5.698  0.00  0.00     0.219 HD
ENDBRANCH  14  19
ENDBRANCH   4   5
ENDBRANCH   3   4
ENDBRANCH   2   3
ENDBRANCH   1   2
BRANCH   1  21
HETATM   21  C   UNK N   1      28.692  17.975   5.189  0.00  0.00    -0.048 A 
HETATM   22  C   UNK N   1      28.384  19.271   4.816  0.00  0.00     0.009 A 
HETATM   23  C   UNK N   1      27.112  19.629   4.499  0.00  0.00     0.017 A 
HETATM   24  C   UNK N   1      26.069  18.718   4.553  0.00  0.00     0.032 A 
HETATM   25  C   UNK N   1      26.307  17.418   5.036  0.00  0.00     0.017 A 
HETATM   26  C   UNK N   1      27.636  17.039   5.331  0.00  0.00     0.009 A 
BRANCH  24  27
HETATM   27  C   UNK N   1      24.772  19.245   4.131  0.00  0.00     0.252 C 
HETATM   28  N   UNK N   1      23.693  18.500   4.507  0.00  0.00    -0.343 N 
HETATM   29  H   UNK N   1      23.720  18.118   5.414  0.00  0.00     0.163 HD
HETATM   30  O   UNK N   1      24.667  20.213   3.406  0.00  0.00    -0.268 OA
BRANCH  28  31
HETATM   31  C   UNK N   1      22.526  18.210   3.731  0.00  0.00     0.183 C 
BRANCH  31  32
HETATM   32  C   UNK N   1      21.449  19.157   4.288  0.00  0.00     0.046 C 
BRANCH  32  33
HETATM   33  C   UNK N   1      20.575  19.866   3.274  0.00  0.00     0.112 C 
BRANCH  33  34
HETATM   34  C   UNK N   1      21.372  20.756   2.385  0.00  0.00     0.139 C 
HETATM   35  O   UNK N   1      21.292  20.620   1.178  0.00  0.00    -0.650 OA
BRANCH  34  36
HETATM   36  O   UNK N   1      22.177  21.703   2.905  0.00  0.00    -0.776 OA
HETATM   37  H   UNK N   1      21.871  22.497   3.296  0.00  0.00     0.167 HD
ENDBRANCH  34  36
ENDBRANCH  33  34
ENDBRANCH  32  33
ENDBRANCH  31  32
BRANCH  31  38
HETATM   38  C   UNK N   1      22.143  16.758   3.736  0.00  0.00     0.163 C 
HETATM   39  O   UNK N   1      21.156  16.389   4.353  0.00  0.00    -0.648 OA
BRANCH  38  40
HETATM   40  O   UNK N   1      22.948  15.844   3.164  0.00  0.00    -0.775 OA
HETATM   41  H   UNK N   1      23.243  14.968   3.317  0.00  0.00     0.167 HD
ENDBRANCH  38  40
ENDBRANCH  31  38
ENDBRANCH  28  31
ENDBRANCH  24  27
ENDBRANCH   1  21
BRANCH   1  42
HETATM   42  C   UNK N   1      30.635  16.687   3.991  0.00  0.00     0.268 C 
BRANCH  42  43
HETATM   43  C   UNK N   1      32.068  17.050   3.621  0.00  0.00     0.445 C 
HETATM   44  F   UNK N   1      32.175  17.205   2.249  0.00  0.00    -0.166 F 
HETATM   45  F   UNK N   1      33.001  16.118   4.026  0.00  0.00    -0.166 F 
HETATM   46  F   UNK N   1      32.387  18.260   4.215  0.00  0.00    -0.166 F 
ENDBRANCH  42  43
BRANCH  42  47
HETATM   47  O   UNK N   1      30.631  15.386   4.339  0.00  0.00    -0.358 OA
HETATM   48  H   UNK N   1      29.987  14.973   4.879  0.00  0.00     0.213 HD
ENDBRANCH  42  47
BRANCH  42  49
HETATM   49  O   UNK N   1      29.821  16.876   2.927  0.00  0.00    -0.358 OA
HETATM   50  H   UNK N   1      28.951  17.191   2.784  0.00  0.00     0.213 HD
ENDBRANCH  42  49
ENDBRANCH   1  42
TORSDOF 19
ENDMDL
MODEL 3
REMARK VINA RESULT:      -6.8     14.818     16.104
REMARK  19 active torsions:
REMARK  status: ('A' for Active; 'I' for Inactive)
REMARK    1  A    between atoms: C_2  and  C_1 
REMARK    2  A    between atoms: C_3  and  C_1 
REMARK    3  A    between atoms: C_12  and  C_2 
REMARK    4  A    between atoms: C_13  and  C_3 
REMARK    5  A    between atoms: C_9  and  C_8 
REMARK    6  A    between atoms: C_14  and  C_8 
REMARK    7  A    between atoms: C_15  and  C_9 
REMARK    8  A    between atoms: C_13  and  C_10 
REMARK    9  A    between atoms: C_17  and  C_11 
REMARK   10  A    between atoms: C_21  and  C_13 
REMARK   11  A    between atoms: C_19  and  C_14 
REMARK   12  A    between atoms: C_14  and  N_28 
REMARK   13  A    between atoms: O_33  and  C_15 
REMARK   14  A    between atoms: C_16  and  N_26 
REMARK       I    between atoms: N_28  and  C_17 
REMARK   15  A    between atoms: O_35  and  C_18 
REMARK   16  A    between atoms: O_37  and  C_19 
REMARK       I    between atoms: C_20  and  N_27 
REMARK   17  A    between atoms: C_22  and  C_21 
REMARK   18  A    between atoms: O_38  and  C_21 
REMARK   19  A    between atoms: O_39  and  C_21 
ROOT
HETATM    1  C   UNK N   1      20.857  17.512   2.504  0.00  0.00     0.090 C 
ENDROOT
BRANCH   1   2
HETATM    2  C   UNK N   1      20.138  16.356   1.808  0.00  0.00     0.015 C 
BRANCH   2   3
HETATM    3  C   UNK N   1      21.074  15.568   0.929  0.00  0.00     0.002 C 
BRANCH   3   4
HETATM    4  C   UNK N   1      21.217  14.204   1.568  0.00  0.00     0.017 C 
BRANCH   4   5
HETATM    5  C   UNK N   1      22.260  14.139   2.692  0.00  0.00     0.102 C 
HETATM    6  C   UNK N   1      23.586  13.507   2.294  0.00  0.00     0.184 C 
HETATM    7  N   UNK N   1      24.550  13.777   3.367  0.00  0.00    -0.365 N 
HETATM    8  C   UNK N   1      24.107  13.410   4.731  0.00  0.00     0.280 C 
HETATM    9  H   UNK N   1      25.464  14.190   3.186  0.00  0.00     0.159 HD
HETATM   10  N   UNK N   1      24.478  14.472   5.650  0.00  0.00    -0.395 N 
HETATM   11  N   UNK N   1      22.679  13.160   4.860  0.00  0.00    -0.337 N 
HETATM   12  H   UNK N   1      25.220  15.137   5.429  0.00  0.00     0.153 HD
HETATM   13  H   UNK N   1      23.984  14.555   6.538  0.00  0.00     0.153 HD
HETATM   14  C   UNK N   1      21.820  13.432   3.943  0.00  0.00     0.122 C 
ATOM     15  HN  UNK N   1      22.339  12.745   5.728  1.00  0.00     0.165 HD
BRANCH   6  16
HETATM   16  N   UNK N   1      24.078  14.105   1.065  0.00  0.00    -0.410 N 
HETATM   17  H   UNK N   1      23.965  15.073   0.761  0.00  0.00     0.151 HD
HETATM   18  H   UNK N   1      24.595  13.490   0.436  0.00  0.00     0.151 HD
ENDBRANCH   6  16
BRANCH  14  19
HETATM   19  O   UNK N   1      20.544  13.071   4.121  0.00  0.00    -0.349 OA
HETATM   20  H   UNK N   1      20.087  12.557   3.485  0.00  0.00     0.219 HD
ENDBRANCH  14  19
ENDBRANCH   4   5
ENDBRANCH   3   4
ENDBRANCH   2   3
ENDBRANCH   1   2
BRANCH   1  21
HETATM   21  C   UNK N   1      20.752  17.197   3.992  0.00  0.00    -0.048 A 
HETATM   22  C   UNK N   1      19.629  16.523   4.440  0.00  0.00     0.009 A 
HETATM   23  C   UNK N   1      19.598  15.952   5.673  0.00  0.00     0.017 A 
HETATM   24  C   UNK N   1      20.678  16.036   6.538  0.00  0.00     0.032 A 
HETATM   25  C   UNK N   1      21.798  16.807   6.176  0.00  0.00     0.017 A 
HETATM   26  C   UNK N   1      21.843  17.369   4.881  0.00  0.00     0.009 A 
BRANCH  24  27
HETATM   27  C   UNK N   1      20.506  15.324   7.803  0.00  0.00     0.252 C 
HETATM   28  N   UNK N   1      21.566  14.553   8.183  0.00  0.00    -0.343 N 
HETATM   29  H   UNK N   1      22.460  14.934   8.029  0.00  0.00     0.163 HD
HETATM   30  O   UNK N   1      19.458  15.329   8.417  0.00  0.00    -0.268 OA
BRANCH  28  31
HETATM   31  C   UNK N   1      21.523  13.253   8.780  0.00  0.00     0.183 C 
BRANCH  31  32
HETATM   32  C   UNK N   1      22.602  13.298   9.876  0.00  0.00     0.046 C 
BRANCH  32  33
HETATM   33  C   UNK N   1      22.406  12.377  11.064  0.00  0.00     0.112 C 
BRANCH  33  34
HETATM   34  C   UNK N   1      23.674  12.171  11.816  0.00  0.00     0.139 C 
HETATM   35  O   UNK N   1      24.707  11.974  11.202  0.00  0.00    -0.650 OA
BRANCH  34  36
HETATM   36  O   UNK N   1      23.686  12.200  13.163  0.00  0.00    -0.776 OA
HETATM   37  H   UNK N   1      24.465  12.232  13.683  0.00  0.00     0.167 HD
ENDBRANCH  34  36
ENDBRANCH  33  34
ENDBRANCH  32  33
ENDBRANCH  31  32
BRANCH  31  38
HETATM   38  C   UNK N   1      21.680  12.130   7.795  0.00  0.00     0.163 C 
HETATM   39  O   UNK N   1      22.736  11.522   7.727  0.00  0.00    -0.648 OA
BRANCH  38  40
HETATM   40  O   UNK N   1      20.705  11.872   6.904  0.00  0.00    -0.775 OA
HETATM   41  H   UNK N   1      20.595  11.808   5.976  0.00  0.00     0.167 HD
ENDBRANCH  38  40
ENDBRANCH  31  38
ENDBRANCH  28  31
ENDBRANCH  24  27
ENDBRANCH   1  21
BRANCH   1  42
HETATM   42  C   UNK N   1      20.162  18.827   2.026  0.00  0.00     0.268 C 
BRANCH  42  43
HETATM   43  C   UNK N   1      20.831  20.035   2.672  0.00  0.00     0.445 C 
HETATM   44  F   UNK N   1      22.198  19.833   2.745  0.00  0.00    -0.166 F 
HETATM   45  F   UNK N   1      20.365  20.317   3.940  0.00  0.00    -0.166 F 
HETATM   46  F   UNK N   1      20.604  21.147   1.877  0.00  0.00    -0.166 F 
ENDBRANCH  42  43
BRANCH  42  47
HETATM   47  O   UNK N   1      20.308  18.957   0.693  0.00  0.00    -0.358 OA
HETATM   48  H   UNK N   1      19.713  19.406   0.126  0.00  0.00     0.213 HD
ENDBRANCH  42  47
BRANCH  42  49
HETATM   49  O   UNK N   1      18.848  18.804   2.341  0.00  0.00    -0.358 OA
HETATM   50  H   UNK N   1      18.037  18.909   1.884  0.00  0.00     0.213 HD
ENDBRANCH  42  49
ENDBRANCH   1  42
TORSDOF 19
ENDMDL
MODEL 4
REMARK VINA RESULT:      -6.7     11.676     13.609
REMARK  19 active torsions:
REMARK  status: ('A' for Active; 'I' for Inactive)
REMARK    1  A    between atoms: C_2  and  C_1 
REMARK    2  A    between atoms: C_3  and  C_1 
REMARK    3  A    between atoms: C_12  and  C_2 
REMARK    4  A    between atoms: C_13  and  C_3 
REMARK    5  A    between atoms: C_9  and  C_8 
REMARK    6  A    between atoms: C_14  and  C_8 
REMARK    7  A    between atoms: C_15  and  C_9 
REMARK    8  A    between atoms: C_13  and  C_10 
REMARK    9  A    between atoms: C_17  and  C_11 
REMARK   10  A    between atoms: C_21  and  C_13 
REMARK   11  A    between atoms: C_19  and  C_14 
REMARK   12  A    between atoms: C_14  and  N_28 
REMARK   13  A    between atoms: O_33  and  C_15 
REMARK   14  A    between atoms: C_16  and  N_26 
REMARK       I    between atoms: N_28  and  C_17 
REMARK   15  A    between atoms: O_35  and  C_18 
REMARK   16  A    between atoms: O_37  and  C_19 
REMARK       I    between atoms: C_20  and  N_27 
REMARK   17  A    between atoms: C_22  and  C_21 
REMARK   18  A    between atoms: O_38  and  C_21 
REMARK   19  A    between atoms: O_39  and  C_21 
ROOT
HETATM    1  C   UNK N   1      26.486  18.044   4.288  0.00  0.00     0.090 C 
ENDROOT
BRANCH   1   2
HETATM    2  C   UNK N   1      25.493  17.073   4.929  0.00  0.00     0.015 C 
BRANCH   2   3
HETATM    3  C   UNK N   1      24.807  16.217   3.895  0.00  0.00     0.002 C 
BRANCH   3   4
HETATM    4  C   UNK N   1      23.378  16.043   4.361  0.00  0.00     0.017 C 
BRANCH   4   5
HETATM    5  C   UNK N   1      22.375  16.992   3.693  0.00  0.00     0.102 C 
HETATM    6  C   UNK N   1      21.460  17.733   4.656  0.00  0.00     0.184 C 
HETATM    7  N   UNK N   1      20.776  18.790   3.902  0.00  0.00    -0.365 N 
HETATM    8  C   UNK N   1      20.097  18.353   2.662  0.00  0.00     0.280 C 
HETATM    9  H   UNK N   1      20.770  19.762   4.212  0.00  0.00     0.159 HD
HETATM   10  N   UNK N   1      20.365  19.319   1.611  0.00  0.00    -0.395 N 
HETATM   11  N   UNK N   1      20.483  17.031   2.191  0.00  0.00    -0.337 N 
HETATM   12  H   UNK N   1      20.650  20.275   1.821  0.00  0.00     0.153 HD
HETATM   13  H   UNK N   1      20.267  19.032   0.637  0.00  0.00     0.153 HD
HETATM   14  C   UNK N   1      21.477  16.366   2.664  0.00  0.00     0.122 C 
ATOM     15  HN  UNK N   1      19.934  16.607   1.442  1.00  0.00     0.165 HD
BRANCH   6  16
HETATM   16  N   UNK N   1      22.240  18.348   5.717  0.00  0.00    -0.410 N 
HETATM   17  H   UNK N   1      21.920  18.596   6.654  0.00  0.00     0.151 HD
HETATM   18  H   UNK N   1      23.216  18.554   5.502  0.00  0.00     0.151 HD
ENDBRANCH   6  16
BRANCH  14  19
HETATM   19  O   UNK N   1      21.687  15.117   2.230  0.00  0.00    -0.349 OA
HETATM   20  H   UNK N   1      21.788  14.402   2.827  0.00  0.00     0.219 HD
ENDBRANCH  14  19
ENDBRANCH   4   5
ENDBRANCH   3   4
ENDBRANCH   2   3
ENDBRANCH   1   2
BRANCH   1  21
HETATM   21  C   UNK N   1      27.831  17.695   4.916  0.00  0.00    -0.048 A 
HETATM   22  C   UNK N   1      27.864  17.396   6.267  0.00  0.00     0.009 A 
HETATM   23  C   UNK N   1      28.947  16.796   6.828  0.00  0.00     0.017 A 
HETATM   24  C   UNK N   1      30.068  16.477   6.077  0.00  0.00     0.032 A 
HETATM   25  C   UNK N   1      30.131  16.864   4.726  0.00  0.00     0.017 A 
HETATM   26  C   UNK N   1      28.991  17.454   4.137  0.00  0.00     0.009 A 
BRANCH  24  27
HETATM   27  C   UNK N   1      31.125  15.788   6.816  0.00  0.00     0.252 C 
HETATM   28  N   UNK N   1      31.893  16.589   7.611  0.00  0.00    -0.343 N 
HETATM   29  H   UNK N   1      31.420  17.295   8.107  0.00  0.00     0.163 HD
HETATM   30  O   UNK N   1      31.374  14.611   6.652  0.00  0.00    -0.268 OA
BRANCH  28  31
HETATM   31  C   UNK N   1      33.309  16.518   7.802  0.00  0.00     0.183 C 
BRANCH  31  32
HETATM   32  C   UNK N   1      33.487  16.454   9.330  0.00  0.00     0.046 C 
BRANCH  32  33
HETATM   33  C   UNK N   1      34.653  15.635   9.846  0.00  0.00     0.112 C 
BRANCH  33  34
HETATM   34  C   UNK N   1      35.740  16.501  10.382  0.00  0.00     0.139 C 
HETATM   35  O   UNK N   1      35.615  17.710  10.338  0.00  0.00    -0.650 OA
BRANCH  34  36
HETATM   36  O   UNK N   1      36.853  15.956  10.910  0.00  0.00    -0.776 OA
HETATM   37  H   UNK N   1      37.356  15.281  10.498  0.00  0.00     0.167 HD
ENDBRANCH  34  36
ENDBRANCH  33  34
ENDBRANCH  32  33
ENDBRANCH  31  32
BRANCH  31  38
HETATM   38  C   UNK N   1      34.066  17.628   7.132  0.00  0.00     0.163 C 
HETATM   39  O   UNK N   1      34.271  17.589   5.930  0.00  0.00    -0.648 OA
BRANCH  38  40
HETATM   40  O   UNK N   1      34.626  18.605   7.869  0.00  0.00    -0.775 OA
HETATM   41  H   UNK N   1      34.483  19.509   8.069  0.00  0.00     0.167 HD
ENDBRANCH  38  40
ENDBRANCH  31  38
ENDBRANCH  28  31
ENDBRANCH  24  27
ENDBRANCH   1  21
BRANCH   1  42
HETATM   42  C   UNK N   1      25.948  19.484   4.563  0.00  0.00     0.268 C 
BRANCH  42  43
HETATM   43  C   UNK N   1      25.327  20.060   3.296  0.00  0.00     0.445 C 
HETATM   44  F   UNK N   1      26.161  21.026   2.760  0.00  0.00    -0.166 F 
HETATM   45  F   UNK N   1      24.082  20.622   3.492  0.00  0.00    -0.166 F 
HETATM   46  F   UNK N   1      25.194  19.043   2.364  0.00  0.00    -0.166 F 
ENDBRANCH  42  43
BRANCH  42  47
HETATM   47  O   UNK N   1      24.977  19.435   5.495  0.00  0.00    -0.358 OA
HETATM   48  H   UNK N   1      25.106  19.552   6.415  0.00  0.00     0.213 HD
ENDBRANCH  42  47
BRANCH  42  49
HETATM   49  O   UNK N   1      26.950  20.285   4.990  0.00  0.00    -0.358 OA
HETATM   50  H   UNK N   1      27.822  20.170   5.313  0.00  0.00     0.213 HD
ENDBRANCH  42  49
ENDBRANCH   1  42
TORSDOF 19
ENDMDL
MODEL 5
REMARK VINA RESULT:      -6.6     14.410     16.099
REMARK  19 active torsions:
REMARK  status: ('A' for Active; 'I' for Inactive)
REMARK    1  A    between atoms: C_2  and  C_1 
REMARK    2  A    between atoms: C_3  and  C_1 
REMARK    3  A    between atoms: C_12  and  C_2 
REMARK    4  A    between atoms: C_13  and  C_3 
REMARK    5  A    between atoms: C_9  and  C_8 
REMARK    6  A    between atoms: C_14  and  C_8 
REMARK    7  A    between atoms: C_15  and  C_9 
REMARK    8  A    between atoms: C_13  and  C_10 
REMARK    9  A    between atoms: C_17  and  C_11 
REMARK   10  A    between atoms: C_21  and  C_13 
REMARK   11  A    between atoms: C_19  and  C_14 
REMARK   12  A    between atoms: C_14  and  N_28 
REMARK   13  A    between atoms: O_33  and  C_15 
REMARK   14  A    between atoms: C_16  and  N_26 
REMARK       I    between atoms: N_28  and  C_17 
REMARK   15  A    between atoms: O_35  and  C_18 
REMARK   16  A    between atoms: O_37  and  C_19 
REMARK       I    between atoms: C_20  and  N_27 
REMARK   17  A    between atoms: C_22  and  C_21 
REMARK   18  A    between atoms: O_38  and  C_21 
REMARK   19  A    between atoms: O_39  and  C_21 
ROOT
HETATM    1  C   UNK N   1      22.699  14.024   8.039  0.00  0.00     0.090 C 
ENDROOT
BRANCH   1   2
HETATM    2  C   UNK N   1      21.446  14.623   7.399  0.00  0.00     0.015 C 
BRANCH   2   3
HETATM    3  C   UNK N   1      20.750  15.580   8.333  0.00  0.00     0.002 C 
BRANCH   3   4
HETATM    4  C   UNK N   1      20.131  16.654   7.465  0.00  0.00     0.017 C 
BRANCH   4   5
HETATM    5  C   UNK N   1      20.424  16.502   5.967  0.00  0.00     0.102 C 
HETATM    6  C   UNK N   1      21.113  17.699   5.328  0.00  0.00     0.184 C 
HETATM    7  N   UNK N   1      21.573  17.292   3.996  0.00  0.00    -0.365 N 
HETATM    8  C   UNK N   1      20.549  16.669   3.128  0.00  0.00     0.280 C 
HETATM    9  H   UNK N   1      22.536  17.429   3.688  0.00  0.00     0.159 HD
HETATM   10  N   UNK N   1      21.133  15.520   2.457  0.00  0.00    -0.395 N 
HETATM   11  N   UNK N   1      19.343  16.241   3.822  0.00  0.00    -0.337 N 
HETATM   12  H   UNK N   1      22.142  15.422   2.342  0.00  0.00     0.153 HD
HETATM   13  H   UNK N   1      20.518  14.793   2.092  0.00  0.00     0.153 HD
HETATM   14  C   UNK N   1      19.233  16.196   5.103  0.00  0.00     0.122 C 
ATOM     15  HN  UNK N   1      18.539  15.959   3.261  1.00  0.00     0.165 HD
BRANCH   6  16
HETATM   16  N   UNK N   1      22.266  18.095   6.119  0.00  0.00    -0.410 N 
HETATM   17  H   UNK N   1      22.376  18.950   6.664  0.00  0.00     0.151 HD
HETATM   18  H   UNK N   1      23.053  17.445   6.131  0.00  0.00     0.151 HD
ENDBRANCH   6  16
BRANCH  14  19
HETATM   19  O   UNK N   1      18.049  15.883   5.641  0.00  0.00    -0.349 OA
HETATM   20  H   UNK N   1      17.295  16.427   5.518  0.00  0.00     0.219 HD
ENDBRANCH  14  19
ENDBRANCH   4   5
ENDBRANCH   3   4
ENDBRANCH   2   3
ENDBRANCH   1   2
BRANCH   1  21
HETATM   21  C   UNK N   1      23.838  14.412   7.101  0.00  0.00    -0.048 A 
HETATM   22  C   UNK N   1      23.524  14.748   5.795  0.00  0.00     0.009 A 
HETATM   23  C   UNK N   1      24.424  15.381   4.997  0.00  0.00     0.017 A 
HETATM   24  C   UNK N   1      25.695  15.699   5.449  0.00  0.00     0.032 A 
HETATM   25  C   UNK N   1      26.103  15.277   6.728  0.00  0.00     0.017 A 
HETATM   26  C   UNK N   1      25.155  14.651   7.568  0.00  0.00     0.009 A 
BRANCH  24  27
HETATM   27  C   UNK N   1      26.523  16.425   4.488  0.00  0.00     0.252 C 
HETATM   28  N   UNK N   1      26.772  17.729   4.805  0.00  0.00    -0.343 N 
HETATM   29  H   UNK N   1      26.956  17.920   5.752  0.00  0.00     0.163 HD
HETATM   30  O   UNK N   1      26.873  15.940   3.431  0.00  0.00    -0.268 OA
BRANCH  28  31
HETATM   31  C   UNK N   1      26.794  18.849   3.914  0.00  0.00     0.183 C 
BRANCH  31  32
HETATM   32  C   UNK N   1      27.692  19.881   4.618  0.00  0.00     0.046 C 
BRANCH  32  33
HETATM   33  C   UNK N   1      26.992  21.029   5.318  0.00  0.00     0.112 C 
BRANCH  33  34
HETATM   34  C   UNK N   1      26.790  20.750   6.766  0.00  0.00     0.139 C 
HETATM   35  O   UNK N   1      26.197  21.562   7.452  0.00  0.00    -0.650 OA
BRANCH  34  36
HETATM   36  O   UNK N   1      27.258  19.615   7.319  0.00  0.00    -0.776 OA
HETATM   37  H   UNK N   1      27.011  18.754   7.043  0.00  0.00     0.167 HD
ENDBRANCH  34  36
ENDBRANCH  33  34
ENDBRANCH  32  33
ENDBRANCH  31  32
BRANCH  31  38
HETATM   38  C   UNK N   1      25.429  19.356   3.548  0.00  0.00     0.163 C 
HETATM   39  O   UNK N   1      24.445  18.947   4.142  0.00  0.00    -0.648 OA
BRANCH  38  40
HETATM   40  O   UNK N   1      25.273  20.169   2.486  0.00  0.00    -0.775 OA
HETATM   41  H   UNK N   1      24.780  20.204   1.691  0.00  0.00     0.167 HD
ENDBRANCH  38  40
ENDBRANCH  31  38
ENDBRANCH  28  31
ENDBRANCH  24  27
ENDBRANCH   1  21
BRANCH   1  42
HETATM   42  C   UNK N   1      22.432  12.494   8.204  0.00  0.00     0.268 C 
BRANCH  42  43
HETATM   43  C   UNK N   1      22.471  12.114   9.679  0.00  0.00     0.445 C 
HETATM   44  F   UNK N   1      21.187  12.111  10.198  0.00  0.00    -0.166 F 
HETATM   45  F   UNK N   1      23.249  12.954  10.450  0.00  0.00    -0.166 F 
HETATM   46  F   UNK N   1      22.983  10.832   9.795  0.00  0.00    -0.166 F 
ENDBRANCH  42  43
BRANCH  42  47
HETATM   47  O   UNK N   1      21.200  12.198   7.749  0.00  0.00    -0.358 OA
HETATM   48  H   UNK N   1      20.517  11.807   8.256  0.00  0.00     0.213 HD
ENDBRANCH  42  47
BRANCH  42  49
HETATM   49  O   UNK N   1      23.355  11.781   7.520  0.00  0.00    -0.358 OA
HETATM   50  H   UNK N   1      23.359  11.204   6.781  0.00  0.00     0.213 HD
ENDBRANCH  42  49
ENDBRANCH   1  42
TORSDOF 19
ENDMDL
MODEL 6
REMARK VINA RESULT:      -6.5      1.340      1.883
REMARK  19 active torsions:
REMARK  status: ('A' for Active; 'I' for Inactive)
REMARK    1  A    between atoms: C_2  and  C_1 
REMARK    2  A    between atoms: C_3  and  C_1 
REMARK    3  A    between atoms: C_12  and  C_2 
REMARK    4  A    between atoms: C_13  and  C_3 
REMARK    5  A    between atoms: C_9  and  C_8 
REMARK    6  A    between atoms: C_14  and  C_8 
REMARK    7  A    between atoms: C_15  and  C_9 
REMARK    8  A    between atoms: C_13  and  C_10 
REMARK    9  A    between atoms: C_17  and  C_11 
REMARK   10  A    between atoms: C_21  and  C_13 
REMARK   11  A    between atoms: C_19  and  C_14 
REMARK   12  A    between atoms: C_14  and  N_28 
REMARK   13  A    between atoms: O_33  and  C_15 
REMARK   14  A    between atoms: C_16  and  N_26 
REMARK       I    between atoms: N_28  and  C_17 
REMARK   15  A    between atoms: O_35  and  C_18 
REMARK   16  A    between atoms: O_37  and  C_19 
REMARK       I    between atoms: C_20  and  N_27 
REMARK   17  A    between atoms: C_22  and  C_21 
REMARK   18  A    between atoms: O_38  and  C_21 
REMARK   19  A    between atoms: O_39  and  C_21 
ROOT
HETATM    1  C   UNK N   1      27.380  27.917  -4.582  0.00  0.00     0.090 C 
ENDROOT
BRANCH   1   2
HETATM    2  C   UNK N   1      26.088  27.490  -5.280  0.00  0.00     0.015 C 
BRANCH   2   3
HETATM    3  C   UNK N   1      26.332  27.118  -6.720  0.00  0.00     0.002 C 
BRANCH   3   4
HETATM    4  C   UNK N   1      25.493  25.889  -6.995  0.00  0.00     0.017 C 
BRANCH   4   5
HETATM    5  C   UNK N   1      26.202  24.814  -7.828  0.00  0.00     0.102 C 
HETATM    6  C   UNK N   1      25.615  24.594  -9.215  0.00  0.00     0.184 C 
HETATM    7  N   UNK N   1      26.558  23.764  -9.974  0.00  0.00    -0.365 N 
HETATM    8  C   UNK N   1      26.986  22.513  -9.309  0.00  0.00     0.280 C 
HETATM    9  H   UNK N   1      26.896  24.032 -10.898  0.00  0.00     0.159 HD
HETATM   10  N   UNK N   1      28.417  22.345  -9.496  0.00  0.00    -0.395 N 
HETATM   11  N   UNK N   1      26.690  22.449  -7.885  0.00  0.00    -0.337 N 
HETATM   12  H   UNK N   1      28.918  22.812 -10.251  0.00  0.00     0.153 HD
HETATM   13  H   UNK N   1      28.934  21.744  -8.854  0.00  0.00     0.153 HD
HETATM   14  C   UNK N   1      26.289  23.455  -7.193  0.00  0.00     0.122 C 
ATOM     15  HN  UNK N   1      26.808  21.554  -7.409  1.00  0.00     0.165 HD
BRANCH   6  16
HETATM   16  N   UNK N   1      25.457  25.866  -9.901  0.00  0.00    -0.410 N 
HETATM   17  H   UNK N   1      25.159  26.753  -9.494  0.00  0.00     0.151 HD
HETATM   18  H   UNK N   1      25.670  25.872 -10.899  0.00  0.00     0.151 HD
ENDBRANCH   6  16
BRANCH  14  19
HETATM   19  O   UNK N   1      25.949  23.267  -5.912  0.00  0.00    -0.349 OA
HETATM   20  H   UNK N   1      26.495  22.778  -5.327  0.00  0.00     0.219 HD
ENDBRANCH  14  19
ENDBRANCH   4   5
ENDBRANCH   3   4
ENDBRANCH   2   3
ENDBRANCH   1   2
BRANCH   1  21
HETATM   21  C   UNK N   1      28.170  26.626  -4.403  0.00  0.00    -0.048 A 
HETATM   22  C   UNK N   1      29.547  26.678  -4.529  0.00  0.00     0.009 A 
HETATM   23  C   UNK N   1      30.332  25.657  -4.097  0.00  0.00     0.017 A 
HETATM   24  C   UNK N   1      29.788  24.514  -3.532  0.00  0.00     0.032 A 
HETATM   25  C   UNK N   1      28.390  24.361  -3.486  0.00  0.00     0.017 A 
HETATM   26  C   UNK N   1      27.577  25.439  -3.902  0.00  0.00     0.009 A 
BRANCH  24  27
HETATM   27  C   UNK N   1      30.768  23.532  -3.071  0.00  0.00     0.252 C 
HETATM   28  N   UNK N   1      31.693  23.155  -4.001  0.00  0.00    -0.343 N 
HETATM   29  H   UNK N   1      32.048  23.870  -4.578  0.00  0.00     0.163 HD
HETATM   30  O   UNK N   1      30.699  23.005  -1.979  0.00  0.00    -0.268 OA
BRANCH  28  31
HETATM   31  C   UNK N   1      32.205  21.839  -4.232  0.00  0.00     0.183 C 
BRANCH  31  32
HETATM   32  C   UNK N   1      30.950  20.959  -4.374  0.00  0.00     0.046 C 
BRANCH  32  33
HETATM   33  C   UNK N   1      30.728  20.300  -5.720  0.00  0.00     0.112 C 
BRANCH  33  34
HETATM   34  C   UNK N   1      29.662  20.985  -6.500  0.00  0.00     0.139 C 
HETATM   35  O   UNK N   1      29.460  22.172  -6.320  0.00  0.00    -0.650 OA
BRANCH  34  36
HETATM   36  O   UNK N   1      28.922  20.305  -7.397  0.00  0.00    -0.776 OA
HETATM   37  H   UNK N   1      28.429  19.534  -7.196  0.00  0.00     0.167 HD
ENDBRANCH  34  36
ENDBRANCH  33  34
ENDBRANCH  32  33
ENDBRANCH  31  32
BRANCH  31  38
HETATM   38  C   UNK N   1      33.177  21.376  -3.185  0.00  0.00     0.163 C 
HETATM   39  O   UNK N   1      34.331  21.125  -3.492  0.00  0.00    -0.648 OA
BRANCH  38  40
HETATM   40  O   UNK N   1      32.751  21.118  -1.935  0.00  0.00    -0.775 OA
HETATM   41  H   UNK N   1      32.071  20.637  -1.505  0.00  0.00     0.167 HD
ENDBRANCH  38  40
ENDBRANCH  31  38
ENDBRANCH  28  31
ENDBRANCH  24  27
ENDBRANCH   1  21
BRANCH   1  42
HETATM   42  C   UNK N   1      26.959  28.657  -3.272  0.00  0.00     0.268 C 
BRANCH  42  43
HETATM   43  C   UNK N   1      28.087  29.569  -2.803  0.00  0.00     0.445 C 
HETATM   44  F   UNK N   1      27.571  30.594  -2.028  0.00  0.00    -0.166 F 
HETATM   45  F   UNK N   1      28.815  30.128  -3.834  0.00  0.00    -0.166 F 
HETATM   46  F   UNK N   1      28.957  28.832  -2.017  0.00  0.00    -0.166 F 
ENDBRANCH  42  43
BRANCH  42  47
HETATM   47  O   UNK N   1      25.891  29.439  -3.517  0.00  0.00    -0.358 OA
HETATM   48  H   UNK N   1      25.425  29.934  -2.872  0.00  0.00     0.213 HD
ENDBRANCH  42  47
BRANCH  42  49
HETATM   49  O   UNK N   1      26.658  27.761  -2.305  0.00  0.00    -0.358 OA
HETATM   50  H   UNK N   1      26.553  27.775  -1.374  0.00  0.00     0.213 HD
ENDBRANCH  42  49
ENDBRANCH   1  42
TORSDOF 19
ENDMDL
MODEL 7
REMARK VINA RESULT:      -6.5     14.508     17.882
REMARK  19 active torsions:
REMARK  status: ('A' for Active; 'I' for Inactive)
REMARK    1  A    between atoms: C_2  and  C_1 
REMARK    2  A    between atoms: C_3  and  C_1 
REMARK    3  A    between atoms: C_12  and  C_2 
REMARK    4  A    between atoms: C_13  and  C_3 
REMARK    5  A    between atoms: C_9  and  C_8 
REMARK    6  A    between atoms: C_14  and  C_8 
REMARK    7  A    between atoms: C_15  and  C_9 
REMARK    8  A    between atoms: C_13  and  C_10 
REMARK    9  A    between atoms: C_17  and  C_11 
REMARK   10  A    between atoms: C_21  and  C_13 
REMARK   11  A    between atoms: C_19  and  C_14 
REMARK   12  A    between atoms: C_14  and  N_28 
REMARK   13  A    between atoms: O_33  and  C_15 
REMARK   14  A    between atoms: C_16  and  N_26 
REMARK       I    between atoms: N_28  and  C_17 
REMARK   15  A    between atoms: O_35  and  C_18 
REMARK   16  A    between atoms: O_37  and  C_19 
REMARK       I    between atoms: C_20  and  N_27 
REMARK   17  A    between atoms: C_22  and  C_21 
REMARK   18  A    between atoms: O_38  and  C_21 
REMARK   19  A    between atoms: O_39  and  C_21 
ROOT
HETATM    1  C   UNK N   1      33.144  16.528   7.776  0.00  0.00     0.090 C 
ENDROOT
BRANCH   1   2
HETATM    2  C   UNK N   1      32.472  17.886   7.982  0.00  0.00     0.015 C 
BRANCH   2   3
HETATM    3  C   UNK N   1      31.172  17.755   8.732  0.00  0.00     0.002 C 
BRANCH   3   4
HETATM    4  C   UNK N   1      30.164  17.198   7.750  0.00  0.00     0.017 C 
BRANCH   4   5
HETATM    5  C   UNK N   1      29.221  18.248   7.149  0.00  0.00     0.102 C 
HETATM    6  C   UNK N   1      27.804  18.222   7.703  0.00  0.00     0.184 C 
HETATM    7  N   UNK N   1      27.124  19.442   7.251  0.00  0.00    -0.365 N 
HETATM    8  C   UNK N   1      27.184  19.706   5.796  0.00  0.00     0.280 C 
HETATM    9  H   UNK N   1      26.643  20.067   7.897  0.00  0.00     0.159 HD
HETATM   10  N   UNK N   1      27.459  21.116   5.582  0.00  0.00    -0.395 N 
HETATM   11  N   UNK N   1      28.178  18.922   5.077  0.00  0.00    -0.337 N 
HETATM   12  H   UNK N   1      27.268  21.814   6.301  0.00  0.00     0.153 HD
HETATM   13  H   UNK N   1      27.854  21.415   4.691  0.00  0.00     0.153 HD
HETATM   14  C   UNK N   1      29.084  18.215   5.653  0.00  0.00     0.122 C 
ATOM     15  HN  UNK N   1      28.156  18.936   4.057  1.00  0.00     0.165 HD
BRANCH   6  16
HETATM   16  N   UNK N   1      27.832  18.216   9.156  0.00  0.00    -0.410 N 
HETATM   17  H   UNK N   1      27.114  17.858   9.785  0.00  0.00     0.151 HD
HETATM   18  H   UNK N   1      28.663  18.613   9.595  0.00  0.00     0.151 HD
ENDBRANCH   6  16
BRANCH  14  19
HETATM   19  O   UNK N   1      29.887  17.453   4.901  0.00  0.00    -0.349 OA
HETATM   20  H   UNK N   1      29.608  16.620   4.575  0.00  0.00     0.219 HD
ENDBRANCH  14  19
ENDBRANCH   4   5
ENDBRANCH   3   4
ENDBRANCH   2   3
ENDBRANCH   1   2
BRANCH   1  21
HETATM   21  C   UNK N   1      33.772  16.197   9.126  0.00  0.00    -0.048 A 
HETATM   22  C   UNK N   1      33.546  14.941   9.662  0.00  0.00     0.009 A 
HETATM   23  C   UNK N   1      34.297  14.471  10.692  0.00  0.00     0.017 A 
HETATM   24  C   UNK N   1      35.305  15.234  11.261  0.00  0.00     0.032 A 
HETATM   25  C   UNK N   1      35.498  16.559  10.831  0.00  0.00     0.017 A 
HETATM   26  C   UNK N   1      34.741  17.033   9.736  0.00  0.00     0.009 A 
BRANCH  24  27
HETATM   27  C   UNK N   1      36.054  14.565  12.324  0.00  0.00     0.252 C 
HETATM   28  N   UNK N   1      36.286  13.235  12.122  0.00  0.00    -0.343 N 
HETATM   29  H   UNK N   1      36.520  12.968  11.204  0.00  0.00     0.163 HD
HETATM   30  O   UNK N   1      36.353  15.122  13.360  0.00  0.00    -0.268 OA
BRANCH  28  31
HETATM   31  C   UNK N   1      36.224  12.187  13.093  0.00  0.00     0.183 C 
BRANCH  31  32
HETATM   32  C   UNK N   1      37.059  11.047  12.482  0.00  0.00     0.046 C 
BRANCH  32  33
HETATM   33  C   UNK N   1      37.439  11.188  11.022  0.00  0.00     0.112 C 
BRANCH  33  34
HETATM   34  C   UNK N   1      36.452  10.523  10.128  0.00  0.00     0.139 C 
HETATM   35  O   UNK N   1      36.766   9.499   9.550  0.00  0.00    -0.650 OA
BRANCH  34  36
HETATM   36  O   UNK N   1      35.222  11.045   9.956  0.00  0.00    -0.776 OA
HETATM   37  H   UNK N   1      34.467  10.545   9.713  0.00  0.00     0.167 HD
ENDBRANCH  34  36
ENDBRANCH  33  34
ENDBRANCH  32  33
ENDBRANCH  31  32
BRANCH  31  38
HETATM   38  C   UNK N   1      34.825  11.799  13.476  0.00  0.00     0.163 C 
HETATM   39  O   UNK N   1      34.208  10.994  12.798  0.00  0.00    -0.648 OA
BRANCH  38  40
HETATM   40  O   UNK N   1      34.204  12.424  14.493  0.00  0.00    -0.775 OA
HETATM   41  H   UNK N   1      34.048  12.301  15.408  0.00  0.00     0.167 HD
ENDBRANCH  38  40
ENDBRANCH  31  38
ENDBRANCH  28  31
ENDBRANCH  24  27
ENDBRANCH   1  21
BRANCH   1  42
HETATM   42  C   UNK N   1      34.133  16.693   6.578  0.00  0.00     0.268 C 
BRANCH  42  43
HETATM   43  C   UNK N   1      33.415  16.397   5.266  0.00  0.00     0.445 C 
HETATM   44  F   UNK N   1      34.220  15.615   4.455  0.00  0.00    -0.166 F 
HETATM   45  F   UNK N   1      33.057  17.528   4.561  0.00  0.00    -0.166 F 
HETATM   46  F   UNK N   1      32.261  15.683   5.541  0.00  0.00    -0.166 F 
ENDBRANCH  42  43
BRANCH  42  47
HETATM   47  O   UNK N   1      34.563  17.967   6.518  0.00  0.00    -0.358 OA
HETATM   48  H   UNK N   1      35.380  18.277   6.855  0.00  0.00     0.213 HD
ENDBRANCH  42  47
BRANCH  42  49
HETATM   49  O   UNK N   1      35.188  15.860   6.724  0.00  0.00    -0.358 OA
HETATM   50  H   UNK N   1      35.480  15.058   6.338  0.00  0.00     0.213 HD
ENDBRANCH  42  49
ENDBRANCH   1  42
TORSDOF 19
ENDMDL
MODEL 8
REMARK VINA RESULT:      -6.4      1.703      3.062
REMARK  19 active torsions:
REMARK  status: ('A' for Active; 'I' for Inactive)
REMARK    1  A    between atoms: C_2  and  C_1 
REMARK    2  A    between atoms: C_3  and  C_1 
REMARK    3  A    between atoms: C_12  and  C_2 
REMARK    4  A    between atoms: C_13  and  C_3 
REMARK    5  A    between atoms: C_9  and  C_8 
REMARK    6  A    between atoms: C_14  and  C_8 
REMARK    7  A    between atoms: C_15  and  C_9 
REMARK    8  A    between atoms: C_13  and  C_10 
REMARK    9  A    between atoms: C_17  and  C_11 
REMARK   10  A    between atoms: C_21  and  C_13 
REMARK   11  A    between atoms: C_19  and  C_14 
REMARK   12  A    between atoms: C_14  and  N_28 
REMARK   13  A    between atoms: O_33  and  C_15 
REMARK   14  A    between atoms: C_16  and  N_26 
REMARK       I    between atoms: N_28  and  C_17 
REMARK   15  A    between atoms: O_35  and  C_18 
REMARK   16  A    between atoms: O_37  and  C_19 
REMARK       I    between atoms: C_20  and  N_27 
REMARK   17  A    between atoms: C_22  and  C_21 
REMARK   18  A    between atoms: O_38  and  C_21 
REMARK   19  A    between atoms: O_39  and  C_21 
ROOT
HETATM    1  C   UNK N   1      27.191  26.255  -4.459  0.00  0.00     0.090 C 
ENDROOT
BRANCH   1   2
HETATM    2  C   UNK N   1      26.045  25.243  -4.431  0.00  0.00     0.015 C 
BRANCH   2   3
HETATM    3  C   UNK N   1      25.612  24.856  -5.822  0.00  0.00     0.002 C 
BRANCH   3   4
HETATM    4  C   UNK N   1      25.641  23.344  -5.875  0.00  0.00     0.017 C 
BRANCH   4   5
HETATM    5  C   UNK N   1      26.015  22.767  -7.246  0.00  0.00     0.102 C 
HETATM    6  C   UNK N   1      25.233  21.524  -7.648  0.00  0.00     0.184 C 
HETATM    7  N   UNK N   1      25.494  21.272  -9.070  0.00  0.00    -0.365 N 
HETATM    8  C   UNK N   1      26.922  21.223  -9.459  0.00  0.00     0.280 C 
HETATM    9  H   UNK N   1      24.742  21.139  -9.746  0.00  0.00     0.159 HD
HETATM   10  N   UNK N   1      27.097  21.952 -10.703  0.00  0.00    -0.395 N 
HETATM   11  N   UNK N   1      27.841  21.762  -8.468  0.00  0.00    -0.337 N 
HETATM   12  H   UNK N   1      26.319  22.124 -11.339  0.00  0.00     0.153 HD
HETATM   13  H   UNK N   1      28.024  22.302 -10.946  0.00  0.00     0.153 HD
HETATM   14  C   UNK N   1      27.466  22.424  -7.431  0.00  0.00     0.122 C 
ATOM     15  HN  UNK N   1      28.840  21.607  -8.603  1.00  0.00     0.165 HD
BRANCH   6  16
HETATM   16  N   UNK N   1      23.808  21.747  -7.469  0.00  0.00    -0.410 N 
HETATM   17  H   UNK N   1      23.053  21.427  -8.076  0.00  0.00     0.151 HD
HETATM   18  H   UNK N   1      23.533  22.282  -6.645  0.00  0.00     0.151 HD
ENDBRANCH   6  16
BRANCH  14  19
HETATM   19  O   UNK N   1      28.384  22.791  -6.529  0.00  0.00    -0.349 OA
HETATM   20  H   UNK N   1      28.956  22.164  -6.131  0.00  0.00     0.219 HD
ENDBRANCH  14  19
ENDBRANCH   4   5
ENDBRANCH   3   4
ENDBRANCH   2   3
ENDBRANCH   1   2
BRANCH   1  21
HETATM   21  C   UNK N   1      28.410  25.475  -3.976  0.00  0.00    -0.048 A 
HETATM   22  C   UNK N   1      28.200  24.288  -3.296  0.00  0.00     0.009 A 
HETATM   23  C   UNK N   1      29.211  23.401  -3.100  0.00  0.00     0.017 A 
HETATM   24  C   UNK N   1      30.496  23.657  -3.554  0.00  0.00     0.032 A 
HETATM   25  C   UNK N   1      30.788  24.898  -4.148  0.00  0.00     0.017 A 
HETATM   26  C   UNK N   1      29.728  25.802  -4.383  0.00  0.00     0.009 A 
BRANCH  24  27
HETATM   27  C   UNK N   1      31.456  22.582  -3.310  0.00  0.00     0.252 C 
HETATM   28  N   UNK N   1      32.115  22.132  -4.418  0.00  0.00    -0.343 N 
HETATM   29  H   UNK N   1      32.400  22.816  -5.065  0.00  0.00     0.163 HD
HETATM   30  O   UNK N   1      31.581  22.052  -2.225  0.00  0.00    -0.268 OA
BRANCH  28  31
HETATM   31  C   UNK N   1      32.438  20.776  -4.743  0.00  0.00     0.183 C 
BRANCH  31  32
HETATM   32  C   UNK N   1      33.970  20.771  -4.893  0.00  0.00     0.046 C 
BRANCH  32  33
HETATM   33  C   UNK N   1      34.724  19.692  -4.144  0.00  0.00     0.112 C 
BRANCH  33  34
HETATM   34  C   UNK N   1      35.385  18.735  -5.074  0.00  0.00     0.139 C 
HETATM   35  O   UNK N   1      36.515  18.354  -4.833  0.00  0.00    -0.650 OA
BRANCH  34  36
HETATM   36  O   UNK N   1      34.744  18.292  -6.173  0.00  0.00    -0.776 OA
HETATM   37  H   UNK N   1      34.421  18.848  -6.854  0.00  0.00     0.167 HD
ENDBRANCH  34  36
ENDBRANCH  33  34
ENDBRANCH  32  33
ENDBRANCH  31  32
BRANCH  31  38
HETATM   38  C   UNK N   1      31.693  20.247  -5.935  0.00  0.00     0.163 C 
HETATM   39  O   UNK N   1      32.286  19.617  -6.795  0.00  0.00    -0.648 OA
BRANCH  38  40
HETATM   40  O   UNK N   1      30.399  20.569  -6.120  0.00  0.00    -0.775 OA
HETATM   41  H   UNK N   1      29.551  20.199  -5.972  0.00  0.00     0.167 HD
ENDBRANCH  38  40
ENDBRANCH  31  38
ENDBRANCH  28  31
ENDBRANCH  24  27
ENDBRANCH   1  21
BRANCH   1  42
HETATM   42  C   UNK N   1      26.748  27.462  -3.572  0.00  0.00     0.268 C 
BRANCH  42  43
HETATM   43  C   UNK N   1      25.965  28.465  -4.411  0.00  0.00     0.445 C 
HETATM   44  F   UNK N   1      25.888  29.676  -3.744  0.00  0.00    -0.166 F 
HETATM   45  F   UNK N   1      24.683  28.056  -4.716  0.00  0.00    -0.166 F 
HETATM   46  F   UNK N   1      26.642  28.674  -5.601  0.00  0.00    -0.166 F 
ENDBRANCH  42  43
BRANCH  42  47
HETATM   47  O   UNK N   1      25.925  27.029  -2.598  0.00  0.00    -0.358 OA
HETATM   48  H   UNK N   1      25.691  26.135  -2.446  0.00  0.00     0.213 HD
ENDBRANCH  42  47
BRANCH  42  49
HETATM   49  O   UNK N   1      27.828  28.062  -3.024  0.00  0.00    -0.358 OA
HETATM   50  H   UNK N   1      28.039  28.913  -2.694  0.00  0.00     0.213 HD
ENDBRANCH  42  49
ENDBRANCH   1  42
TORSDOF 19
ENDMDL
MODEL 9
REMARK VINA RESULT:      -6.4     16.711     20.995
REMARK  19 active torsions:
REMARK  status: ('A' for Active; 'I' for Inactive)
REMARK    1  A    between atoms: C_2  and  C_1 
REMARK    2  A    between atoms: C_3  and  C_1 
REMARK    3  A    between atoms: C_12  and  C_2 
REMARK    4  A    between atoms: C_13  and  C_3 
REMARK    5  A    between atoms: C_9  and  C_8 
REMARK    6  A    between atoms: C_14  and  C_8 
REMARK    7  A    between atoms: C_15  and  C_9 
REMARK    8  A    between atoms: C_13  and  C_10 
REMARK    9  A    between atoms: C_17  and  C_11 
REMARK   10  A    between atoms: C_21  and  C_13 
REMARK   11  A    between atoms: C_19  and  C_14 
REMARK   12  A    between atoms: C_14  and  N_28 
REMARK   13  A    between atoms: O_33  and  C_15 
REMARK   14  A    between atoms: C_16  and  N_26 
REMARK       I    between atoms: N_28  and  C_17 
REMARK   15  A    between atoms: O_35  and  C_18 
REMARK   16  A    between atoms: O_37  and  C_19 
REMARK       I    between atoms: C_20  and  N_27 
REMARK   17  A    between atoms: C_22  and  C_21 
REMARK   18  A    between atoms: O_38  and  C_21 
REMARK   19  A    between atoms: O_39  and  C_21 
ROOT
HETATM    1  C   UNK N   1      35.466  11.699  12.064  0.00  0.00     0.090 C 
ENDROOT
BRANCH   1   2
HETATM    2  C   UNK N   1      36.925  11.246  12.123  0.00  0.00     0.015 C 
BRANCH   2   3
HETATM    3  C   UNK N   1      37.202  10.139  11.138  0.00  0.00     0.002 C 
BRANCH   3   4
HETATM    4  C   UNK N   1      38.331  10.623  10.254  0.00  0.00     0.017 C 
BRANCH   4   5
HETATM    5  C   UNK N   1      37.900  11.613   9.164  0.00  0.00     0.102 C 
HETATM    6  C   UNK N   1      38.188  11.158   7.741  0.00  0.00     0.184 C 
HETATM    7  N   UNK N   1      37.473  12.058   6.829  0.00  0.00    -0.365 N 
HETATM    8  C   UNK N   1      37.706  13.503   7.045  0.00  0.00     0.280 C 
HETATM    9  H   UNK N   1      36.856  11.710   6.095  0.00  0.00     0.159 HD
HETATM   10  N   UNK N   1      36.438  14.206   6.945  0.00  0.00    -0.395 N 
HETATM   11  N   UNK N   1      38.325  13.836   8.319  0.00  0.00    -0.337 N 
HETATM   12  H   UNK N   1      35.640  13.804   6.454  0.00  0.00     0.153 HD
HETATM   13  H   UNK N   1      36.345  15.125   7.377  0.00  0.00     0.153 HD
HETATM   14  C   UNK N   1      38.472  12.997   9.283  0.00  0.00     0.122 C 
ATOM     15  HN  UNK N   1      38.661  14.789   8.457  1.00  0.00     0.165 HD
BRANCH   6  16
HETATM   16  N   UNK N   1      37.700   9.804   7.538  0.00  0.00    -0.410 N 
HETATM   17  H   UNK N   1      36.887   9.370   7.976  0.00  0.00     0.151 HD
HETATM   18  H   UNK N   1      38.226   9.225   6.884  0.00  0.00     0.151 HD
ENDBRANCH   6  16
BRANCH  14  19
HETATM   19  O   UNK N   1      39.144  13.377  10.376  0.00  0.00    -0.349 OA
HETATM   20  H   UNK N   1      39.337  14.279  10.544  0.00  0.00     0.219 HD
ENDBRANCH  14  19
ENDBRANCH   4   5
ENDBRANCH   3   4
ENDBRANCH   2   3
ENDBRANCH   1   2
BRANCH   1  21
HETATM   21  C   UNK N   1      35.509  13.062  11.382  0.00  0.00    -0.048 A 
HETATM   22  C   UNK N   1      34.639  13.296  10.331  0.00  0.00     0.009 A 
HETATM   23  C   UNK N   1      34.410  14.556   9.875  0.00  0.00     0.017 A 
HETATM   24  C   UNK N   1      35.050  15.654  10.429  0.00  0.00     0.032 A 
HETATM   25  C   UNK N   1      36.029  15.459  11.421  0.00  0.00     0.017 A 
HETATM   26  C   UNK N   1      36.239  14.154  11.918  0.00  0.00     0.009 A 
BRANCH  24  27
HETATM   27  C   UNK N   1      34.656  16.943   9.863  0.00  0.00     0.252 C 
HETATM   28  N   UNK N   1      33.442  16.955   9.239  0.00  0.00    -0.343 N 
HETATM   29  H   UNK N   1      32.722  16.445   9.676  0.00  0.00     0.163 HD
HETATM   30  O   UNK N   1      35.398  17.904   9.850  0.00  0.00    -0.268 OA
BRANCH  28  31
HETATM   31  C   UNK N   1      33.099  17.625   8.022  0.00  0.00     0.183 C 
BRANCH  31  32
HETATM   32  C   UNK N   1      31.563  17.548   7.961  0.00  0.00     0.046 C 
BRANCH  32  33
HETATM   33  C   UNK N   1      30.877  16.748   9.050  0.00  0.00     0.112 C 
BRANCH  33  34
HETATM   34  C   UNK N   1      29.776  17.520   9.690  0.00  0.00     0.139 C 
HETATM   35  O   UNK N   1      28.712  16.972   9.910  0.00  0.00    -0.650 OA
BRANCH  34  36
HETATM   36  O   UNK N   1      29.949  18.814  10.024  0.00  0.00    -0.776 OA
HETATM   37  H   UNK N   1      30.769  19.266   9.974  0.00  0.00     0.167 HD
ENDBRANCH  34  36
ENDBRANCH  33  34
ENDBRANCH  32  33
ENDBRANCH  31  32
BRANCH  31  38
HETATM   38  C   UNK N   1      33.800  17.077   6.812  0.00  0.00     0.163 C 
HETATM   39  O   UNK N   1      34.293  17.837   5.996  0.00  0.00    -0.648 OA
BRANCH  38  40
HETATM   40  O   UNK N   1      33.781  15.755   6.562  0.00  0.00    -0.775 OA
HETATM   41  H   UNK N   1      33.525  15.169   5.877  0.00  0.00     0.167 HD
ENDBRANCH  38  40
ENDBRANCH  31  38
ENDBRANCH  28  31
ENDBRANCH  24  27
ENDBRANCH   1  21
BRANCH   1  42
HETATM   42  C   UNK N   1      34.929  11.678  13.531  0.00  0.00     0.268 C 
BRANCH  42  43
HETATM   43  C   UNK N   1      33.965  10.513  13.718  0.00  0.00     0.445 C 
HETATM   44  F   UNK N   1      34.659   9.391  14.138  0.00  0.00    -0.166 F 
HETATM   45  F   UNK N   1      33.261  10.185  12.577  0.00  0.00    -0.166 F 
HETATM   46  F   UNK N   1      33.050  10.845  14.703  0.00  0.00    -0.166 F 
ENDBRANCH  42  43
BRANCH  42  47
HETATM   47  O   UNK N   1      35.953  11.489  14.385  0.00  0.00    -0.358 OA
HETATM   48  H   UNK N   1      36.432  10.690  14.485  0.00  0.00     0.213 HD
ENDBRANCH  42  47
BRANCH  42  49
HETATM   49  O   UNK N   1      34.305  12.843  13.818  0.00  0.00    -0.358 OA
HETATM   50  H   UNK N   1      34.541  13.749  13.860  0.00  0.00     0.213 HD
ENDBRANCH  42  49
ENDBRANCH   1  42
TORSDOF 19
ENDMDL
