REMARK WARNING: 32 MAX_TORS EXCEEDED!!!
REMARK  35 active torsions:
REMARK  status: ('A' for Active; 'I' for Inactive)
REMARK    1  A    between atoms: C_17  and  C_11 
REMARK    2  A    between atoms: C_19  and  C_11 
REMARK    3  A    between atoms: C_18  and  C_12 
REMARK    4  A    between atoms: C_20  and  C_12 
REMARK    5  A    between atoms: C_21  and  C_13 
REMARK    6  A    between atoms: C_23  and  C_13 
REMARK    7  A    between atoms: C_22  and  C_14 
REMARK    8  A    between atoms: C_24  and  C_14 
REMARK    9  A    between atoms: C_25  and  C_15 
REMARK   10  A    between atoms: C_27  and  C_15 
REMARK   11  A    between atoms: C_26  and  C_16 
REMARK   12  A    between atoms: C_28  and  C_16 
REMARK   13  A    between atoms: C_35  and  C_17 
REMARK   14  A    between atoms: C_36  and  C_18 
REMARK   15  A    between atoms: C_37  and  C_19 
REMARK   16  A    between atoms: C_38  and  C_20 
REMARK   17  A    between atoms: C_37  and  C_21 
REMARK   18  A    between atoms: C_38  and  C_22 
REMARK   19  A    between atoms: C_39  and  C_23 
REMARK   20  A    between atoms: C_40  and  C_24 
REMARK   21  A    between atoms: C_39  and  C_25 
REMARK   22  A    between atoms: C_40  and  C_26 
REMARK   23  A    between atoms: C_41  and  C_27 
REMARK   24  A    between atoms: C_42  and  C_28 
REMARK   25  A    between atoms: C_31  and  C_29 
REMARK   26  A    between atoms: C_41  and  C_29 
REMARK   27  A    between atoms: C_32  and  C_30 
REMARK   28  A    between atoms: C_42  and  C_30 
REMARK   29  A    between atoms: O_45  and  C_31 
REMARK   30  A    between atoms: O_46  and  C_32 
REMARK   31  A    between atoms: C_43  and  C_33 
REMARK   32  A    between atoms: O_44  and  C_33 
REMARK   33  A    between atoms: C_43  and  C_34 
REMARK   34  A    between atoms: O_45  and  C_34 
REMARK   35  A    between atoms: C_43  and  O_46 
ROOT
HETATM    1  C   UNK N   1      21.691  -6.859   0.090  0.00  0.00     0.168 C 
ENDROOT
BRANCH   1   2
HETATM    2  C   UNK N   1      21.272  -8.224  -0.428  0.00  0.00     0.198 C 
BRANCH   2   3
HETATM    3  O   UNK N   1      21.644  -9.225   0.469  0.00  0.00    -0.398 OA
HETATM    4  H   UNK N   1      21.170  -9.798   1.092  0.00  0.00     0.209 HD
ENDBRANCH   2   3
ENDBRANCH   1   2
BRANCH   1   5
HETATM    5  C   UNK N   1      21.235  -5.845  -0.961  0.00  0.00     0.201 C 
BRANCH   5   6
HETATM    6  O   UNK N   1      21.582  -4.501  -0.697  0.00  0.00    -0.389 OA
BRANCH   6   7
HETATM    7  C   UNK N   1      20.931  -3.972   0.448  0.00  0.00     0.168 C 
BRANCH   7   8
HETATM    8  C   UNK N   1      19.513  -4.475   0.744  0.00  0.00     0.030 C 
BRANCH   8   9
HETATM    9  C   UNK N   1      18.577  -4.494  -0.460  0.00  0.00    -0.017 C 
HETATM   10  C   UNK N   1      17.456  -3.500  -0.240  0.00  0.00     0.010 C 
BRANCH   9  11
HETATM   11  C   UNK N   1      18.043  -5.914  -0.663  0.00  0.00     0.004 C 
BRANCH  11  12
HETATM   12  C   UNK N   1      17.350  -6.470   0.580  0.00  0.00     0.001 C 
BRANCH  12  13
HETATM   13  C   UNK N   1      15.989  -7.056   0.227  0.00  0.00     0.004 C 
BRANCH  13  14
HETATM   14  C   UNK N   1      15.040  -6.000  -0.337  0.00  0.00    -0.019 C 
HETATM   15  C   UNK N   1      14.795  -4.884   0.674  0.00  0.00     0.010 C 
BRANCH  14  16
HETATM   16  C   UNK N   1      13.731  -6.639  -0.774  0.00  0.00     0.004 C 
BRANCH  16  17
HETATM   17  C   UNK N   1      12.870  -7.071   0.404  0.00  0.00     0.001 C 
BRANCH  17  18
HETATM   18  C   UNK N   1      11.418  -6.686   0.149  0.00  0.00     0.004 C 
BRANCH  18  19
HETATM   19  C   UNK N   1      11.196  -5.172   0.014  0.00  0.00    -0.019 C 
HETATM   20  C   UNK N   1      11.608  -4.431   1.279  0.00  0.00     0.010 C 
BRANCH  19  21
HETATM   21  C   UNK N   1       9.731  -4.895  -0.307  0.00  0.00     0.004 C 
BRANCH  21  22
HETATM   22  C   UNK N   1       8.801  -5.386   0.794  0.00  0.00     0.001 C 
BRANCH  22  23
HETATM   23  C   UNK N   1       7.525  -5.933   0.184  0.00  0.00     0.004 C 
BRANCH  23  24
HETATM   24  C   UNK N   1       6.391  -4.924   0.258  0.00  0.00    -0.023 C 
HETATM   25  C   UNK N   1       5.104  -5.607  -0.151  0.00  0.00     0.009 C 
HETATM   26  C   UNK N   1       6.644  -3.751  -0.672  0.00  0.00     0.009 C 
ENDBRANCH  23  24
ENDBRANCH  22  23
ENDBRANCH  21  22
ENDBRANCH  19  21
ENDBRANCH  18  19
ENDBRANCH  17  18
ENDBRANCH  16  17
ENDBRANCH  14  16
ENDBRANCH  13  14
ENDBRANCH  12  13
ENDBRANCH  11  12
ENDBRANCH   9  11
ENDBRANCH   8   9
ENDBRANCH   7   8
ENDBRANCH   6   7
ENDBRANCH   5   6
ENDBRANCH   1   5
BRANCH   1  27
HETATM   27  O   UNK N   1      23.093  -6.851   0.233  0.00  0.00    -0.382 OA
BRANCH  27  28
HETATM   28  C   UNK N   1      23.451  -5.927   1.229  0.00  0.00     0.168 C 
BRANCH  28  29
HETATM   29  C   UNK N   1      24.160  -4.707   0.632  0.00  0.00     0.030 C 
BRANCH  29  30
HETATM   30  C   UNK N   1      25.120  -5.072  -0.500  0.00  0.00    -0.017 C 
HETATM   31  C   UNK N   1      24.371  -5.268  -1.804  0.00  0.00     0.010 C 
BRANCH  30  32
HETATM   32  C   UNK N   1      26.146  -3.965  -0.717  0.00  0.00     0.004 C 
BRANCH  32  33
HETATM   33  C   UNK N   1      27.017  -3.678   0.509  0.00  0.00     0.001 C 
BRANCH  33  34
HETATM   34  C   UNK N   1      27.637  -4.931   1.134  0.00  0.00     0.004 C 
BRANCH  34  35
HETATM   35  C   UNK N   1      28.452  -5.782   0.156  0.00  0.00    -0.019 C 
HETATM   36  C   UNK N   1      28.973  -7.006   0.888  0.00  0.00     0.010 C 
BRANCH  35  37
HETATM   37  C   UNK N   1      29.597  -4.998  -0.476  0.00  0.00     0.004 C 
BRANCH  37  38
HETATM   38  C   UNK N   1      30.564  -4.469   0.569  0.00  0.00     0.001 C 
BRANCH  38  39
HETATM   39  C   UNK N   1      31.990  -4.503   0.045  0.00  0.00     0.004 C 
BRANCH  39  40
HETATM   40  C   UNK N   1      32.503  -5.922  -0.235  0.00  0.00    -0.019 C 
HETATM   41  C   UNK N   1      32.347  -6.828   0.980  0.00  0.00     0.010 C 
BRANCH  40  42
HETATM   42  C   UNK N   1      33.969  -5.857  -0.649  0.00  0.00     0.004 C 
BRANCH  42  43
HETATM   43  C   UNK N   1      34.835  -5.239   0.443  0.00  0.00     0.001 C 
BRANCH  43  44
HETATM   44  C   UNK N   1      36.231  -4.965  -0.079  0.00  0.00     0.004 C 
BRANCH  44  45
HETATM   45  C   UNK N   1      37.194  -6.071   0.315  0.00  0.00    -0.023 C 
HETATM   46  C   UNK N   1      38.608  -5.617   0.023  0.00  0.00     0.009 C 
HETATM   47  C   UNK N   1      36.910  -7.340  -0.467  0.00  0.00     0.009 C 
ENDBRANCH  44  45
ENDBRANCH  43  44
ENDBRANCH  42  43
ENDBRANCH  40  42
ENDBRANCH  39  40
ENDBRANCH  38  39
ENDBRANCH  37  38
ENDBRANCH  35  37
ENDBRANCH  34  35
ENDBRANCH  33  34
ENDBRANCH  32  33
ENDBRANCH  30  32
ENDBRANCH  29  30
ENDBRANCH  28  29
ENDBRANCH  27  28
ENDBRANCH   1  27
TORSDOF 35
