MODEL 1
REMARK VINA RESULT:      -5.0      0.000      0.000
REMARK  9 active torsions:
REMARK  status: ('A' for Active; 'I' for Inactive)
REMARK    1  A    between atoms: C_2  and  N_1 
REMARK    2  A    between atoms: C_2  and  C_3 
REMARK    3  A    between atoms: C_2  and  C_11 
REMARK    4  A    between atoms: C_3  and  C_4 
REMARK    5  A    between atoms: C_4  and  C_5 
REMARK    6  A    between atoms: C_5  and  C_6 
REMARK    7  A    between atoms: C_6  and  N_7 
REMARK       I    between atoms: N_7  and  C_8 
REMARK    8  A    between atoms: C_8  and  O_9 
REMARK    9  A    between atoms: C_11  and  O_12 
ROOT
HETATM    1  C   UNK N   1      21.114  16.202   2.269  0.00  0.00     0.035 C 
ENDROOT
BRANCH   1   2
HETATM    2  C   UNK N   1      19.932  15.720   1.448  0.00  0.00     0.173 C 
BRANCH   2   3
HETATM    3  N   UNK N   1      19.163  14.553   1.864  0.00  0.00    -0.418 N 
HETATM    4  H   UNK N   1      18.948  13.817   1.191  0.00  0.00     0.150 HD
HETATM    5  H   UNK N   1      18.839  14.472   2.828  0.00  0.00     0.150 HD
ENDBRANCH   2   3
BRANCH   2   6
HETATM    6  C   UNK N   1      19.534  16.429   0.203  0.00  0.00     0.163 C 
HETATM    7  O   UNK N   1      20.293  17.237  -0.305  0.00  0.00    -0.648 OA
BRANCH   6   8
HETATM    8  O   UNK N   1      18.339  16.181  -0.364  0.00  0.00    -0.775 OA
HETATM    9  H   UNK N   1      18.079  15.298  -0.542  0.00  0.00     0.167 HD
ENDBRANCH   6   8
ENDBRANCH   2   6
ENDBRANCH   1   2
BRANCH   1  10
HETATM   10  C   UNK N   1      20.643  16.806   3.556  0.00  0.00     0.004 C 
BRANCH  10  11
HETATM   11  C   UNK N   1      19.616  17.861   3.286  0.00  0.00     0.020 C 
BRANCH  11  12
HETATM   12  C   UNK N   1      20.427  19.081   2.988  0.00  0.00     0.125 C 
BRANCH  12  13
HETATM   13  N   UNK N   1      20.211  19.529   1.647  0.00  0.00    -0.338 N 
HETATM   14  C   UNK N   1      20.941  20.545   1.147  0.00  0.00     0.249 C 
HETATM   15  O   UNK N   1      21.796  21.091   1.840  0.00  0.00    -0.632 OA
HETATM   16  H   UNK N   1      19.527  19.094   1.088  0.00  0.00     0.165 HD
BRANCH  14  17
HETATM   17  O   UNK N   1      20.739  20.964  -0.108  0.00  0.00    -0.760 OA
HETATM   18  H   UNK N   1      20.454  20.358  -0.764  0.00  0.00     0.169 HD
ENDBRANCH  14  17
ENDBRANCH  12  13
ENDBRANCH  11  12
ENDBRANCH  10  11
ENDBRANCH   1  10
TORSDOF 9
ENDMDL
MODEL 2
REMARK VINA RESULT:      -5.0     12.541     13.877
REMARK  9 active torsions:
REMARK  status: ('A' for Active; 'I' for Inactive)
REMARK    1  A    between atoms: C_2  and  N_1 
REMARK    2  A    between atoms: C_2  and  C_3 
REMARK    3  A    between atoms: C_2  and  C_11 
REMARK    4  A    between atoms: C_3  and  C_4 
REMARK    5  A    between atoms: C_4  and  C_5 
REMARK    6  A    between atoms: C_5  and  C_6 
REMARK    7  A    between atoms: C_6  and  N_7 
REMARK       I    between atoms: N_7  and  C_8 
REMARK    8  A    between atoms: C_8  and  O_9 
REMARK    9  A    between atoms: C_11  and  O_12 
ROOT
HETATM    1  C   UNK N   1      32.861  16.317   8.519  0.00  0.00     0.035 C 
ENDROOT
BRANCH   1   2
HETATM    2  C   UNK N   1      34.032  17.190   8.935  0.00  0.00     0.173 C 
BRANCH   2   3
HETATM    3  N   UNK N   1      34.643  17.038  10.250  0.00  0.00    -0.418 N 
HETATM    4  H   UNK N   1      34.191  17.437  11.072  0.00  0.00     0.150 HD
HETATM    5  H   UNK N   1      35.524  16.532  10.348  0.00  0.00     0.150 HD
ENDBRANCH   2   3
BRANCH   2   6
HETATM    6  C   UNK N   1      34.578  18.217   8.010  0.00  0.00     0.163 C 
HETATM    7  O   UNK N   1      35.085  19.232   8.459  0.00  0.00    -0.648 OA
BRANCH   6   8
HETATM    8  O   UNK N   1      34.514  18.032   6.679  0.00  0.00    -0.775 OA
HETATM    9  H   UNK N   1      33.693  17.834   6.272  0.00  0.00     0.167 HD
ENDBRANCH   6   8
ENDBRANCH   2   6
ENDBRANCH   1   2
BRANCH   1  10
HETATM   10  C   UNK N   1      31.683  17.165   8.151  0.00  0.00     0.004 C 
BRANCH  10  11
HETATM   11  C   UNK N   1      31.109  16.713   6.844  0.00  0.00     0.020 C 
BRANCH  11  12
HETATM   12  C   UNK N   1      29.813  17.452   6.750  0.00  0.00     0.125 C 
BRANCH  12  13
HETATM   13  N   UNK N   1      29.042  17.292   7.944  0.00  0.00    -0.338 N 
HETATM   14  C   UNK N   1      28.200  18.267   8.341  0.00  0.00     0.249 C 
HETATM   15  O   UNK N   1      28.091  19.296   7.680  0.00  0.00    -0.632 OA
HETATM   16  H   UNK N   1      29.126  16.469   8.477  0.00  0.00     0.165 HD
BRANCH  14  17
HETATM   17  O   UNK N   1      27.479  18.118   9.459  0.00  0.00    -0.760 OA
HETATM   18  H   UNK N   1      26.754  18.688   9.628  0.00  0.00     0.169 HD
ENDBRANCH  14  17
ENDBRANCH  12  13
ENDBRANCH  11  12
ENDBRANCH  10  11
ENDBRANCH   1  10
TORSDOF 9
ENDMDL
MODEL 3
REMARK VINA RESULT:      -4.9     17.966     19.240
REMARK  9 active torsions:
REMARK  status: ('A' for Active; 'I' for Inactive)
REMARK    1  A    between atoms: C_2  and  N_1 
REMARK    2  A    between atoms: C_2  and  C_3 
REMARK    3  A    between atoms: C_2  and  C_11 
REMARK    4  A    between atoms: C_3  and  C_4 
REMARK    5  A    between atoms: C_4  and  C_5 
REMARK    6  A    between atoms: C_5  and  C_6 
REMARK    7  A    between atoms: C_6  and  N_7 
REMARK       I    between atoms: N_7  and  C_8 
REMARK    8  A    between atoms: C_8  and  O_9 
REMARK    9  A    between atoms: C_11  and  O_12 
ROOT
HETATM    1  C   UNK N   1      35.224  14.046   9.340  0.00  0.00     0.035 C 
ENDROOT
BRANCH   1   2
HETATM    2  C   UNK N   1      34.860  15.154  10.312  0.00  0.00     0.173 C 
BRANCH   2   3
HETATM    3  N   UNK N   1      33.587  15.132  11.023  0.00  0.00    -0.418 N 
HETATM    4  H   UNK N   1      33.210  15.991  11.422  0.00  0.00     0.150 HD
HETATM    5  H   UNK N   1      33.072  14.256  11.121  0.00  0.00     0.150 HD
ENDBRANCH   2   3
BRANCH   2   6
HETATM    6  C   UNK N   1      35.794  16.284  10.560  0.00  0.00     0.163 C 
HETATM    7  O   UNK N   1      35.411  17.433  10.412  0.00  0.00    -0.648 OA
BRANCH   6   8
HETATM    8  O   UNK N   1      37.060  16.043  10.945  0.00  0.00    -0.775 OA
HETATM    9  H   UNK N   1      37.749  16.034  10.310  0.00  0.00     0.167 HD
ENDBRANCH   6   8
ENDBRANCH   2   6
ENDBRANCH   1   2
BRANCH   1  10
HETATM   10  C   UNK N   1      35.262  12.725  10.046  0.00  0.00     0.004 C 
BRANCH  10  11
HETATM   11  C   UNK N   1      36.668  12.388  10.435  0.00  0.00     0.020 C 
BRANCH  11  12
HETATM   12  C   UNK N   1      36.595  12.217  11.919  0.00  0.00     0.125 C 
BRANCH  12  13
HETATM   13  N   UNK N   1      37.125  13.362  12.595  0.00  0.00    -0.338 N 
HETATM   14  C   UNK N   1      36.341  14.080  13.423  0.00  0.00     0.249 C 
HETATM   15  O   UNK N   1      35.170  13.756  13.602  0.00  0.00    -0.632 OA
HETATM   16  H   UNK N   1      38.063  13.625  12.455  0.00  0.00     0.165 HD
BRANCH  14  17
HETATM   17  O   UNK N   1      36.836  15.151  14.056  0.00  0.00    -0.760 OA
HETATM   18  H   UNK N   1      36.362  15.535  14.768  0.00  0.00     0.169 HD
ENDBRANCH  14  17
ENDBRANCH  12  13
ENDBRANCH  11  12
ENDBRANCH  10  11
ENDBRANCH   1  10
TORSDOF 9
ENDMDL
MODEL 4
REMARK VINA RESULT:      -4.9      9.336     10.340
REMARK  9 active torsions:
REMARK  status: ('A' for Active; 'I' for Inactive)
REMARK    1  A    between atoms: C_2  and  N_1 
REMARK    2  A    between atoms: C_2  and  C_3 
REMARK    3  A    between atoms: C_2  and  C_11 
REMARK    4  A    between atoms: C_3  and  C_4 
REMARK    5  A    between atoms: C_4  and  C_5 
REMARK    6  A    between atoms: C_5  and  C_6 
REMARK    7  A    between atoms: C_6  and  N_7 
REMARK       I    between atoms: N_7  and  C_8 
REMARK    8  A    between atoms: C_8  and  O_9 
REMARK    9  A    between atoms: C_11  and  O_12 
ROOT
HETATM    1  C   UNK N   1      22.642  12.323   9.806  0.00  0.00     0.035 C 
ENDROOT
BRANCH   1   2
HETATM    2  C   UNK N   1      22.516  12.062  11.297  0.00  0.00     0.173 C 
BRANCH   2   3
HETATM    3  N   UNK N   1      21.222  11.747  11.891  0.00  0.00    -0.418 N 
HETATM    4  H   UNK N   1      20.836  12.347  12.620  0.00  0.00     0.150 HD
HETATM    5  H   UNK N   1      20.702  10.927  11.578  0.00  0.00     0.150 HD
ENDBRANCH   2   3
BRANCH   2   6
HETATM    6  C   UNK N   1      23.710  12.122  12.181  0.00  0.00     0.163 C 
HETATM    7  O   UNK N   1      23.577  12.027  13.389  0.00  0.00    -0.648 OA
BRANCH   6   8
HETATM    8  O   UNK N   1      24.937  12.281  11.651  0.00  0.00    -0.775 OA
HETATM    9  H   UNK N   1      25.195  13.115  11.311  0.00  0.00     0.167 HD
ENDBRANCH   6   8
ENDBRANCH   2   6
ENDBRANCH   1   2
BRANCH   1  10
HETATM   10  C   UNK N   1      21.386  12.946   9.279  0.00  0.00     0.004 C 
BRANCH  10  11
HETATM   11  C   UNK N   1      21.400  14.423   9.523  0.00  0.00     0.020 C 
BRANCH  11  12
HETATM   12  C   UNK N   1      20.381  14.953   8.566  0.00  0.00     0.125 C 
BRANCH  12  13
HETATM   13  N   UNK N   1      20.220  16.367   8.716  0.00  0.00    -0.338 N 
HETATM   14  C   UNK N   1      19.010  16.883   9.006  0.00  0.00     0.249 C 
HETATM   15  O   UNK N   1      18.039  16.142   9.143  0.00  0.00    -0.632 OA
HETATM   16  H   UNK N   1      20.996  16.963   8.606  0.00  0.00     0.165 HD
BRANCH  14  17
HETATM   17  O   UNK N   1      18.859  18.205   9.146  0.00  0.00    -0.760 OA
HETATM   18  H   UNK N   1      18.053  18.614   8.895  0.00  0.00     0.169 HD
ENDBRANCH  14  17
ENDBRANCH  12  13
ENDBRANCH  11  12
ENDBRANCH  10  11
ENDBRANCH   1  10
TORSDOF 9
ENDMDL
MODEL 5
REMARK VINA RESULT:      -4.8     17.107     18.386
REMARK  9 active torsions:
REMARK  status: ('A' for Active; 'I' for Inactive)
REMARK    1  A    between atoms: C_2  and  N_1 
REMARK    2  A    between atoms: C_2  and  C_3 
REMARK    3  A    between atoms: C_2  and  C_11 
REMARK    4  A    between atoms: C_3  and  C_4 
REMARK    5  A    between atoms: C_4  and  C_5 
REMARK    6  A    between atoms: C_5  and  C_6 
REMARK    7  A    between atoms: C_6  and  N_7 
REMARK       I    between atoms: N_7  and  C_8 
REMARK    8  A    between atoms: C_8  and  O_9 
REMARK    9  A    between atoms: C_11  and  O_12 
ROOT
HETATM    1  C   UNK N   1      35.153  16.607  10.097  0.00  0.00     0.035 C 
ENDROOT
BRANCH   1   2
HETATM    2  C   UNK N   1      34.187  17.254   9.121  0.00  0.00     0.173 C 
BRANCH   2   3
HETATM    3  N   UNK N   1      32.775  16.889   9.119  0.00  0.00    -0.418 N 
HETATM    4  H   UNK N   1      32.458  16.076   9.646  0.00  0.00     0.150 HD
HETATM    5  H   UNK N   1      32.104  17.447   8.590  0.00  0.00     0.150 HD
ENDBRANCH   2   3
BRANCH   2   6
HETATM    6  C   UNK N   1      34.661  18.274   8.148  0.00  0.00     0.163 C 
HETATM    7  O   UNK N   1      35.286  19.245   8.541  0.00  0.00    -0.648 OA
BRANCH   6   8
HETATM    8  O   UNK N   1      34.401  18.129   6.836  0.00  0.00    -0.775 OA
HETATM    9  H   UNK N   1      34.092  17.307   6.508  0.00  0.00     0.167 HD
ENDBRANCH   6   8
ENDBRANCH   2   6
ENDBRANCH   1   2
BRANCH   1  10
HETATM   10  C   UNK N   1      35.595  15.271   9.584  0.00  0.00     0.004 C 
BRANCH  10  11
HETATM   11  C   UNK N   1      35.725  14.300  10.716  0.00  0.00     0.020 C 
BRANCH  11  12
HETATM   12  C   UNK N   1      35.675  15.165  11.935  0.00  0.00     0.125 C 
BRANCH  12  13
HETATM   13  N   UNK N   1      36.658  14.763  12.893  0.00  0.00    -0.338 N 
HETATM   14  C   UNK N   1      36.303  14.000  13.946  0.00  0.00     0.249 C 
HETATM   15  O   UNK N   1      35.135  13.647  14.088  0.00  0.00    -0.632 OA
HETATM   16  H   UNK N   1      37.595  15.043  12.783  0.00  0.00     0.165 HD
BRANCH  14  17
HETATM   17  O   UNK N   1      37.223  13.623  14.842  0.00  0.00    -0.760 OA
HETATM   18  H   UNK N   1      37.111  12.824  15.320  0.00  0.00     0.169 HD
ENDBRANCH  14  17
ENDBRANCH  12  13
ENDBRANCH  11  12
ENDBRANCH  10  11
ENDBRANCH   1  10
TORSDOF 9
ENDMDL
MODEL 6
REMARK VINA RESULT:      -4.8     13.010     14.247
REMARK  9 active torsions:
REMARK  status: ('A' for Active; 'I' for Inactive)
REMARK    1  A    between atoms: C_2  and  N_1 
REMARK    2  A    between atoms: C_2  and  C_3 
REMARK    3  A    between atoms: C_2  and  C_11 
REMARK    4  A    between atoms: C_3  and  C_4 
REMARK    5  A    between atoms: C_4  and  C_5 
REMARK    6  A    between atoms: C_5  and  C_6 
REMARK    7  A    between atoms: C_6  and  N_7 
REMARK       I    between atoms: N_7  and  C_8 
REMARK    8  A    between atoms: C_8  and  O_9 
REMARK    9  A    between atoms: C_11  and  O_12 
ROOT
HETATM    1  C   UNK N   1      32.598  16.663   8.555  0.00  0.00     0.035 C 
ENDROOT
BRANCH   1   2
HETATM    2  C   UNK N   1      33.923  17.288   8.952  0.00  0.00     0.173 C 
BRANCH   2   3
HETATM    3  N   UNK N   1      34.552  16.955  10.225  0.00  0.00    -0.418 N 
HETATM    4  H   UNK N   1      34.158  16.220  10.812  0.00  0.00     0.150 HD
HETATM    5  H   UNK N   1      35.386  17.458  10.530  0.00  0.00     0.150 HD
ENDBRANCH   2   3
BRANCH   2   6
HETATM    6  C   UNK N   1      34.607  18.253   8.051  0.00  0.00     0.163 C 
HETATM    7  O   UNK N   1      35.229  19.190   8.523  0.00  0.00    -0.648 OA
BRANCH   6   8
HETATM    8  O   UNK N   1      34.542  18.095   6.717  0.00  0.00    -0.775 OA
HETATM    9  H   UNK N   1      34.184  18.776   6.181  0.00  0.00     0.167 HD
ENDBRANCH   6   8
ENDBRANCH   2   6
ENDBRANCH   1   2
BRANCH   1  10
HETATM   10  C   UNK N   1      31.549  17.721   8.401  0.00  0.00     0.004 C 
BRANCH  10  11
HETATM   11  C   UNK N   1      30.572  17.328   7.336  0.00  0.00     0.020 C 
BRANCH  11  12
HETATM   12  C   UNK N   1      31.398  16.544   6.367  0.00  0.00     0.125 C 
BRANCH  12  13
HETATM   13  N   UNK N   1      31.043  16.857   5.017  0.00  0.00    -0.338 N 
HETATM   14  C   UNK N   1      31.992  17.232   4.137  0.00  0.00     0.249 C 
HETATM   15  O   UNK N   1      33.167  17.307   4.490  0.00  0.00    -0.632 OA
HETATM   16  H   UNK N   1      30.103  16.798   4.730  0.00  0.00     0.165 HD
BRANCH  14  17
HETATM   17  O   UNK N   1      31.660  17.525   2.874  0.00  0.00    -0.760 OA
HETATM   18  H   UNK N   1      30.876  18.007   2.696  0.00  0.00     0.169 HD
ENDBRANCH  14  17
ENDBRANCH  12  13
ENDBRANCH  11  12
ENDBRANCH  10  11
ENDBRANCH   1  10
TORSDOF 9
ENDMDL
MODEL 7
REMARK VINA RESULT:      -4.6      2.590      3.870
REMARK  9 active torsions:
REMARK  status: ('A' for Active; 'I' for Inactive)
REMARK    1  A    between atoms: C_2  and  N_1 
REMARK    2  A    between atoms: C_2  and  C_3 
REMARK    3  A    between atoms: C_2  and  C_11 
REMARK    4  A    between atoms: C_3  and  C_4 
REMARK    5  A    between atoms: C_4  and  C_5 
REMARK    6  A    between atoms: C_5  and  C_6 
REMARK    7  A    between atoms: C_6  and  N_7 
REMARK       I    between atoms: N_7  and  C_8 
REMARK    8  A    between atoms: C_8  and  O_9 
REMARK    9  A    between atoms: C_11  and  O_12 
ROOT
HETATM    1  C   UNK N   1      20.081  18.704   3.029  0.00  0.00     0.035 C 
ENDROOT
BRANCH   1   2
HETATM    2  C   UNK N   1      20.353  18.997   1.564  0.00  0.00     0.173 C 
BRANCH   2   3
HETATM    3  N   UNK N   1      20.124  17.979   0.546  0.00  0.00    -0.418 N 
HETATM    4  H   UNK N   1      20.720  17.152   0.509  0.00  0.00     0.150 HD
HETATM    5  H   UNK N   1      19.368  18.093  -0.130  0.00  0.00     0.150 HD
ENDBRANCH   2   3
BRANCH   2   6
HETATM    6  C   UNK N   1      20.858  20.330   1.139  0.00  0.00     0.163 C 
HETATM    7  O   UNK N   1      21.479  21.024   1.926  0.00  0.00    -0.648 OA
BRANCH   6   8
HETATM    8  O   UNK N   1      20.632  20.771  -0.112  0.00  0.00    -0.775 OA
HETATM    9  H   UNK N   1      21.161  21.457  -0.469  0.00  0.00     0.167 HD
ENDBRANCH   6   8
ENDBRANCH   2   6
ENDBRANCH   1   2
BRANCH   1  10
HETATM   10  C   UNK N   1      21.175  17.856   3.602  0.00  0.00     0.004 C 
BRANCH  10  11
HETATM   11  C   UNK N   1      21.860  18.581   4.719  0.00  0.00     0.020 C 
BRANCH  11  12
HETATM   12  C   UNK N   1      23.293  18.621   4.292  0.00  0.00     0.125 C 
BRANCH  12  13
HETATM   13  N   UNK N   1      23.549  19.751   3.454  0.00  0.00    -0.338 N 
HETATM   14  C   UNK N   1      24.787  19.965   2.967  0.00  0.00     0.249 C 
HETATM   15  O   UNK N   1      25.701  19.191   3.240  0.00  0.00    -0.632 OA
HETATM   16  H   UNK N   1      22.819  20.374   3.233  0.00  0.00     0.165 HD
BRANCH  14  17
HETATM   17  O   UNK N   1      25.027  21.023   2.182  0.00  0.00    -0.760 OA
HETATM   18  H   UNK N   1      24.712  21.032   1.299  0.00  0.00     0.169 HD
ENDBRANCH  14  17
ENDBRANCH  12  13
ENDBRANCH  11  12
ENDBRANCH  10  11
ENDBRANCH   1  10
TORSDOF 9
ENDMDL
MODEL 8
REMARK VINA RESULT:      -4.5     14.644     15.719
REMARK  9 active torsions:
REMARK  status: ('A' for Active; 'I' for Inactive)
REMARK    1  A    between atoms: C_2  and  N_1 
REMARK    2  A    between atoms: C_2  and  C_3 
REMARK    3  A    between atoms: C_2  and  C_11 
REMARK    4  A    between atoms: C_3  and  C_4 
REMARK    5  A    between atoms: C_4  and  C_5 
REMARK    6  A    between atoms: C_5  and  C_6 
REMARK    7  A    between atoms: C_6  and  N_7 
REMARK       I    between atoms: N_7  and  C_8 
REMARK    8  A    between atoms: C_8  and  O_9 
REMARK    9  A    between atoms: C_11  and  O_12 
ROOT
HETATM    1  C   UNK N   1      32.936  14.132   8.536  0.00  0.00     0.035 C 
ENDROOT
BRANCH   1   2
HETATM    2  C   UNK N   1      34.252  14.736   8.993  0.00  0.00     0.173 C 
BRANCH   2   3
HETATM    3  N   UNK N   1      35.330  14.980   8.041  0.00  0.00    -0.418 N 
HETATM    4  H   UNK N   1      36.180  15.455   8.344  0.00  0.00     0.150 HD
HETATM    5  H   UNK N   1      35.234  14.675   7.072  0.00  0.00     0.150 HD
ENDBRANCH   2   3
BRANCH   2   6
HETATM    6  C   UNK N   1      34.468  15.092  10.421  0.00  0.00     0.163 C 
HETATM    7  O   UNK N   1      35.541  15.547  10.778  0.00  0.00    -0.648 OA
BRANCH   6   8
HETATM    8  O   UNK N   1      33.482  14.913  11.319  0.00  0.00    -0.775 OA
HETATM    9  H   UNK N   1      32.659  15.345  11.203  0.00  0.00     0.167 HD
ENDBRANCH   6   8
ENDBRANCH   2   6
ENDBRANCH   1   2
BRANCH   1  10
HETATM   10  C   UNK N   1      32.224  15.072   7.613  0.00  0.00     0.004 C 
BRANCH  10  11
HETATM   11  C   UNK N   1      31.655  16.222   8.385  0.00  0.00     0.020 C 
BRANCH  11  12
HETATM   12  C   UNK N   1      32.071  17.422   7.595  0.00  0.00     0.125 C 
BRANCH  12  13
HETATM   13  N   UNK N   1      33.033  18.201   8.311  0.00  0.00    -0.338 N 
HETATM   14  C   UNK N   1      34.287  18.332   7.834  0.00  0.00     0.249 C 
HETATM   15  O   UNK N   1      34.609  17.783   6.783  0.00  0.00    -0.632 OA
HETATM   16  H   UNK N   1      32.779  18.642   9.154  0.00  0.00     0.165 HD
BRANCH  14  17
HETATM   17  O   UNK N   1      35.188  19.061   8.504  0.00  0.00    -0.760 OA
HETATM   18  H   UNK N   1      34.927  19.858   8.922  0.00  0.00     0.169 HD
ENDBRANCH  14  17
ENDBRANCH  12  13
ENDBRANCH  11  12
ENDBRANCH  10  11
ENDBRANCH   1  10
TORSDOF 9
ENDMDL
MODEL 9
REMARK VINA RESULT:      -4.5      3.890      5.271
REMARK  9 active torsions:
REMARK  status: ('A' for Active; 'I' for Inactive)
REMARK    1  A    between atoms: C_2  and  N_1 
REMARK    2  A    between atoms: C_2  and  C_3 
REMARK    3  A    between atoms: C_2  and  C_11 
REMARK    4  A    between atoms: C_3  and  C_4 
REMARK    5  A    between atoms: C_4  and  C_5 
REMARK    6  A    between atoms: C_5  and  C_6 
REMARK    7  A    between atoms: C_6  and  N_7 
REMARK       I    between atoms: N_7  and  C_8 
REMARK    8  A    between atoms: C_8  and  O_9 
REMARK    9  A    between atoms: C_11  and  O_12 
ROOT
HETATM    1  C   UNK N   1      21.009  19.279   3.842  0.00  0.00     0.035 C 
ENDROOT
BRANCH   1   2
HETATM    2  C   UNK N   1      20.294  19.366   2.505  0.00  0.00     0.173 C 
BRANCH   2   3
HETATM    3  N   UNK N   1      19.079  18.598   2.259  0.00  0.00    -0.418 N 
HETATM    4  H   UNK N   1      18.237  19.067   1.927  0.00  0.00     0.150 HD
HETATM    5  H   UNK N   1      19.071  17.590   2.420  0.00  0.00     0.150 HD
ENDBRANCH   2   3
BRANCH   2   6
HETATM    6  C   UNK N   1      20.817  20.237   1.420  0.00  0.00     0.163 C 
HETATM    7  O   UNK N   1      21.409  21.267   1.699  0.00  0.00    -0.648 OA
BRANCH   6   8
HETATM    8  O   UNK N   1      20.641  19.893   0.132  0.00  0.00    -0.775 OA
HETATM    9  H   UNK N   1      20.808  19.014  -0.146  0.00  0.00     0.167 HD
ENDBRANCH   6   8
ENDBRANCH   2   6
ENDBRANCH   1   2
BRANCH   1  10
HETATM   10  C   UNK N   1      22.183  18.353   3.745  0.00  0.00     0.004 C 
BRANCH  10  11
HETATM   11  C   UNK N   1      22.291  17.525   4.987  0.00  0.00     0.020 C 
BRANCH  11  12
HETATM   12  C   UNK N   1      21.441  18.254   5.977  0.00  0.00     0.125 C 
BRANCH  12  13
HETATM   13  N   UNK N   1      20.791  17.342   6.868  0.00  0.00    -0.338 N 
HETATM   14  C   UNK N   1      20.263  17.788   8.025  0.00  0.00     0.249 C 
HETATM   15  O   UNK N   1      20.338  18.978   8.321  0.00  0.00    -0.632 OA
HETATM   16  H   UNK N   1      20.729  16.388   6.635  0.00  0.00     0.165 HD
BRANCH  14  17
HETATM   17  O   UNK N   1      19.656  16.936   8.859  0.00  0.00    -0.760 OA
HETATM   18  H   UNK N   1      20.040  16.099   9.036  0.00  0.00     0.169 HD
ENDBRANCH  14  17
ENDBRANCH  12  13
ENDBRANCH  11  12
ENDBRANCH  10  11
ENDBRANCH   1  10
TORSDOF 9
ENDMDL
