REMARK  3 active torsions:
REMARK  status: ('A' for Active; 'I' for Inactive)
REMARK    1  A    between atoms: O_1  and  C_2 
REMARK    2  A    between atoms: C_5  and  N_9 
REMARK    3  A    between atoms: C_7  and  O_8 
ROOT
HETATM    1  C   UNK N   1       2.115   1.079  -0.000  0.00  0.00     0.098 A 
HETATM    2  C   UNK N   1       2.123  -0.319  -0.000  0.00  0.00     0.042 A 
HETATM    3  C   UNK N   1       0.917  -1.027  -0.000  0.00  0.00     0.039 A 
HETATM    4  C   UNK N   1      -0.307  -0.338  -0.000  0.00  0.00     0.105 A 
HETATM    5  C   UNK N   1      -0.305   1.064   0.000  0.00  0.00     0.075 A 
HETATM    6  C   UNK N   1       0.897   1.771   0.000  0.00  0.00     0.101 A 
ENDROOT
BRANCH   4   7
HETATM    7  N   UNK N   1      -1.535  -1.053   0.000  0.00  0.00    -0.116 N 
HETATM    8  O   UNK N   1      -1.537  -2.369   0.000  0.00  0.00    -0.532 OA
HETATM    9  O   UNK N   1      -2.574  -0.463  -0.000  0.00  0.00    -0.532 OA
ENDBRANCH   4   7
BRANCH   6  10
HETATM   10  O   UNK N   1       0.876   3.115   0.000  0.00  0.00    -0.358 OA
HETATM   11  H   UNK N   1       1.680   3.596   0.000  0.00  0.00     0.217 HD
ENDBRANCH   6  10
BRANCH   1  12
HETATM   12  O   UNK N   1       3.278   1.752  -0.000  0.00  0.00    -0.358 OA
HETATM   13  H   UNK N   1       4.090   1.285  -0.000  0.00  0.00     0.217 HD
ENDBRANCH   1  12
TORSDOF 3
