MODEL 1
REMARK VINA RESULT:      -6.6      0.000      0.000
REMARK  17 active torsions:
REMARK  status: ('A' for Active; 'I' for Inactive)
REMARK    1  A    between atoms: C_6  and  C_5 
REMARK    2  A    between atoms: C_12  and  C_5 
REMARK    3  A    between atoms: C_14  and  C_6 
REMARK    4  A    between atoms: C_15  and  C_7 
REMARK    5  A    between atoms: N_20  and  C_7 
REMARK    6  A    between atoms: C_10  and  C_8 
REMARK    7  A    between atoms: S_30  and  C_8 
REMARK    8  A    between atoms: C_13  and  C_9 
REMARK    9  A    between atoms: S_30  and  C_9 
REMARK   10  A    between atoms: C_17  and  C_12 
REMARK   11  A    between atoms: C_12  and  N_19 
REMARK   12  A    between atoms: C_16  and  C_13 
REMARK   13  A    between atoms: C_13  and  N_22 
REMARK   14  A    between atoms: C_14  and  O_24 
REMARK   15  A    between atoms: O_26  and  C_15 
REMARK   16  A    between atoms: O_27  and  C_16 
REMARK   17  A    between atoms: O_29  and  C_17 
ROOT
HETATM    1  C   UNK N   1      23.799  17.584   5.019  0.00  0.00     0.167 C 
ENDROOT
BRANCH   1   2
HETATM    2  C   UNK N   1      24.437  16.245   5.415  0.00  0.00     0.107 C 
BRANCH   2   3
HETATM    3  S   UNK N   1      23.312  14.810   5.256  0.00  0.00    -0.162 SA
BRANCH   3   4
HETATM    4  C   UNK N   1      23.733  14.112   6.889  0.00  0.00     0.113 C 
BRANCH   4   5
HETATM    5  C   UNK N   1      22.561  14.214   7.808  0.00  0.00    -0.032 A 
HETATM    6  C   UNK N   1      21.459  14.977   7.405  0.00  0.00     0.009 A 
HETATM    7  C   UNK N   1      20.340  15.096   8.231  0.00  0.00     0.001 A 
HETATM    8  C   UNK N   1      20.316  14.453   9.469  0.00  0.00     0.001 A 
HETATM    9  C   UNK N   1      21.408  13.688   9.881  0.00  0.00     0.019 A 
HETATM   10  C   UNK N   1      22.532  13.559   9.060  0.00  0.00     0.013 A 
HETATM   11  I   UNK N   1      24.122  12.371   9.787  0.00  0.00    -0.044 I 
ENDBRANCH   4   5
ENDBRANCH   3   4
ENDBRANCH   2   3
ENDBRANCH   1   2
BRANCH   1  12
HETATM   12  C   UNK N   1      24.789  18.664   4.628  0.00  0.00     0.136 C 
HETATM   13  N   UNK N   1      25.728  19.016   5.434  0.00  0.00    -0.363 N 
ATOM     14  HN  UNK N   1      25.845  18.510   6.313  1.00  0.00     0.161 HD
BRANCH  13  15
HETATM   15  C   UNK N   1      26.621  20.109   5.128  0.00  0.00     0.231 C 
BRANCH  15  16
HETATM   16  C   UNK N   1      26.841  20.988   6.321  0.00  0.00     0.158 C 
HETATM   17  O   UNK N   1      27.666  21.889   6.292  0.00  0.00    -0.649 OA
BRANCH  16  18
HETATM   18  O   UNK N   1      26.132  20.771   7.444  0.00  0.00    -0.775 OA
HETATM   19  H   UNK N   1      25.623  19.999   7.598  0.00  0.00     0.167 HD
ENDBRANCH  16  18
ENDBRANCH  15  16
ENDBRANCH  13  15
BRANCH  12  20
HETATM   20  O   UNK N   1      24.621  19.323   3.459  0.00  0.00    -0.348 OA
HETATM   21  H   UNK N   1      25.199  19.698   2.824  0.00  0.00     0.219 HD
ENDBRANCH  12  20
ENDBRANCH   1  12
BRANCH   1  22
HETATM   22  N   UNK N   1      22.850  18.016   6.034  0.00  0.00    -0.362 N 
HETATM   23  C   UNK N   1      21.599  18.280   5.856  0.00  0.00     0.111 C 
ATOM     24  HN  UNK N   1      23.211  18.122   6.982  1.00  0.00     0.162 HD
BRANCH  23  25
HETATM   25  C   UNK N   1      20.942  18.193   4.501  0.00  0.00     0.086 C 
BRANCH  25  26
HETATM   26  C   UNK N   1      21.042  19.477   3.673  0.00  0.00     0.043 C 
BRANCH  26  27
HETATM   27  C   UNK N   1      20.620  19.328   2.208  0.00  0.00     0.173 C 
BRANCH  27  28
HETATM   28  C   UNK N   1      20.975  20.576   1.450  0.00  0.00     0.163 C 
HETATM   29  O   UNK N   1      21.042  20.566   0.230  0.00  0.00    -0.648 OA
BRANCH  28  30
HETATM   30  O   UNK N   1      21.235  21.714   2.120  0.00  0.00    -0.775 OA
HETATM   31  H   UNK N   1      21.797  21.715   2.871  0.00  0.00     0.167 HD
ENDBRANCH  28  30
ENDBRANCH  27  28
BRANCH  27  32
HETATM   32  N   UNK N   1      19.189  19.065   2.123  0.00  0.00    -0.418 N 
HETATM   33  H   UNK N   1      18.802  18.188   2.471  0.00  0.00     0.150 HD
HETATM   34  H   UNK N   1      18.569  19.764   1.713  0.00  0.00     0.150 HD
ENDBRANCH  27  32
ENDBRANCH  26  27
ENDBRANCH  25  26
ENDBRANCH  23  25
BRANCH  23  35
HETATM   35  O   UNK N   1      20.875  18.705   6.908  0.00  0.00    -0.350 OA
HETATM   36  H   UNK N   1      20.832  19.420   7.513  0.00  0.00     0.219 HD
ENDBRANCH  23  35
ENDBRANCH   1  22
TORSDOF 17
ENDMDL
MODEL 2
REMARK VINA RESULT:      -6.6      3.542      4.832
REMARK  17 active torsions:
REMARK  status: ('A' for Active; 'I' for Inactive)
REMARK    1  A    between atoms: C_6  and  C_5 
REMARK    2  A    between atoms: C_12  and  C_5 
REMARK    3  A    between atoms: C_14  and  C_6 
REMARK    4  A    between atoms: C_15  and  C_7 
REMARK    5  A    between atoms: N_20  and  C_7 
REMARK    6  A    between atoms: C_10  and  C_8 
REMARK    7  A    between atoms: S_30  and  C_8 
REMARK    8  A    between atoms: C_13  and  C_9 
REMARK    9  A    between atoms: S_30  and  C_9 
REMARK   10  A    between atoms: C_17  and  C_12 
REMARK   11  A    between atoms: C_12  and  N_19 
REMARK   12  A    between atoms: C_16  and  C_13 
REMARK   13  A    between atoms: C_13  and  N_22 
REMARK   14  A    between atoms: C_14  and  O_24 
REMARK   15  A    between atoms: O_26  and  C_15 
REMARK   16  A    between atoms: O_27  and  C_16 
REMARK   17  A    between atoms: O_29  and  C_17 
ROOT
HETATM    1  C   UNK N   1      19.925  15.804   4.995  0.00  0.00     0.167 C 
ENDROOT
BRANCH   1   2
HETATM    2  C   UNK N   1      20.207  14.316   4.741  0.00  0.00     0.107 C 
BRANCH   2   3
HETATM    3  S   UNK N   1      21.785  13.725   5.455  0.00  0.00    -0.162 SA
BRANCH   3   4
HETATM    4  C   UNK N   1      21.003  12.467   6.520  0.00  0.00     0.113 C 
BRANCH   4   5
HETATM    5  C   UNK N   1      21.648  12.461   7.866  0.00  0.00    -0.032 A 
HETATM    6  C   UNK N   1      21.152  13.325   8.850  0.00  0.00     0.009 A 
HETATM    7  C   UNK N   1      21.722  13.349  10.123  0.00  0.00     0.001 A 
HETATM    8  C   UNK N   1      22.796  12.510  10.423  0.00  0.00     0.001 A 
HETATM    9  C   UNK N   1      23.297  11.643   9.451  0.00  0.00     0.019 A 
HETATM   10  C   UNK N   1      22.731  11.607   8.174  0.00  0.00     0.013 A 
HETATM   11  I   UNK N   1      23.572  10.251   6.787  0.00  0.00    -0.044 I 
ENDBRANCH   4   5
ENDBRANCH   3   4
ENDBRANCH   2   3
ENDBRANCH   1   2
BRANCH   1  12
HETATM   12  C   UNK N   1      19.194  16.096   6.291  0.00  0.00     0.136 C 
HETATM   13  N   UNK N   1      19.848  16.317   7.378  0.00  0.00    -0.363 N 
ATOM     14  HN  UNK N   1      20.867  16.365   7.344  1.00  0.00     0.161 HD
BRANCH  13  15
HETATM   15  C   UNK N   1      19.176  16.499   8.644  0.00  0.00     0.231 C 
BRANCH  15  16
HETATM   16  C   UNK N   1      19.194  17.935   9.073  0.00  0.00     0.158 C 
HETATM   17  O   UNK N   1      20.110  18.675   8.747  0.00  0.00    -0.649 OA
BRANCH  16  18
HETATM   18  O   UNK N   1      18.197  18.408   9.842  0.00  0.00    -0.775 OA
HETATM   19  H   UNK N   1      17.823  19.262   9.743  0.00  0.00     0.167 HD
ENDBRANCH  16  18
ENDBRANCH  15  16
ENDBRANCH  13  15
BRANCH  12  20
HETATM   20  O   UNK N   1      17.844  16.031   6.317  0.00  0.00    -0.348 OA
HETATM   21  H   UNK N   1      17.170  16.488   6.782  0.00  0.00     0.219 HD
ENDBRANCH  12  20
ENDBRANCH   1  12
BRANCH   1  22
HETATM   22  N   UNK N   1      19.294  16.408   3.832  0.00  0.00    -0.362 N 
HETATM   23  C   UNK N   1      19.547  17.574   3.338  0.00  0.00     0.111 C 
ATOM     24  HN  UNK N   1      18.578  15.855   3.361  1.00  0.00     0.162 HD
BRANCH  23  25
HETATM   25  C   UNK N   1      20.559  18.507   3.953  0.00  0.00     0.086 C 
BRANCH  25  26
HETATM   26  C   UNK N   1      21.701  18.901   3.013  0.00  0.00     0.043 C 
BRANCH  26  27
HETATM   27  C   UNK N   1      21.751  20.388   2.653  0.00  0.00     0.173 C 
BRANCH  27  28
HETATM   28  C   UNK N   1      21.033  20.618   1.353  0.00  0.00     0.163 C 
HETATM   29  O   UNK N   1      20.745  21.749   0.991  0.00  0.00    -0.648 OA
BRANCH  28  30
HETATM   30  O   UNK N   1      20.691  19.567   0.583  0.00  0.00    -0.775 OA
HETATM   31  H   UNK N   1      21.203  18.782   0.583  0.00  0.00     0.167 HD
ENDBRANCH  28  30
ENDBRANCH  27  28
BRANCH  27  32
HETATM   32  N   UNK N   1      23.135  20.837   2.561  0.00  0.00    -0.418 N 
HETATM   33  H   UNK N   1      23.748  20.476   1.830  0.00  0.00     0.150 HD
HETATM   34  H   UNK N   1      23.492  21.516   3.232  0.00  0.00     0.150 HD
ENDBRANCH  27  32
ENDBRANCH  26  27
ENDBRANCH  25  26
ENDBRANCH  23  25
BRANCH  23  35
HETATM   35  O   UNK N   1      18.836  17.989   2.273  0.00  0.00    -0.350 OA
HETATM   36  H   UNK N   1      18.865  17.975   1.336  0.00  0.00     0.219 HD
ENDBRANCH  23  35
ENDBRANCH   1  22
TORSDOF 17
ENDMDL
MODEL 3
REMARK VINA RESULT:      -6.5     13.225     15.470
REMARK  17 active torsions:
REMARK  status: ('A' for Active; 'I' for Inactive)
REMARK    1  A    between atoms: C_6  and  C_5 
REMARK    2  A    between atoms: C_12  and  C_5 
REMARK    3  A    between atoms: C_14  and  C_6 
REMARK    4  A    between atoms: C_15  and  C_7 
REMARK    5  A    between atoms: N_20  and  C_7 
REMARK    6  A    between atoms: C_10  and  C_8 
REMARK    7  A    between atoms: S_30  and  C_8 
REMARK    8  A    between atoms: C_13  and  C_9 
REMARK    9  A    between atoms: S_30  and  C_9 
REMARK   10  A    between atoms: C_17  and  C_12 
REMARK   11  A    between atoms: C_12  and  N_19 
REMARK   12  A    between atoms: C_16  and  C_13 
REMARK   13  A    between atoms: C_13  and  N_22 
REMARK   14  A    between atoms: C_14  and  O_24 
REMARK   15  A    between atoms: O_26  and  C_15 
REMARK   16  A    between atoms: O_27  and  C_16 
REMARK   17  A    between atoms: O_29  and  C_17 
ROOT
HETATM    1  C   UNK N   1      36.067  14.404  12.364  0.00  0.00     0.167 C 
ENDROOT
BRANCH   1   2
HETATM    2  C   UNK N   1      36.440  14.466  13.852  0.00  0.00     0.107 C 
BRANCH   2   3
HETATM    3  S   UNK N   1      36.750  12.830  14.609  0.00  0.00    -0.162 SA
BRANCH   3   4
HETATM    4  C   UNK N   1      35.083  12.685  15.336  0.00  0.00     0.113 C 
BRANCH   4   5
HETATM    5  C   UNK N   1      35.182  12.488  16.813  0.00  0.00    -0.032 A 
HETATM    6  C   UNK N   1      35.091  13.610  17.644  0.00  0.00     0.009 A 
HETATM    7  C   UNK N   1      35.174  13.472  19.031  0.00  0.00     0.001 A 
HETATM    8  C   UNK N   1      35.352  12.209  19.596  0.00  0.00     0.001 A 
HETATM    9  C   UNK N   1      35.442  11.083  18.777  0.00  0.00     0.019 A 
HETATM   10  C   UNK N   1      35.356  11.209  17.388  0.00  0.00     0.013 A 
HETATM   11  I   UNK N   1      35.501   9.433  16.250  0.00  0.00    -0.044 I 
ENDBRANCH   4   5
ENDBRANCH   3   4
ENDBRANCH   2   3
ENDBRANCH   1   2
BRANCH   1  12
HETATM   12  C   UNK N   1      36.780  13.320  11.579  0.00  0.00     0.136 C 
HETATM   13  N   UNK N   1      36.157  12.252  11.221  0.00  0.00    -0.363 N 
ATOM     14  HN  UNK N   1      35.157  12.173  11.409  1.00  0.00     0.161 HD
BRANCH  13  15
HETATM   15  C   UNK N   1      36.837  11.162  10.561  0.00  0.00     0.231 C 
BRANCH  15  16
HETATM   16  C   UNK N   1      36.579   9.857  11.250  0.00  0.00     0.158 C 
HETATM   17  O   UNK N   1      36.236   9.823  12.422  0.00  0.00    -0.649 OA
BRANCH  16  18
HETATM   18  O   UNK N   1      36.746   8.706  10.572  0.00  0.00    -0.775 OA
HETATM   19  H   UNK N   1      37.110   8.656   9.710  0.00  0.00     0.167 HD
ENDBRANCH  16  18
ENDBRANCH  15  16
ENDBRANCH  13  15
BRANCH  12  20
HETATM   20  O   UNK N   1      38.105  13.442  11.336  0.00  0.00    -0.348 OA
HETATM   21  H   UNK N   1      38.674  13.183  10.638  0.00  0.00     0.219 HD
ENDBRANCH  12  20
ENDBRANCH   1  12
BRANCH   1  22
HETATM   22  N   UNK N   1      36.181  15.721  11.755  0.00  0.00    -0.362 N 
HETATM   23  C   UNK N   1      35.409  16.218  10.847  0.00  0.00     0.111 C 
ATOM     24  HN  UNK N   1      36.949  16.309  12.077  1.00  0.00     0.162 HD
BRANCH  23  25
HETATM   25  C   UNK N   1      34.255  15.447  10.260  0.00  0.00     0.086 C 
BRANCH  25  26
HETATM   26  C   UNK N   1      34.257  15.382   8.731  0.00  0.00     0.043 C 
BRANCH  26  27
HETATM   27  C   UNK N   1      33.389  16.439   8.044  0.00  0.00     0.173 C 
BRANCH  27  28
HETATM   28  C   UNK N   1      34.251  17.325   7.188  0.00  0.00     0.163 C 
HETATM   29  O   UNK N   1      34.508  17.018   6.034  0.00  0.00    -0.648 OA
BRANCH  28  30
HETATM   30  O   UNK N   1      34.758  18.461   7.702  0.00  0.00    -0.775 OA
HETATM   31  H   UNK N   1      34.978  18.525   8.611  0.00  0.00     0.167 HD
ENDBRANCH  28  30
ENDBRANCH  27  28
BRANCH  27  32
HETATM   32  N   UNK N   1      32.675  17.228   9.041  0.00  0.00    -0.418 N 
HETATM   33  H   UNK N   1      32.297  18.145   8.801  0.00  0.00     0.150 HD
HETATM   34  H   UNK N   1      32.551  16.860   9.983  0.00  0.00     0.150 HD
ENDBRANCH  27  32
ENDBRANCH  26  27
ENDBRANCH  25  26
ENDBRANCH  23  25
BRANCH  23  35
HETATM   35  O   UNK N   1      35.687  17.446  10.370  0.00  0.00    -0.350 OA
HETATM   36  H   UNK N   1      35.261  18.175   9.963  0.00  0.00     0.219 HD
ENDBRANCH  23  35
ENDBRANCH   1  22
TORSDOF 17
ENDMDL
MODEL 4
REMARK VINA RESULT:      -6.5      1.886      2.371
REMARK  17 active torsions:
REMARK  status: ('A' for Active; 'I' for Inactive)
REMARK    1  A    between atoms: C_6  and  C_5 
REMARK    2  A    between atoms: C_12  and  C_5 
REMARK    3  A    between atoms: C_14  and  C_6 
REMARK    4  A    between atoms: C_15  and  C_7 
REMARK    5  A    between atoms: N_20  and  C_7 
REMARK    6  A    between atoms: C_10  and  C_8 
REMARK    7  A    between atoms: S_30  and  C_8 
REMARK    8  A    between atoms: C_13  and  C_9 
REMARK    9  A    between atoms: S_30  and  C_9 
REMARK   10  A    between atoms: C_17  and  C_12 
REMARK   11  A    between atoms: C_12  and  N_19 
REMARK   12  A    between atoms: C_16  and  C_13 
REMARK   13  A    between atoms: C_13  and  N_22 
REMARK   14  A    between atoms: C_14  and  O_24 
REMARK   15  A    between atoms: O_26  and  C_15 
REMARK   16  A    between atoms: O_27  and  C_16 
REMARK   17  A    between atoms: O_29  and  C_17 
ROOT
HETATM    1  C   UNK N   1      23.463  16.566   5.428  0.00  0.00     0.167 C 
ENDROOT
BRANCH   1   2
HETATM    2  C   UNK N   1      23.984  15.346   6.202  0.00  0.00     0.107 C 
BRANCH   2   3
HETATM    3  S   UNK N   1      23.578  13.742   5.423  0.00  0.00    -0.162 SA
BRANCH   3   4
HETATM    4  C   UNK N   1      21.997  13.542   6.312  0.00  0.00     0.113 C 
BRANCH   4   5
HETATM    5  C   UNK N   1      22.245  13.027   7.691  0.00  0.00    -0.032 A 
HETATM    6  C   UNK N   1      23.064  11.903   7.848  0.00  0.00     0.009 A 
HETATM    7  C   UNK N   1      23.326  11.390   9.119  0.00  0.00     0.001 A 
HETATM    8  C   UNK N   1      22.768  11.997  10.245  0.00  0.00     0.001 A 
HETATM    9  C   UNK N   1      21.951  13.119  10.100  0.00  0.00     0.019 A 
HETATM   10  C   UNK N   1      21.686  13.644   8.832  0.00  0.00     0.013 A 
HETATM   11  I   UNK N   1      20.439  15.349   8.739  0.00  0.00    -0.044 I 
ENDBRANCH   4   5
ENDBRANCH   3   4
ENDBRANCH   2   3
ENDBRANCH   1   2
BRANCH   1  12
HETATM   12  C   UNK N   1      24.525  17.321   4.651  0.00  0.00     0.136 C 
HETATM   13  N   UNK N   1      24.856  18.518   4.988  0.00  0.00    -0.363 N 
ATOM     14  HN  UNK N   1      24.449  18.929   5.829  1.00  0.00     0.161 HD
BRANCH  13  15
HETATM   15  C   UNK N   1      25.790  19.294   4.206  0.00  0.00     0.231 C 
BRANCH  15  16
HETATM   16  C   UNK N   1      25.086  20.310   3.359  0.00  0.00     0.158 C 
HETATM   17  O   UNK N   1      23.946  20.663   3.622  0.00  0.00    -0.649 OA
BRANCH  16  18
HETATM   18  O   UNK N   1      25.712  20.825   2.285  0.00  0.00    -0.775 OA
HETATM   19  H   UNK N   1      25.790  21.745   2.119  0.00  0.00     0.167 HD
ENDBRANCH  16  18
ENDBRANCH  15  16
ENDBRANCH  13  15
BRANCH  12  20
HETATM   20  O   UNK N   1      25.056  16.760   3.541  0.00  0.00    -0.348 OA
HETATM   21  H   UNK N   1      24.703  16.366   2.767  0.00  0.00     0.219 HD
ENDBRANCH  12  20
ENDBRANCH   1  12
BRANCH   1  22
HETATM   22  N   UNK N   1      22.673  17.422   6.300  0.00  0.00    -0.362 N 
HETATM   23  C   UNK N   1      21.592  18.053   5.983  0.00  0.00     0.111 C 
ATOM     24  HN  UNK N   1      23.008  17.537   7.256  1.00  0.00     0.162 HD
BRANCH  23  25
HETATM   25  C   UNK N   1      21.002  17.996   4.597  0.00  0.00     0.086 C 
BRANCH  25  26
HETATM   26  C   UNK N   1      20.872  19.361   3.915  0.00  0.00     0.043 C 
BRANCH  26  27
HETATM   27  C   UNK N   1      20.577  19.301   2.414  0.00  0.00     0.173 C 
BRANCH  27  28
HETATM   28  C   UNK N   1      21.084  20.548   1.748  0.00  0.00     0.163 C 
HETATM   29  O   UNK N   1      21.226  20.595   0.535  0.00  0.00    -0.648 OA
BRANCH  28  30
HETATM   30  O   UNK N   1      21.401  21.623   2.494  0.00  0.00    -0.775 OA
HETATM   31  H   UNK N   1      20.946  22.435   2.391  0.00  0.00     0.167 HD
ENDBRANCH  28  30
ENDBRANCH  27  28
BRANCH  27  32
HETATM   32  N   UNK N   1      19.145  19.146   2.189  0.00  0.00    -0.418 N 
HETATM   33  H   UNK N   1      18.779  19.031   1.243  0.00  0.00     0.150 HD
HETATM   34  H   UNK N   1      18.504  19.152   2.983  0.00  0.00     0.150 HD
ENDBRANCH  27  32
ENDBRANCH  26  27
ENDBRANCH  25  26
ENDBRANCH  23  25
BRANCH  23  35
HETATM   35  O   UNK N   1      21.009  18.835   6.912  0.00  0.00    -0.350 OA
HETATM   36  H   UNK N   1      20.870  19.740   7.108  0.00  0.00     0.219 HD
ENDBRANCH  23  35
ENDBRANCH   1  22
TORSDOF 17
ENDMDL
MODEL 5
REMARK VINA RESULT:      -6.4     13.938     16.833
REMARK  17 active torsions:
REMARK  status: ('A' for Active; 'I' for Inactive)
REMARK    1  A    between atoms: C_6  and  C_5 
REMARK    2  A    between atoms: C_12  and  C_5 
REMARK    3  A    between atoms: C_14  and  C_6 
REMARK    4  A    between atoms: C_15  and  C_7 
REMARK    5  A    between atoms: N_20  and  C_7 
REMARK    6  A    between atoms: C_10  and  C_8 
REMARK    7  A    between atoms: S_30  and  C_8 
REMARK    8  A    between atoms: C_13  and  C_9 
REMARK    9  A    between atoms: S_30  and  C_9 
REMARK   10  A    between atoms: C_17  and  C_12 
REMARK   11  A    between atoms: C_12  and  N_19 
REMARK   12  A    between atoms: C_16  and  C_13 
REMARK   13  A    between atoms: C_13  and  N_22 
REMARK   14  A    between atoms: C_14  and  O_24 
REMARK   15  A    between atoms: O_26  and  C_15 
REMARK   16  A    between atoms: O_27  and  C_16 
REMARK   17  A    between atoms: O_29  and  C_17 
ROOT
HETATM    1  C   UNK N   1      35.902  14.013  12.716  0.00  0.00     0.167 C 
ENDROOT
BRANCH   1   2
HETATM    2  C   UNK N   1      36.768  12.927  12.063  0.00  0.00     0.107 C 
BRANCH   2   3
HETATM    3  S   UNK N   1      35.824  11.733  11.049  0.00  0.00    -0.162 SA
BRANCH   3   4
HETATM    4  C   UNK N   1      36.370  10.271  11.995  0.00  0.00     0.113 C 
BRANCH   4   5
HETATM    5  C   UNK N   1      35.671  10.221  13.312  0.00  0.00    -0.032 A 
HETATM    6  C   UNK N   1      34.349  10.675  13.385  0.00  0.00     0.009 A 
HETATM    7  C   UNK N   1      33.655  10.643  14.596  0.00  0.00     0.001 A 
HETATM    8  C   UNK N   1      34.281  10.157  15.745  0.00  0.00     0.001 A 
HETATM    9  C   UNK N   1      35.597   9.700  15.684  0.00  0.00     0.019 A 
HETATM   10  C   UNK N   1      36.300   9.724  14.476  0.00  0.00     0.013 A 
HETATM   11  I   UNK N   1      38.286   9.001  14.504  0.00  0.00    -0.044 I 
ENDBRANCH   4   5
ENDBRANCH   3   4
ENDBRANCH   2   3
ENDBRANCH   1   2
BRANCH   1  12
HETATM   12  C   UNK N   1      35.144  14.890  11.738  0.00  0.00     0.136 C 
HETATM   13  N   UNK N   1      35.756  15.797  11.061  0.00  0.00    -0.363 N 
ATOM     14  HN  UNK N   1      36.771  15.874  11.135  1.00  0.00     0.161 HD
BRANCH  13  15
HETATM   15  C   UNK N   1      35.043  16.710  10.198  0.00  0.00     0.231 C 
BRANCH  15  16
HETATM   16  C   UNK N   1      34.882  16.149   8.819  0.00  0.00     0.158 C 
HETATM   17  O   UNK N   1      34.716  14.951   8.645  0.00  0.00    -0.649 OA
BRANCH  16  18
HETATM   18  O   UNK N   1      34.938  16.974   7.757  0.00  0.00    -0.775 OA
HETATM   19  H   UNK N   1      35.257  16.718   6.914  0.00  0.00     0.167 HD
ENDBRANCH  16  18
ENDBRANCH  15  16
ENDBRANCH  13  15
BRANCH  12  20
HETATM   20  O   UNK N   1      33.800  14.773  11.650  0.00  0.00    -0.348 OA
HETATM   21  H   UNK N   1      33.102  14.701  12.272  0.00  0.00     0.219 HD
ENDBRANCH  12  20
ENDBRANCH   1  12
BRANCH   1  22
HETATM   22  N   UNK N   1      36.681  14.773  13.683  0.00  0.00    -0.362 N 
HETATM   23  C   UNK N   1      36.867  14.475  14.925  0.00  0.00     0.111 C 
ATOM     24  HN  UNK N   1      37.122  15.627  13.344  1.00  0.00     0.162 HD
BRANCH  23  25
HETATM   25  C   UNK N   1      36.249  13.257  15.563  0.00  0.00     0.086 C 
BRANCH  25  26
HETATM   26  C   UNK N   1      35.222  13.573  16.654  0.00  0.00     0.043 C 
BRANCH  26  27
HETATM   27  C   UNK N   1      35.821  13.858  18.034  0.00  0.00     0.173 C 
BRANCH  27  28
HETATM   28  C   UNK N   1      35.217  12.929  19.049  0.00  0.00     0.163 C 
HETATM   29  O   UNK N   1      35.124  11.732  18.822  0.00  0.00    -0.648 OA
BRANCH  28  30
HETATM   30  O   UNK N   1      34.760  13.420  20.216  0.00  0.00    -0.775 OA
HETATM   31  H   UNK N   1      34.662  12.869  20.968  0.00  0.00     0.167 HD
ENDBRANCH  28  30
ENDBRANCH  27  28
BRANCH  27  32
HETATM   32  N   UNK N   1      35.585  15.247  18.406  0.00  0.00    -0.418 N 
HETATM   33  H   UNK N   1      34.659  15.662  18.296  0.00  0.00     0.150 HD
HETATM   34  H   UNK N   1      36.350  15.809  18.780  0.00  0.00     0.150 HD
ENDBRANCH  27  32
ENDBRANCH  26  27
ENDBRANCH  25  26
ENDBRANCH  23  25
BRANCH  23  35
HETATM   35  O   UNK N   1      37.591  15.317  15.686  0.00  0.00    -0.350 OA
HETATM   36  H   UNK N   1      37.973  15.369  16.541  0.00  0.00     0.219 HD
ENDBRANCH  23  35
ENDBRANCH   1  22
TORSDOF 17
ENDMDL
MODEL 6
REMARK VINA RESULT:      -6.4      3.015      3.907
REMARK  17 active torsions:
REMARK  status: ('A' for Active; 'I' for Inactive)
REMARK    1  A    between atoms: C_6  and  C_5 
REMARK    2  A    between atoms: C_12  and  C_5 
REMARK    3  A    between atoms: C_14  and  C_6 
REMARK    4  A    between atoms: C_15  and  C_7 
REMARK    5  A    between atoms: N_20  and  C_7 
REMARK    6  A    between atoms: C_10  and  C_8 
REMARK    7  A    between atoms: S_30  and  C_8 
REMARK    8  A    between atoms: C_13  and  C_9 
REMARK    9  A    between atoms: S_30  and  C_9 
REMARK   10  A    between atoms: C_17  and  C_12 
REMARK   11  A    between atoms: C_12  and  N_19 
REMARK   12  A    between atoms: C_16  and  C_13 
REMARK   13  A    between atoms: C_13  and  N_22 
REMARK   14  A    between atoms: C_14  and  O_24 
REMARK   15  A    between atoms: O_26  and  C_15 
REMARK   16  A    between atoms: O_27  and  C_16 
REMARK   17  A    between atoms: O_29  and  C_17 
ROOT
HETATM    1  C   UNK N   1      23.504  16.755   5.041  0.00  0.00     0.167 C 
ENDROOT
BRANCH   1   2
HETATM    2  C   UNK N   1      23.978  15.426   5.646  0.00  0.00     0.107 C 
BRANCH   2   3
HETATM    3  S   UNK N   1      22.635  14.214   5.922  0.00  0.00    -0.162 SA
BRANCH   3   4
HETATM    4  C   UNK N   1      22.795  13.440   4.277  0.00  0.00     0.113 C 
BRANCH   4   5
HETATM    5  C   UNK N   1      21.831  14.060   3.321  0.00  0.00    -0.032 A 
HETATM    6  C   UNK N   1      20.531  14.331   3.764  0.00  0.00     0.009 A 
HETATM    7  C   UNK N   1      19.598  14.914   2.905  0.00  0.00     0.001 A 
HETATM    8  C   UNK N   1      19.959  15.230   1.594  0.00  0.00     0.001 A 
HETATM    9  C   UNK N   1      21.253  14.967   1.143  0.00  0.00     0.019 A 
HETATM   10  C   UNK N   1      22.196  14.387   1.996  0.00  0.00     0.013 A 
HETATM   11  I   UNK N   1      24.125  14.040   1.203  0.00  0.00    -0.044 I 
ENDBRANCH   4   5
ENDBRANCH   3   4
ENDBRANCH   2   3
ENDBRANCH   1   2
BRANCH   1  12
HETATM   12  C   UNK N   1      24.589  17.555   4.346  0.00  0.00     0.136 C 
HETATM   13  N   UNK N   1      24.784  18.792   4.644  0.00  0.00    -0.363 N 
ATOM     14  HN  UNK N   1      24.249  19.211   5.406  1.00  0.00     0.161 HD
BRANCH  13  15
HETATM   15  C   UNK N   1      25.742  19.602   3.929  0.00  0.00     0.231 C 
BRANCH  15  16
HETATM   16  C   UNK N   1      25.065  20.539   2.976  0.00  0.00     0.158 C 
HETATM   17  O   UNK N   1      25.671  21.014   2.027  0.00  0.00    -0.649 OA
BRANCH  16  18
HETATM   18  O   UNK N   1      23.778  20.874   3.179  0.00  0.00    -0.775 OA
HETATM   19  H   UNK N   1      23.297  20.651   3.951  0.00  0.00     0.167 HD
ENDBRANCH  16  18
ENDBRANCH  15  16
ENDBRANCH  13  15
BRANCH  12  20
HETATM   20  O   UNK N   1      25.291  16.984   3.341  0.00  0.00    -0.348 OA
HETATM   21  H   UNK N   1      25.551  17.253   2.482  0.00  0.00     0.219 HD
ENDBRANCH  12  20
ENDBRANCH   1  12
BRANCH   1  22
HETATM   22  N   UNK N   1      22.764  17.529   6.027  0.00  0.00    -0.362 N 
HETATM   23  C   UNK N   1      21.587  18.038   5.880  0.00  0.00     0.111 C 
ATOM     24  HN  UNK N   1      23.223  17.684   6.925  1.00  0.00     0.162 HD
BRANCH  23  25
HETATM   25  C   UNK N   1      20.809  17.910   4.595  0.00  0.00     0.086 C 
BRANCH  25  26
HETATM   26  C   UNK N   1      20.844  19.161   3.713  0.00  0.00     0.043 C 
BRANCH  26  27
HETATM   27  C   UNK N   1      20.384  18.940   2.270  0.00  0.00     0.173 C 
BRANCH  27  28
HETATM   28  C   UNK N   1      20.775  20.121   1.427  0.00  0.00     0.163 C 
HETATM   29  O   UNK N   1      21.183  21.149   1.945  0.00  0.00    -0.648 OA
BRANCH  28  30
HETATM   30  O   UNK N   1      20.661  20.053   0.087  0.00  0.00    -0.775 OA
HETATM   31  H   UNK N   1      20.544  20.827  -0.429  0.00  0.00     0.167 HD
ENDBRANCH  28  30
ENDBRANCH  27  28
BRANCH  27  32
HETATM   32  N   UNK N   1      18.941  18.736   2.229  0.00  0.00    -0.418 N 
HETATM   33  H   UNK N   1      18.320  19.317   2.793  0.00  0.00     0.150 HD
HETATM   34  H   UNK N   1      18.549  18.008   1.632  0.00  0.00     0.150 HD
ENDBRANCH  27  32
ENDBRANCH  26  27
ENDBRANCH  25  26
ENDBRANCH  23  25
BRANCH  23  35
HETATM   35  O   UNK N   1      21.068  18.760   6.891  0.00  0.00    -0.350 OA
HETATM   36  H   UNK N   1      21.221  19.554   7.364  0.00  0.00     0.219 HD
ENDBRANCH  23  35
ENDBRANCH   1  22
TORSDOF 17
ENDMDL
MODEL 7
REMARK VINA RESULT:      -6.3      2.871      3.456
REMARK  17 active torsions:
REMARK  status: ('A' for Active; 'I' for Inactive)
REMARK    1  A    between atoms: C_6  and  C_5 
REMARK    2  A    between atoms: C_12  and  C_5 
REMARK    3  A    between atoms: C_14  and  C_6 
REMARK    4  A    between atoms: C_15  and  C_7 
REMARK    5  A    between atoms: N_20  and  C_7 
REMARK    6  A    between atoms: C_10  and  C_8 
REMARK    7  A    between atoms: S_30  and  C_8 
REMARK    8  A    between atoms: C_13  and  C_9 
REMARK    9  A    between atoms: S_30  and  C_9 
REMARK   10  A    between atoms: C_17  and  C_12 
REMARK   11  A    between atoms: C_12  and  N_19 
REMARK   12  A    between atoms: C_16  and  C_13 
REMARK   13  A    between atoms: C_13  and  N_22 
REMARK   14  A    between atoms: C_14  and  O_24 
REMARK   15  A    between atoms: O_26  and  C_15 
REMARK   16  A    between atoms: O_27  and  C_16 
REMARK   17  A    between atoms: O_29  and  C_17 
ROOT
HETATM    1  C   UNK N   1      24.950  16.860   4.866  0.00  0.00     0.167 C 
ENDROOT
BRANCH   1   2
HETATM    2  C   UNK N   1      24.620  15.463   4.322  0.00  0.00     0.107 C 
BRANCH   2   3
HETATM    3  S   UNK N   1      24.035  14.287   5.596  0.00  0.00    -0.162 SA
BRANCH   3   4
HETATM    4  C   UNK N   1      22.713  13.585   4.553  0.00  0.00     0.113 C 
BRANCH   4   5
HETATM    5  C   UNK N   1      21.514  14.474   4.577  0.00  0.00    -0.032 A 
HETATM    6  C   UNK N   1      20.955  14.811   5.815  0.00  0.00     0.009 A 
HETATM    7  C   UNK N   1      19.836  15.642   5.884  0.00  0.00     0.001 A 
HETATM    8  C   UNK N   1      19.266  16.142   4.713  0.00  0.00     0.001 A 
HETATM    9  C   UNK N   1      19.815  15.814   3.473  0.00  0.00     0.019 A 
HETATM   10  C   UNK N   1      20.938  14.986   3.392  0.00  0.00     0.013 A 
HETATM   11  I   UNK N   1      21.684  14.563   1.460  0.00  0.00    -0.044 I 
ENDBRANCH   4   5
ENDBRANCH   3   4
ENDBRANCH   2   3
ENDBRANCH   1   2
BRANCH   1  12
HETATM   12  C   UNK N   1      26.347  17.000   5.439  0.00  0.00     0.136 C 
HETATM   13  N   UNK N   1      26.565  16.803   6.692  0.00  0.00    -0.363 N 
ATOM     14  HN  UNK N   1      25.800  16.479   7.285  1.00  0.00     0.161 HD
BRANCH  13  15
HETATM   15  C   UNK N   1      27.865  17.027   7.281  0.00  0.00     0.231 C 
BRANCH  15  16
HETATM   16  C   UNK N   1      27.752  17.628   8.648  0.00  0.00     0.158 C 
HETATM   17  O   UNK N   1      27.794  16.926   9.647  0.00  0.00    -0.649 OA
BRANCH  16  18
HETATM   18  O   UNK N   1      27.584  18.957   8.776  0.00  0.00    -0.775 OA
HETATM   19  H   UNK N   1      28.100  19.594   8.321  0.00  0.00     0.167 HD
ENDBRANCH  16  18
ENDBRANCH  15  16
ENDBRANCH  13  15
BRANCH  12  20
HETATM   20  O   UNK N   1      27.349  17.427   4.639  0.00  0.00    -0.348 OA
HETATM   21  H   UNK N   1      28.281  17.482   4.720  0.00  0.00     0.219 HD
ENDBRANCH  12  20
ENDBRANCH   1  12
BRANCH   1  22
HETATM   22  N   UNK N   1      23.908  17.309   5.779  0.00  0.00    -0.362 N 
HETATM   23  C   UNK N   1      22.855  17.988   5.468  0.00  0.00     0.111 C 
ATOM     24  HN  UNK N   1      24.024  17.064   6.762  1.00  0.00     0.162 HD
BRANCH  23  25
HETATM   25  C   UNK N   1      22.574  18.441   4.058  0.00  0.00     0.086 C 
BRANCH  25  26
HETATM   26  C   UNK N   1      21.255  19.201   3.894  0.00  0.00     0.043 C 
BRANCH  26  27
HETATM   27  C   UNK N   1      20.740  19.287   2.455  0.00  0.00     0.173 C 
BRANCH  27  28
HETATM   28  C   UNK N   1      21.237  20.553   1.815  0.00  0.00     0.163 C 
HETATM   29  O   UNK N   1      21.336  20.641   0.600  0.00  0.00    -0.648 OA
BRANCH  28  30
HETATM   30  O   UNK N   1      21.592  21.597   2.587  0.00  0.00    -0.775 OA
HETATM   31  H   UNK N   1      21.092  21.831   3.344  0.00  0.00     0.167 HD
ENDBRANCH  28  30
ENDBRANCH  27  28
BRANCH  27  32
HETATM   32  N   UNK N   1      19.283  19.242   2.439  0.00  0.00    -0.418 N 
HETATM   33  H   UNK N   1      18.747  19.566   3.245  0.00  0.00     0.150 HD
HETATM   34  H   UNK N   1      18.797  18.886   1.617  0.00  0.00     0.150 HD
ENDBRANCH  27  32
ENDBRANCH  26  27
ENDBRANCH  25  26
ENDBRANCH  23  25
BRANCH  23  35
HETATM   35  O   UNK N   1      22.011  18.351   6.453  0.00  0.00    -0.350 OA
HETATM   36  H   UNK N   1      21.096  18.481   6.608  0.00  0.00     0.219 HD
ENDBRANCH  23  35
ENDBRANCH   1  22
TORSDOF 17
ENDMDL
MODEL 8
REMARK VINA RESULT:      -6.3      2.724      4.330
REMARK  17 active torsions:
REMARK  status: ('A' for Active; 'I' for Inactive)
REMARK    1  A    between atoms: C_6  and  C_5 
REMARK    2  A    between atoms: C_12  and  C_5 
REMARK    3  A    between atoms: C_14  and  C_6 
REMARK    4  A    between atoms: C_15  and  C_7 
REMARK    5  A    between atoms: N_20  and  C_7 
REMARK    6  A    between atoms: C_10  and  C_8 
REMARK    7  A    between atoms: S_30  and  C_8 
REMARK    8  A    between atoms: C_13  and  C_9 
REMARK    9  A    between atoms: S_30  and  C_9 
REMARK   10  A    between atoms: C_17  and  C_12 
REMARK   11  A    between atoms: C_12  and  N_19 
REMARK   12  A    between atoms: C_16  and  C_13 
REMARK   13  A    between atoms: C_13  and  N_22 
REMARK   14  A    between atoms: C_14  and  O_24 
REMARK   15  A    between atoms: O_26  and  C_15 
REMARK   16  A    between atoms: O_27  and  C_16 
REMARK   17  A    between atoms: O_29  and  C_17 
ROOT
HETATM    1  C   UNK N   1      23.890  17.185   4.889  0.00  0.00     0.167 C 
ENDROOT
BRANCH   1   2
HETATM    2  C   UNK N   1      24.238  15.703   5.090  0.00  0.00     0.107 C 
BRANCH   2   3
HETATM    3  S   UNK N   1      25.361  15.388   6.500  0.00  0.00    -0.162 SA
BRANCH   3   4
HETATM    4  C   UNK N   1      26.784  14.926   5.455  0.00  0.00     0.113 C 
BRANCH   4   5
HETATM    5  C   UNK N   1      27.996  15.690   5.871  0.00  0.00    -0.032 A 
HETATM    6  C   UNK N   1      27.827  16.842   6.649  0.00  0.00     0.009 A 
HETATM    7  C   UNK N   1      28.933  17.585   7.063  0.00  0.00     0.001 A 
HETATM    8  C   UNK N   1      30.219  17.182   6.700  0.00  0.00     0.001 A 
HETATM    9  C   UNK N   1      30.400  16.035   5.927  0.00  0.00     0.019 A 
HETATM   10  C   UNK N   1      29.300  15.281   5.510  0.00  0.00     0.013 A 
HETATM   11  I   UNK N   1      29.698  13.561   4.346  0.00  0.00    -0.044 I 
ENDBRANCH   4   5
ENDBRANCH   3   4
ENDBRANCH   2   3
ENDBRANCH   1   2
BRANCH   1  12
HETATM   12  C   UNK N   1      25.083  18.084   4.624  0.00  0.00     0.136 C 
HETATM   13  N   UNK N   1      25.296  19.122   5.353  0.00  0.00    -0.363 N 
ATOM     14  HN  UNK N   1      24.695  19.296   6.160  1.00  0.00     0.161 HD
BRANCH  13  15
HETATM   15  C   UNK N   1      26.366  20.048   5.061  0.00  0.00     0.231 C 
BRANCH  15  16
HETATM   16  C   UNK N   1      26.778  20.814   6.281  0.00  0.00     0.158 C 
HETATM   17  O   UNK N   1      27.264  21.930   6.185  0.00  0.00    -0.649 OA
BRANCH  16  18
HETATM   18  O   UNK N   1      26.626  20.256   7.496  0.00  0.00    -0.775 OA
HETATM   19  H   UNK N   1      27.159  19.555   7.819  0.00  0.00     0.167 HD
ENDBRANCH  16  18
ENDBRANCH  15  16
ENDBRANCH  13  15
BRANCH  12  20
HETATM   20  O   UNK N   1      25.871  17.837   3.553  0.00  0.00    -0.348 OA
HETATM   21  H   UNK N   1      26.292  18.370   2.907  0.00  0.00     0.219 HD
ENDBRANCH  12  20
ENDBRANCH   1  12
BRANCH   1  22
HETATM   22  N   UNK N   1      23.044  17.661   5.974  0.00  0.00    -0.362 N 
HETATM   23  C   UNK N   1      21.813  18.038   5.880  0.00  0.00     0.111 C 
ATOM     24  HN  UNK N   1      23.468  17.701   6.901  1.00  0.00     0.162 HD
BRANCH  23  25
HETATM   25  C   UNK N   1      21.074  18.057   4.567  0.00  0.00     0.086 C 
BRANCH  25  26
HETATM   26  C   UNK N   1      21.084  19.415   3.861  0.00  0.00     0.043 C 
BRANCH  26  27
HETATM   27  C   UNK N   1      20.653  19.377   2.392  0.00  0.00     0.173 C 
BRANCH  27  28
HETATM   28  C   UNK N   1      21.083  20.643   1.705  0.00  0.00     0.163 C 
HETATM   29  O   UNK N   1      21.197  20.685   0.490  0.00  0.00    -0.648 OA
BRANCH  28  30
HETATM   30  O   UNK N   1      21.359  21.739   2.436  0.00  0.00    -0.775 OA
HETATM   31  H   UNK N   1      22.105  21.766   3.003  0.00  0.00     0.167 HD
ENDBRANCH  28  30
ENDBRANCH  27  28
BRANCH  27  32
HETATM   32  N   UNK N   1      19.208  19.208   2.297  0.00  0.00    -0.418 N 
HETATM   33  H   UNK N   1      18.786  18.287   2.422  0.00  0.00     0.150 HD
HETATM   34  H   UNK N   1      18.615  20.015   2.105  0.00  0.00     0.150 HD
ENDBRANCH  27  32
ENDBRANCH  26  27
ENDBRANCH  25  26
ENDBRANCH  23  25
BRANCH  23  35
HETATM   35  O   UNK N   1      21.192  18.486   6.988  0.00  0.00    -0.350 OA
HETATM   36  H   UNK N   1      20.675  18.170   7.703  0.00  0.00     0.219 HD
ENDBRANCH  23  35
ENDBRANCH   1  22
TORSDOF 17
ENDMDL
MODEL 9
REMARK VINA RESULT:      -6.2     13.963     16.908
REMARK  17 active torsions:
REMARK  status: ('A' for Active; 'I' for Inactive)
REMARK    1  A    between atoms: C_6  and  C_5 
REMARK    2  A    between atoms: C_12  and  C_5 
REMARK    3  A    between atoms: C_14  and  C_6 
REMARK    4  A    between atoms: C_15  and  C_7 
REMARK    5  A    between atoms: N_20  and  C_7 
REMARK    6  A    between atoms: C_10  and  C_8 
REMARK    7  A    between atoms: S_30  and  C_8 
REMARK    8  A    between atoms: C_13  and  C_9 
REMARK    9  A    between atoms: S_30  and  C_9 
REMARK   10  A    between atoms: C_17  and  C_12 
REMARK   11  A    between atoms: C_12  and  N_19 
REMARK   12  A    between atoms: C_16  and  C_13 
REMARK   13  A    between atoms: C_13  and  N_22 
REMARK   14  A    between atoms: C_14  and  O_24 
REMARK   15  A    between atoms: O_26  and  C_15 
REMARK   16  A    between atoms: O_27  and  C_16 
REMARK   17  A    between atoms: O_29  and  C_17 
ROOT
HETATM    1  C   UNK N   1      35.714  14.629  12.382  0.00  0.00     0.167 C 
ENDROOT
BRANCH   1   2
HETATM    2  C   UNK N   1      35.851  13.180  11.893  0.00  0.00     0.107 C 
BRANCH   2   3
HETATM    3  S   UNK N   1      37.578  12.659  11.588  0.00  0.00    -0.162 SA
BRANCH   3   4
HETATM    4  C   UNK N   1      37.167  10.891  11.396  0.00  0.00     0.113 C 
BRANCH   4   5
HETATM    5  C   UNK N   1      36.906  10.277  12.731  0.00  0.00    -0.032 A 
HETATM    6  C   UNK N   1      37.947  10.239  13.665  0.00  0.00     0.009 A 
HETATM    7  C   UNK N   1      37.746   9.678  14.927  0.00  0.00     0.001 A 
HETATM    8  C   UNK N   1      36.500   9.147  15.263  0.00  0.00     0.001 A 
HETATM    9  C   UNK N   1      35.454   9.181  14.341  0.00  0.00     0.019 A 
HETATM   10  C   UNK N   1      35.643   9.745  13.076  0.00  0.00     0.013 A 
HETATM   11  I   UNK N   1      33.985   9.743  11.764  0.00  0.00    -0.044 I 
ENDBRANCH   4   5
ENDBRANCH   3   4
ENDBRANCH   2   3
ENDBRANCH   1   2
BRANCH   1  12
HETATM   12  C   UNK N   1      35.739  15.672  11.281  0.00  0.00     0.136 C 
HETATM   13  N   UNK N   1      34.655  16.012  10.676  0.00  0.00    -0.363 N 
ATOM     14  HN  UNK N   1      33.765  15.625  10.994  1.00  0.00     0.161 HD
BRANCH  13  15
HETATM   15  C   UNK N   1      34.664  16.928   9.559  0.00  0.00     0.231 C 
BRANCH  15  16
HETATM   16  C   UNK N   1      34.552  16.201   8.253  0.00  0.00     0.158 C 
HETATM   17  O   UNK N   1      34.379  14.993   8.221  0.00  0.00    -0.649 OA
BRANCH  16  18
HETATM   18  O   UNK N   1      34.660  16.889   7.101  0.00  0.00    -0.775 OA
HETATM   19  H   UNK N   1      33.947  17.341   6.695  0.00  0.00     0.167 HD
ENDBRANCH  16  18
ENDBRANCH  15  16
ENDBRANCH  13  15
BRANCH  12  20
HETATM   20  O   UNK N   1      36.925  16.177  10.874  0.00  0.00    -0.348 OA
HETATM   21  H   UNK N   1      37.617  16.654  11.290  0.00  0.00     0.219 HD
ENDBRANCH  12  20
ENDBRANCH   1  12
BRANCH   1  22
HETATM   22  N   UNK N   1      36.668  14.899  13.448  0.00  0.00    -0.362 N 
HETATM   23  C   UNK N   1      36.670  14.376  14.628  0.00  0.00     0.111 C 
ATOM     24  HN  UNK N   1      37.408  15.570  13.241  1.00  0.00     0.162 HD
BRANCH  23  25
HETATM   25  C   UNK N   1      35.618  13.394  15.077  0.00  0.00     0.086 C 
BRANCH  25  26
HETATM   26  C   UNK N   1      36.027  12.544  16.282  0.00  0.00     0.043 C 
BRANCH  26  27
HETATM   27  C   UNK N   1      34.987  12.481  17.404  0.00  0.00     0.173 C 
BRANCH  27  28
HETATM   28  C   UNK N   1      35.283  13.539  18.429  0.00  0.00     0.163 C 
HETATM   29  O   UNK N   1      35.746  14.619  18.096  0.00  0.00    -0.648 OA
BRANCH  28  30
HETATM   30  O   UNK N   1      35.049  13.290  19.732  0.00  0.00    -0.775 OA
HETATM   31  H   UNK N   1      34.409  12.658  19.996  0.00  0.00     0.167 HD
ENDBRANCH  28  30
ENDBRANCH  27  28
BRANCH  27  32
HETATM   32  N   UNK N   1      34.989  11.158  18.016  0.00  0.00    -0.418 N 
HETATM   33  H   UNK N   1      34.282  10.907  18.709  0.00  0.00     0.150 HD
HETATM   34  H   UNK N   1      35.701  10.478  17.751  0.00  0.00     0.150 HD
ENDBRANCH  27  32
ENDBRANCH  26  27
ENDBRANCH  25  26
ENDBRANCH  23  25
BRANCH  23  35
HETATM   35  O   UNK N   1      37.613  14.772  15.504  0.00  0.00    -0.350 OA
HETATM   36  H   UNK N   1      37.703  15.280  16.287  0.00  0.00     0.219 HD
ENDBRANCH  23  35
ENDBRANCH   1  22
TORSDOF 17
ENDMDL
