REMARK  7 active torsions:
REMARK  status: ('A' for Active; 'I' for Inactive)
REMARK    1  A    between atoms: C_2  and  N_1 
REMARK    2  A    between atoms: C_2  and  C_3 
REMARK    3  A    between atoms: C_2  and  C_10 
REMARK    4  A    between atoms: C_3  and  C_4 
REMARK    5  A    between atoms: C_4  and  S_5 
REMARK    6  A    between atoms: S_5  and  C_6 
REMARK    7  A    between atoms: C_10  and  O_11 
ROOT
HETATM    1  C   UNK N   1       5.460   2.293   0.388  0.00  0.00     0.174 C 
ENDROOT
BRANCH   1   2
HETATM    2  N   UNK N   1       5.958   3.589  -0.041  0.00  0.00    -0.418 N 
HETATM    3  H   UNK N   1       6.920   3.741  -0.343  0.00  0.00     0.150 HD
HETATM    4  H   UNK N   1       5.316   4.382  -0.041  0.00  0.00     0.150 HD
ENDBRANCH   1   2
BRANCH   1   5
HETATM    5  C   UNK N   1       4.126   2.014  -0.282  0.00  0.00     0.046 C 
BRANCH   5   6
HETATM    6  C   UNK N   1       3.177   1.416   0.741  0.00  0.00     0.085 C 
BRANCH   6   7
HETATM    7  S   UNK N   1       1.819   0.533  -0.087  0.00  0.00    -0.056 SA
BRANCH   7   8
HETATM    8  C   UNK N   1       0.707   1.974  -0.174  0.00  0.00     0.443 C 
HETATM    9  F   UNK N   1       0.504   2.509   1.085  0.00  0.00    -0.160 F 
HETATM   10  F   UNK N   1      -0.511   1.557  -0.676  0.00  0.00    -0.160 F 
HETATM   11  F   UNK N   1       1.234   2.929  -1.022  0.00  0.00    -0.160 F 
ENDBRANCH   7   8
ENDBRANCH   6   7
ENDBRANCH   5   6
ENDBRANCH   1   5
BRANCH   1  12
HETATM   12  C   UNK N   1       6.458   1.209   0.080  0.00  0.00     0.163 C 
HETATM   13  O   UNK N   1       6.195   0.046   0.338  0.00  0.00    -0.648 OA
BRANCH  12  14
HETATM   14  O   UNK N   1       7.654   1.515  -0.463  0.00  0.00    -0.775 OA
HETATM   15  H   UNK N   1       8.253   0.902  -0.841  0.00  0.00     0.167 HD
ENDBRANCH  12  14
ENDBRANCH   1  12
TORSDOF 7
