MODEL 1
REMARK VINA RESULT:      -4.3      0.000      0.000
REMARK  8 active torsions:
REMARK  status: ('A' for Active; 'I' for Inactive)
REMARK    1  A    between atoms: C_2  and  N_1 
REMARK    2  A    between atoms: C_2  and  C_3 
REMARK    3  A    between atoms: C_2  and  C_9 
REMARK    4  A    between atoms: C_3  and  S_4 
REMARK    5  A    between atoms: S_4  and  P_5 
REMARK    6  A    between atoms: P_5  and  O_6 
REMARK    7  A    between atoms: P_5  and  O_7 
REMARK    8  A    between atoms: C_9  and  O_10 
ROOT
HETATM    1  C   UNK N   1      34.866  15.167  10.010  0.00  0.00     0.183 C 
ENDROOT
BRANCH   1   2
HETATM    2  N   UNK N   1      33.552  15.259  10.625  0.00  0.00    -0.417 N 
HETATM    3  H   UNK N   1      33.440  15.422  11.625  0.00  0.00     0.150 HD
HETATM    4  H   UNK N   1      32.721  15.157  10.042  0.00  0.00     0.150 HD
ENDBRANCH   1   2
BRANCH   1   5
HETATM    5  C   UNK N   1      34.717  15.169   8.498  0.00  0.00     0.121 C 
BRANCH   5   6
HETATM    6  S   UNK N   1      33.007  15.632   8.090  0.00  0.00    -0.049 SA
BRANCH   6   7
HETATM    7  P   UNK N   1      33.582  17.402   6.999  0.00  0.00     0.301 P 
HETATM    8  O   UNK N   1      34.828  16.478   7.033  0.00  0.00    -0.645 OA
BRANCH   7   9
HETATM    9  O   UNK N   1      34.755  18.543   7.576  0.00  0.00    -0.321 OA
HETATM   10  H   UNK N   1      35.178  18.449   8.445  0.00  0.00     0.221 HD
ENDBRANCH   7   9
BRANCH   7  11
HETATM   11  O   UNK N   1      33.142  17.716   8.649  0.00  0.00    -0.321 OA
HETATM   12  H   UNK N   1      33.150  17.243   9.496  0.00  0.00     0.221 HD
ENDBRANCH   7  11
ENDBRANCH   6   7
ENDBRANCH   5   6
ENDBRANCH   1   5
BRANCH   1  13
HETATM   13  C   UNK N   1      35.758  16.277  10.491  0.00  0.00     0.163 C 
HETATM   14  O   UNK N   1      35.411  17.441  10.358  0.00  0.00    -0.648 OA
BRANCH  13  15
HETATM   15  O   UNK N   1      36.959  16.002  11.037  0.00  0.00    -0.775 OA
HETATM   16  H   UNK N   1      37.478  15.256  10.805  0.00  0.00     0.167 HD
ENDBRANCH  13  15
ENDBRANCH   1  13
TORSDOF 8
ENDMDL
MODEL 2
REMARK VINA RESULT:      -4.2      3.085      4.466
REMARK  8 active torsions:
REMARK  status: ('A' for Active; 'I' for Inactive)
REMARK    1  A    between atoms: C_2  and  N_1 
REMARK    2  A    between atoms: C_2  and  C_3 
REMARK    3  A    between atoms: C_2  and  C_9 
REMARK    4  A    between atoms: C_3  and  S_4 
REMARK    5  A    between atoms: S_4  and  P_5 
REMARK    6  A    between atoms: P_5  and  O_6 
REMARK    7  A    between atoms: P_5  and  O_7 
REMARK    8  A    between atoms: C_9  and  O_10 
ROOT
HETATM    1  C   UNK N   1      34.240  17.263   9.272  0.00  0.00     0.183 C 
ENDROOT
BRANCH   1   2
HETATM    2  N   UNK N   1      32.852  16.873   9.083  0.00  0.00    -0.417 N 
HETATM    3  H   UNK N   1      32.177  16.918   9.845  0.00  0.00     0.150 HD
HETATM    4  H   UNK N   1      32.548  16.547   8.166  0.00  0.00     0.150 HD
ENDBRANCH   1   2
BRANCH   1   5
HETATM    5  C   UNK N   1      35.109  16.018   9.347  0.00  0.00     0.121 C 
BRANCH   5   6
HETATM    6  S   UNK N   1      35.900  15.968  10.983  0.00  0.00    -0.049 SA
BRANCH   6   7
HETATM    7  P   UNK N   1      35.257  13.953  11.404  0.00  0.00     0.301 P 
HETATM    8  O   UNK N   1      33.977  14.829  11.375  0.00  0.00    -0.645 OA
BRANCH   7   9
HETATM    9  O   UNK N   1      34.557  13.467  12.916  0.00  0.00    -0.321 OA
HETATM   10  H   UNK N   1      35.058  12.957  13.572  0.00  0.00     0.221 HD
ENDBRANCH   7   9
BRANCH   7  11
HETATM   11  O   UNK N   1      36.297  14.618  12.624  0.00  0.00    -0.321 OA
HETATM   12  H   UNK N   1      37.249  14.699  12.789  0.00  0.00     0.221 HD
ENDBRANCH   7  11
ENDBRANCH   6   7
ENDBRANCH   5   6
ENDBRANCH   1   5
BRANCH   1  13
HETATM   13  C   UNK N   1      34.685  18.197   8.182  0.00  0.00     0.163 C 
HETATM   14  O   UNK N   1      35.225  19.255   8.467  0.00  0.00    -0.648 OA
BRANCH  13  15
HETATM   15  O   UNK N   1      34.461  17.894   6.888  0.00  0.00    -0.775 OA
HETATM   16  H   UNK N   1      35.061  17.409   6.355  0.00  0.00     0.167 HD
ENDBRANCH  13  15
ENDBRANCH   1  13
TORSDOF 8
ENDMDL
MODEL 3
REMARK VINA RESULT:      -4.2      3.148      4.011
REMARK  8 active torsions:
REMARK  status: ('A' for Active; 'I' for Inactive)
REMARK    1  A    between atoms: C_2  and  N_1 
REMARK    2  A    between atoms: C_2  and  C_3 
REMARK    3  A    between atoms: C_2  and  C_9 
REMARK    4  A    between atoms: C_3  and  S_4 
REMARK    5  A    between atoms: S_4  and  P_5 
REMARK    6  A    between atoms: P_5  and  O_6 
REMARK    7  A    between atoms: P_5  and  O_7 
REMARK    8  A    between atoms: C_9  and  O_10 
ROOT
HETATM    1  C   UNK N   1      34.077  17.355   9.208  0.00  0.00     0.183 C 
ENDROOT
BRANCH   1   2
HETATM    2  N   UNK N   1      32.708  16.985   8.884  0.00  0.00    -0.417 N 
HETATM    3  H   UNK N   1      32.367  16.033   9.014  0.00  0.00     0.150 HD
HETATM    4  H   UNK N   1      32.074  17.695   8.518  0.00  0.00     0.150 HD
ENDBRANCH   1   2
BRANCH   1   5
HETATM    5  C   UNK N   1      34.908  16.098   9.397  0.00  0.00     0.121 C 
BRANCH   5   6
HETATM    6  S   UNK N   1      35.472  16.038  11.125  0.00  0.00    -0.049 SA
BRANCH   6   7
HETATM    7  P   UNK N   1      35.019  13.943  11.362  0.00  0.00     0.301 P 
HETATM    8  O   UNK N   1      35.766  14.084  10.010  0.00  0.00    -0.645 OA
BRANCH   7   9
HETATM    9  O   UNK N   1      33.908  13.082  10.343  0.00  0.00    -0.321 OA
HETATM   10  H   UNK N   1      33.018  12.840  10.644  0.00  0.00     0.221 HD
ENDBRANCH   7   9
BRANCH   7  11
HETATM   11  O   UNK N   1      33.609  14.951  11.267  0.00  0.00    -0.321 OA
HETATM   12  H   UNK N   1      33.185  15.643  11.798  0.00  0.00     0.221 HD
ENDBRANCH   7  11
ENDBRANCH   6   7
ENDBRANCH   5   6
ENDBRANCH   1   5
BRANCH   1  13
HETATM   13  C   UNK N   1      34.649  18.258   8.151  0.00  0.00     0.163 C 
HETATM   14  O   UNK N   1      35.326  19.223   8.474  0.00  0.00    -0.648 OA
BRANCH  13  15
HETATM   15  O   UNK N   1      34.393  18.033   6.848  0.00  0.00    -0.775 OA
HETATM   16  H   UNK N   1      33.617  17.610   6.535  0.00  0.00     0.167 HD
ENDBRANCH  13  15
ENDBRANCH   1  13
TORSDOF 8
ENDMDL
MODEL 4
REMARK VINA RESULT:      -4.0      3.616      4.593
REMARK  8 active torsions:
REMARK  status: ('A' for Active; 'I' for Inactive)
REMARK    1  A    between atoms: C_2  and  N_1 
REMARK    2  A    between atoms: C_2  and  C_3 
REMARK    3  A    between atoms: C_2  and  C_9 
REMARK    4  A    between atoms: C_3  and  S_4 
REMARK    5  A    between atoms: S_4  and  P_5 
REMARK    6  A    between atoms: P_5  and  O_6 
REMARK    7  A    between atoms: P_5  and  O_7 
REMARK    8  A    between atoms: C_9  and  O_10 
ROOT
HETATM    1  C   UNK N   1      33.113  17.318   8.350  0.00  0.00     0.183 C 
ENDROOT
BRANCH   1   2
HETATM    2  N   UNK N   1      33.577  16.853   9.648  0.00  0.00    -0.417 N 
HETATM    3  H   UNK N   1      33.904  17.503  10.362  0.00  0.00     0.150 HD
HETATM    4  H   UNK N   1      33.577  15.853   9.847  0.00  0.00     0.150 HD
ENDBRANCH   1   2
BRANCH   1   5
HETATM    5  C   UNK N   1      31.817  18.092   8.526  0.00  0.00     0.121 C 
BRANCH   5   6
HETATM    6  S   UNK N   1      30.460  17.105   7.826  0.00  0.00    -0.049 SA
BRANCH   6   7
HETATM    7  P   UNK N   1      28.925  18.479   8.465  0.00  0.00     0.301 P 
HETATM    8  O   UNK N   1      29.663  18.012   9.747  0.00  0.00    -0.645 OA
BRANCH   7   9
HETATM    9  O   UNK N   1      27.552  18.007   9.416  0.00  0.00    -0.321 OA
HETATM   10  H   UNK N   1      27.536  17.175   9.915  0.00  0.00     0.221 HD
ENDBRANCH   7   9
BRANCH   7  11
HETATM   11  O   UNK N   1      28.303  17.055   7.693  0.00  0.00    -0.321 OA
HETATM   12  H   UNK N   1      28.003  16.171   7.954  0.00  0.00     0.221 HD
ENDBRANCH   7  11
ENDBRANCH   6   7
ENDBRANCH   5   6
ENDBRANCH   1   5
BRANCH   1  13
HETATM   13  C   UNK N   1      34.172  18.136   7.666  0.00  0.00     0.163 C 
HETATM   14  O   UNK N   1      34.379  17.989   6.471  0.00  0.00    -0.648 OA
BRANCH  13  15
HETATM   15  O   UNK N   1      34.923  19.007   8.368  0.00  0.00    -0.775 OA
HETATM   16  H   UNK N   1      35.562  18.749   9.004  0.00  0.00     0.167 HD
ENDBRANCH  13  15
ENDBRANCH   1  13
TORSDOF 8
ENDMDL
MODEL 5
REMARK VINA RESULT:      -4.0      3.443      4.801
REMARK  8 active torsions:
REMARK  status: ('A' for Active; 'I' for Inactive)
REMARK    1  A    between atoms: C_2  and  N_1 
REMARK    2  A    between atoms: C_2  and  C_3 
REMARK    3  A    between atoms: C_2  and  C_9 
REMARK    4  A    between atoms: C_3  and  S_4 
REMARK    5  A    between atoms: S_4  and  P_5 
REMARK    6  A    between atoms: P_5  and  O_6 
REMARK    7  A    between atoms: P_5  and  O_7 
REMARK    8  A    between atoms: C_9  and  O_10 
ROOT
HETATM    1  C   UNK N   1      35.051  14.974   9.978  0.00  0.00     0.183 C 
ENDROOT
BRANCH   1   2
HETATM    2  N   UNK N   1      35.962  14.193   9.158  0.00  0.00    -0.417 N 
HETATM    3  H   UNK N   1      36.867  14.560   8.866  0.00  0.00     0.150 HD
HETATM    4  H   UNK N   1      35.690  13.254   8.869  0.00  0.00     0.150 HD
ENDBRANCH   1   2
BRANCH   1   5
HETATM    5  C   UNK N   1      34.541  14.118  11.125  0.00  0.00     0.121 C 
BRANCH   5   6
HETATM    6  S   UNK N   1      35.584  12.632  11.238  0.00  0.00    -0.049 SA
BRANCH   6   7
HETATM    7  P   UNK N   1      36.277  13.082  13.230  0.00  0.00     0.301 P 
HETATM    8  O   UNK N   1      34.962  13.881  13.028  0.00  0.00    -0.645 OA
BRANCH   7   9
HETATM    9  O   UNK N   1      36.831  14.653  13.720  0.00  0.00    -0.321 OA
HETATM   10  H   UNK N   1      37.638  15.048  13.354  0.00  0.00     0.221 HD
ENDBRANCH   7   9
BRANCH   7  11
HETATM   11  O   UNK N   1      37.372  13.590  11.984  0.00  0.00    -0.321 OA
HETATM   12  H   UNK N   1      38.121  14.199  11.891  0.00  0.00     0.221 HD
ENDBRANCH   7  11
ENDBRANCH   6   7
ENDBRANCH   5   6
ENDBRANCH   1   5
BRANCH   1  13
HETATM   13  C   UNK N   1      35.716  16.232  10.465  0.00  0.00     0.163 C 
HETATM   14  O   UNK N   1      35.140  17.305  10.364  0.00  0.00    -0.648 OA
BRANCH  13  15
HETATM   15  O   UNK N   1      36.961  16.192  10.978  0.00  0.00    -0.775 OA
HETATM   16  H   UNK N   1      37.550  16.922  10.972  0.00  0.00     0.167 HD
ENDBRANCH  13  15
ENDBRANCH   1  13
TORSDOF 8
ENDMDL
MODEL 6
REMARK VINA RESULT:      -3.9     14.435     15.009
REMARK  8 active torsions:
REMARK  status: ('A' for Active; 'I' for Inactive)
REMARK    1  A    between atoms: C_2  and  N_1 
REMARK    2  A    between atoms: C_2  and  C_3 
REMARK    3  A    between atoms: C_2  and  C_9 
REMARK    4  A    between atoms: C_3  and  S_4 
REMARK    5  A    between atoms: S_4  and  P_5 
REMARK    6  A    between atoms: P_5  and  O_6 
REMARK    7  A    between atoms: P_5  and  O_7 
REMARK    8  A    between atoms: C_9  and  O_10 
ROOT
HETATM    1  C   UNK N   1      45.619  24.727   0.589  0.00  0.00     0.183 C 
ENDROOT
BRANCH   1   2
HETATM    2  N   UNK N   1      46.487  23.693   0.049  0.00  0.00    -0.417 N 
HETATM    3  H   UNK N   1      46.563  22.777   0.489  0.00  0.00     0.150 HD
HETATM    4  H   UNK N   1      47.031  23.889  -0.791  0.00  0.00     0.150 HD
ENDBRANCH   1   2
BRANCH   1   5
HETATM    5  C   UNK N   1      44.257  24.131   0.903  0.00  0.00     0.121 C 
BRANCH   5   6
HETATM    6  S   UNK N   1      44.489  22.395   1.390  0.00  0.00    -0.049 SA
BRANCH   6   7
HETATM    7  P   UNK N   1      43.404  22.608   3.242  0.00  0.00     0.301 P 
HETATM    8  O   UNK N   1      42.901  23.735   2.302  0.00  0.00    -0.645 OA
BRANCH   7   9
HETATM    9  O   UNK N   1      43.592  23.963   4.311  0.00  0.00    -0.321 OA
HETATM   10  H   UNK N   1      42.829  24.451   4.658  0.00  0.00     0.221 HD
ENDBRANCH   7   9
BRANCH   7  11
HETATM   11  O   UNK N   1      45.118  22.822   3.414  0.00  0.00    -0.321 OA
HETATM   12  H   UNK N   1      45.927  22.497   2.989  0.00  0.00     0.221 HD
ENDBRANCH   7  11
ENDBRANCH   6   7
ENDBRANCH   5   6
ENDBRANCH   1   5
BRANCH   1  13
HETATM   13  C   UNK N   1      46.246  25.372   1.794  0.00  0.00     0.163 C 
HETATM   14  O   UNK N   1      45.544  25.726   2.730  0.00  0.00    -0.648 OA
BRANCH  13  15
HETATM   15  O   UNK N   1      47.573  25.599   1.836  0.00  0.00    -0.775 OA
HETATM   16  H   UNK N   1      48.141  25.246   2.494  0.00  0.00     0.167 HD
ENDBRANCH  13  15
ENDBRANCH   1  13
TORSDOF 8
ENDMDL
MODEL 7
REMARK VINA RESULT:      -3.7     12.230     12.655
REMARK  8 active torsions:
REMARK  status: ('A' for Active; 'I' for Inactive)
REMARK    1  A    between atoms: C_2  and  N_1 
REMARK    2  A    between atoms: C_2  and  C_3 
REMARK    3  A    between atoms: C_2  and  C_9 
REMARK    4  A    between atoms: C_3  and  S_4 
REMARK    5  A    between atoms: S_4  and  P_5 
REMARK    6  A    between atoms: P_5  and  O_6 
REMARK    7  A    between atoms: P_5  and  O_7 
REMARK    8  A    between atoms: C_9  and  O_10 
ROOT
HETATM    1  C   UNK N   1      43.496  22.443   3.531  0.00  0.00     0.183 C 
ENDROOT
BRANCH   1   2
HETATM    2  N   UNK N   1      43.543  23.817   4.007  0.00  0.00    -0.417 N 
HETATM    3  H   UNK N   1      44.225  24.483   3.647  0.00  0.00     0.150 HD
HETATM    4  H   UNK N   1      42.877  24.120   4.717  0.00  0.00     0.150 HD
ENDBRANCH   1   2
BRANCH   1   5
HETATM    5  C   UNK N   1      43.132  22.432   2.056  0.00  0.00     0.121 C 
BRANCH   5   6
HETATM    6  S   UNK N   1      41.332  22.221   1.911  0.00  0.00    -0.049 SA
BRANCH   6   7
HETATM    7  P   UNK N   1      41.121  23.739   0.393  0.00  0.00     0.301 P 
HETATM    8  O   UNK N   1      42.519  23.097   0.187  0.00  0.00    -0.645 OA
BRANCH   7   9
HETATM    9  O   UNK N   1      42.082  25.183   0.343  0.00  0.00    -0.321 OA
HETATM   10  H   UNK N   1      43.049  25.159   0.426  0.00  0.00     0.221 HD
ENDBRANCH   7   9
BRANCH   7  11
HETATM   11  O   UNK N   1      41.088  24.366   2.011  0.00  0.00    -0.321 OA
HETATM   12  H   UNK N   1      41.470  24.145   2.874  0.00  0.00     0.221 HD
ENDBRANCH   7  11
ENDBRANCH   6   7
ENDBRANCH   5   6
ENDBRANCH   1   5
BRANCH   1  13
HETATM   13  C   UNK N   1      44.799  21.742   3.798  0.00  0.00     0.163 C 
HETATM   14  O   UNK N   1      44.891  20.537   3.616  0.00  0.00    -0.648 OA
BRANCH  13  15
HETATM   15  O   UNK N   1      45.859  22.425   4.271  0.00  0.00    -0.775 OA
HETATM   16  H   UNK N   1      45.791  23.246   4.719  0.00  0.00     0.167 HD
ENDBRANCH  13  15
ENDBRANCH   1  13
TORSDOF 8
ENDMDL
MODEL 8
REMARK VINA RESULT:      -3.6      2.859      3.510
REMARK  8 active torsions:
REMARK  status: ('A' for Active; 'I' for Inactive)
REMARK    1  A    between atoms: C_2  and  N_1 
REMARK    2  A    between atoms: C_2  and  C_3 
REMARK    3  A    between atoms: C_2  and  C_9 
REMARK    4  A    between atoms: C_3  and  S_4 
REMARK    5  A    between atoms: S_4  and  P_5 
REMARK    6  A    between atoms: P_5  and  O_6 
REMARK    7  A    between atoms: P_5  and  O_7 
REMARK    8  A    between atoms: C_9  and  O_10 
ROOT
HETATM    1  C   UNK N   1      33.695  17.766   7.295  0.00  0.00     0.183 C 
ENDROOT
BRANCH   1   2
HETATM    2  N   UNK N   1      34.503  16.958   6.396  0.00  0.00    -0.417 N 
HETATM    3  H   UNK N   1      34.339  15.958   6.283  0.00  0.00     0.150 HD
HETATM    4  H   UNK N   1      35.253  17.402   5.867  0.00  0.00     0.150 HD
ENDBRANCH   1   2
BRANCH   1   5
HETATM    5  C   UNK N   1      32.446  16.993   7.683  0.00  0.00     0.121 C 
BRANCH   5   6
HETATM    6  S   UNK N   1      32.631  15.278   7.110  0.00  0.00    -0.049 SA
BRANCH   6   7
HETATM    7  P   UNK N   1      32.443  14.435   9.087  0.00  0.00     0.301 P 
HETATM    8  O   UNK N   1      31.759  15.827   9.132  0.00  0.00    -0.645 OA
BRANCH   7   9
HETATM    9  O   UNK N   1      33.237  15.086  10.485  0.00  0.00    -0.321 OA
HETATM   10  H   UNK N   1      33.102  16.003  10.771  0.00  0.00     0.221 HD
ENDBRANCH   7   9
BRANCH   7  11
HETATM   11  O   UNK N   1      34.087  14.695   8.598  0.00  0.00    -0.321 OA
HETATM   12  H   UNK N   1      34.630  14.561   7.805  0.00  0.00     0.221 HD
ENDBRANCH   7  11
ENDBRANCH   6   7
ENDBRANCH   5   6
ENDBRANCH   1   5
BRANCH   1  13
HETATM   13  C   UNK N   1      34.494  18.189   8.496  0.00  0.00     0.163 C 
HETATM   14  O   UNK N   1      35.248  19.147   8.421  0.00  0.00    -0.648 OA
BRANCH  13  15
HETATM   15  O   UNK N   1      34.413  17.496   9.649  0.00  0.00    -0.775 OA
HETATM   16  H   UNK N   1      33.791  17.682  10.326  0.00  0.00     0.167 HD
ENDBRANCH  13  15
ENDBRANCH   1  13
TORSDOF 8
ENDMDL
MODEL 9
REMARK VINA RESULT:      -3.6      2.273      2.747
REMARK  8 active torsions:
REMARK  status: ('A' for Active; 'I' for Inactive)
REMARK    1  A    between atoms: C_2  and  N_1 
REMARK    2  A    between atoms: C_2  and  C_3 
REMARK    3  A    between atoms: C_2  and  C_9 
REMARK    4  A    between atoms: C_3  and  S_4 
REMARK    5  A    between atoms: S_4  and  P_5 
REMARK    6  A    between atoms: P_5  and  O_6 
REMARK    7  A    between atoms: P_5  and  O_7 
REMARK    8  A    between atoms: C_9  and  O_10 
ROOT
HETATM    1  C   UNK N   1      36.042  15.405  11.643  0.00  0.00     0.183 C 
ENDROOT
BRANCH   1   2
HETATM    2  N   UNK N   1      37.010  14.947  10.659  0.00  0.00    -0.417 N 
HETATM    3  H   UNK N   1      36.782  14.901   9.667  0.00  0.00     0.150 HD
HETATM    4  H   UNK N   1      37.940  14.666  10.970  0.00  0.00     0.150 HD
ENDBRANCH   1   2
BRANCH   1   5
HETATM    5  C   UNK N   1      34.867  16.053  10.931  0.00  0.00     0.121 C 
BRANCH   5   6
HETATM    6  S   UNK N   1      35.045  15.761   9.146  0.00  0.00    -0.049 SA
BRANCH   6   7
HETATM    7  P   UNK N   1      34.110  17.624   8.591  0.00  0.00     0.301 P 
HETATM    8  O   UNK N   1      34.835  17.098   7.324  0.00  0.00    -0.645 OA
BRANCH   7   9
HETATM    9  O   UNK N   1      35.000  19.054   8.169  0.00  0.00    -0.321 OA
HETATM   10  H   UNK N   1      34.718  19.638   7.448  0.00  0.00     0.221 HD
ENDBRANCH   7   9
BRANCH   7  11
HETATM   11  O   UNK N   1      35.316  17.794   9.828  0.00  0.00    -0.321 OA
HETATM   12  H   UNK N   1      35.350  17.824  10.797  0.00  0.00     0.221 HD
ENDBRANCH   7  11
ENDBRANCH   6   7
ENDBRANCH   5   6
ENDBRANCH   1   5
BRANCH   1  13
HETATM   13  C   UNK N   1      35.610  14.272  12.532  0.00  0.00     0.163 C 
HETATM   14  O   UNK N   1      36.337  13.896  13.439  0.00  0.00    -0.648 OA
BRANCH  13  15
HETATM   15  O   UNK N   1      34.440  13.641  12.315  0.00  0.00    -0.775 OA
HETATM   16  H   UNK N   1      33.751  13.588  12.949  0.00  0.00     0.167 HD
ENDBRANCH  13  15
ENDBRANCH   1  13
TORSDOF 8
ENDMDL
