MODEL 1
REMARK VINA RESULT:      -7.0      0.000      0.000
REMARK  30 active torsions:
REMARK  status: ('A' for Active; 'I' for Inactive)
REMARK    1  A    between atoms: C_1  and  N_38 
REMARK    2  A    between atoms: C_3  and  O_6 
REMARK    3  A    between atoms: C_4  and  C_32 
REMARK    4  A    between atoms: C_5  and  O_33 
REMARK    5  A    between atoms: N_9  and  C_7 
REMARK    6  A    between atoms: C_7  and  C_8 
REMARK    7  A    between atoms: C_8  and  S_51 
REMARK       I    between atoms: C_10  and  N_9 
REMARK    8  A    between atoms: C_13  and  C_10 
REMARK    9  A    between atoms: C_12  and  N_14 
REMARK   10  A    between atoms: C_13  and  C_12 
REMARK       I    between atoms: C_16  and  N_14 
REMARK   11  A    between atoms: C_16  and  C_21 
REMARK   12  A    between atoms: C_19  and  C_17 
REMARK   13  A    between atoms: C_17  and  O_23 
REMARK   14  A    between atoms: C_21  and  C_19 
REMARK   15  A    between atoms: C_21  and  O_22 
REMARK   16  A    between atoms: O_23  and  P_30 
REMARK   17  A    between atoms: P_30  and  O_24 
REMARK   18  A    between atoms: O_24  and  P_31 
REMARK   19  A    between atoms: P_31  and  O_25 
REMARK   20  A    between atoms: C_32  and  O_25 
REMARK   21  A    between atoms: P_30  and  O_27 
REMARK   22  A    between atoms: O_33  and  P_36 
REMARK   23  A    between atoms: P_36  and  O_34 
REMARK   24  A    between atoms: P_36  and  O_35 
REMARK   25  A    between atoms: N_50  and  C_46 
REMARK   26  A    between atoms: S_51  and  C_53 
REMARK   27  A    between atoms: C_53  and  C_54 
REMARK   28  A    between atoms: C_54  and  C_55 
REMARK   29  A    between atoms: C_55  and  C_57 
REMARK   30  A    between atoms: C_57  and  O_58 
ROOT
HETATM    1  O   UNK N   1      26.402  16.406   5.423  0.00  0.00    -0.631 OA
HETATM    2  O   UNK N   1      26.175  16.163   2.780  0.00  0.00    -0.307 OA
HETATM    3  P   UNK N   1      26.556  15.370   4.276  0.00  0.00     0.401 P 
HETATM    4  H   UNK N   1      25.917  16.516   1.914  0.00  0.00     0.222 HD
ENDROOT
BRANCH   3   5
HETATM    5  O   UNK N   1      28.183  14.720   4.236  0.00  0.00    -0.195 OA
BRANCH   5   6
HETATM    6  P   UNK N   1      29.342  15.997   3.982  0.00  0.00     0.401 P 
HETATM    7  O   UNK N   1      30.178  15.692   2.712  0.00  0.00    -0.631 OA
BRANCH   6   8
HETATM    8  O   UNK N   1      30.357  16.399   5.351  0.00  0.00    -0.296 OA
BRANCH   8   9
HETATM    9  C   UNK N   1      31.541  15.659   5.297  0.00  0.00     0.192 C 
BRANCH   9  10
HETATM   10  C   UNK N   1      32.844  16.489   5.286  0.00  0.00     0.009 C 
HETATM   11  C   UNK N   1      33.859  15.587   4.607  0.00  0.00     0.020 C 
HETATM   12  C   UNK N   1      32.710  17.723   4.420  0.00  0.00     0.020 C 
BRANCH  10  13
HETATM   13  C   UNK N   1      33.442  16.864   6.668  0.00  0.00     0.219 C 
BRANCH  13  14
HETATM   14  C   UNK N   1      32.604  16.894   7.926  0.00  0.00     0.247 C 
HETATM   15  N   UNK N   1      31.474  17.632   8.029  0.00  0.00    -0.358 N 
HETATM   16  H   UNK N   1      31.284  18.347   7.380  0.00  0.00     0.162 HD
HETATM   17  O   UNK N   1      32.928  16.158   8.847  0.00  0.00    -0.271 OA
BRANCH  15  18
HETATM   18  C   UNK N   1      30.549  17.358   9.100  0.00  0.00     0.132 C 
BRANCH  18  19
HETATM   19  C   UNK N   1      29.508  18.431   9.306  0.00  0.00     0.122 C 
BRANCH  19  20
HETATM   20  C   UNK N   1      28.183  17.884   8.838  0.00  0.00     0.219 C 
HETATM   21  N   UNK N   1      27.628  18.239   7.645  0.00  0.00    -0.360 N 
HETATM   22  H   UNK N   1      26.751  17.855   7.414  0.00  0.00     0.162 HD
HETATM   23  O   UNK N   1      27.599  17.083   9.545  0.00  0.00    -0.274 OA
BRANCH  21  24
HETATM   24  C   UNK N   1      28.241  19.141   6.695  0.00  0.00     0.133 C 
BRANCH  24  25
HETATM   25  C   UNK N   1      27.373  20.363   6.471  0.00  0.00     0.102 C 
BRANCH  25  26
HETATM   26  S   UNK N   1      27.191  20.634   4.691  0.00  0.00    -0.091 SA
BRANCH  26  27
HETATM   27  C   UNK N   1      25.647  19.724   4.643  0.00  0.00     0.186 C 
HETATM   28  O   UNK N   1      25.136  19.340   5.682  0.00  0.00    -0.286 OA
BRANCH  27  29
HETATM   29  C   UNK N   1      24.986  19.418   3.335  0.00  0.00     0.101 C 
BRANCH  29  30
HETATM   30  C   UNK N   1      24.238  20.620   2.768  0.00  0.00     0.118 C 
BRANCH  30  31
HETATM   31  C   UNK N   1      22.751  20.509   2.894  0.00  0.00     0.139 C 
HETATM   32  O   UNK N   1      22.244  19.431   3.153  0.00  0.00    -0.650 OA
BRANCH  31  33
HETATM   33  O   UNK N   1      21.973  21.602   2.770  0.00  0.00    -0.776 OA
HETATM   34  H   UNK N   1      21.667  22.412   2.411  0.00  0.00     0.167 HD
ENDBRANCH  31  33
ENDBRANCH  30  31
ENDBRANCH  29  30
ENDBRANCH  27  29
ENDBRANCH  26  27
ENDBRANCH  25  26
ENDBRANCH  24  25
ENDBRANCH  21  24
ENDBRANCH  19  20
ENDBRANCH  18  19
ENDBRANCH  15  18
ENDBRANCH  13  14
BRANCH  13  35
HETATM   35  O   UNK N   1      34.164  18.060   6.578  0.00  0.00    -0.385 OA
HETATM   36  H   UNK N   1      34.124  18.640   5.802  0.00  0.00     0.210 HD
ENDBRANCH  13  35
ENDBRANCH  10  13
ENDBRANCH   9  10
ENDBRANCH   8   9
ENDBRANCH   6   8
BRANCH   6  37
HETATM   37  O   UNK N   1      28.455  17.425   3.553  0.00  0.00    -0.307 OA
HETATM   38  H   UNK N   1      28.195  17.662   2.648  0.00  0.00     0.222 HD
ENDBRANCH   6  37
ENDBRANCH   5   6
ENDBRANCH   3   5
BRANCH   3  39
HETATM   39  O   UNK N   1      25.394  14.104   4.593  0.00  0.00    -0.294 OA
BRANCH  39  40
HETATM   40  C   UNK N   1      24.990  14.263   5.926  0.00  0.00     0.215 C 
BRANCH  40  41
HETATM   41  C   UNK N   1      23.472  14.316   5.999  0.00  0.00     0.180 C 
HETATM   42  O   UNK N   1      23.024  15.017   7.143  0.00  0.00    -0.353 OA
HETATM   43  C   UNK N   1      21.778  14.427   7.467  0.00  0.00     0.262 C 
HETATM   44  C   UNK N   1      21.444  13.526   6.293  0.00  0.00     0.199 C 
HETATM   45  C   UNK N   1      22.783  12.969   5.994  0.00  0.00     0.197 C 
BRANCH  43  46
HETATM   46  N   UNK N   1      21.864  13.783   8.794  0.00  0.00    -0.297 N 
HETATM   47  C   UNK N   1      22.904  13.317   9.520  0.00  0.00     0.142 A 
HETATM   48  C   UNK N   1      22.438  12.749  10.651  0.00  0.00     0.122 A 
HETATM   49  N   UNK N   1      24.227  13.354   9.231  0.00  0.00    -0.336 N 
HETATM   50  C   UNK N   1      23.315  12.160  11.552  0.00  0.00     0.131 A 
HETATM   51  N   UNK N   1      21.100  12.849  10.699  0.00  0.00    -0.346 N 
HETATM   52  N   UNK N   1      24.647  12.186  11.260  0.00  0.00    -0.337 N 
HETATM   53  C   UNK N   1      25.105  12.784  10.112  0.00  0.00     0.183 A 
ATOM     54  HN  UNK N   1      25.313  11.756  11.903  1.00  0.00     0.168 HD
HETATM   55  C   UNK N   1      20.768  13.491   9.543  0.00  0.00     0.188 A 
ATOM     56  HN  UNK N   1      20.474  12.519  11.432  1.00  0.00     0.167 HD
ATOM     57  HN  UNK N   1      24.561  13.799   8.376  1.00  0.00     0.168 HD
BRANCH  50  58
HETATM   58  N   UNK N   1      22.849  11.538  12.728  0.00  0.00    -0.383 N 
HETATM   59  H   UNK N   1      22.950  11.948  13.617  0.00  0.00     0.157 HD
HETATM   60  H   UNK N   1      22.407  10.662  12.657  0.00  0.00     0.157 HD
ENDBRANCH  50  58
ENDBRANCH  43  46
BRANCH  44  61
HETATM   61  O   UNK N   1      20.425  12.598   6.502  0.00  0.00    -0.388 OA
HETATM   62  H   UNK N   1      20.619  11.693   6.789  0.00  0.00     0.210 HD
ENDBRANCH  44  61
BRANCH  45  63
HETATM   63  O   UNK N   1      22.775  12.312   4.749  0.00  0.00    -0.286 OA
BRANCH  63  64
HETATM   64  P   UNK N   1      23.347  10.676   5.007  0.00  0.00     0.391 P 
HETATM   65  O   UNK N   1      23.310   9.771   3.750  0.00  0.00    -0.632 OA
BRANCH  64  66
HETATM   66  O   UNK N   1      24.294  11.466   3.784  0.00  0.00    -0.307 OA
HETATM   67  H   UNK N   1      24.941  12.187   3.838  0.00  0.00     0.222 HD
ENDBRANCH  64  66
BRANCH  64  68
HETATM   68  O   UNK N   1      21.660  10.459   4.639  0.00  0.00    -0.307 OA
HETATM   69  H   UNK N   1      21.184   9.680   4.966  0.00  0.00     0.222 HD
ENDBRANCH  64  68
ENDBRANCH  63  64
ENDBRANCH  45  63
ENDBRANCH  40  41
ENDBRANCH  39  40
ENDBRANCH   3  39
TORSDOF 30
ENDMDL
MODEL 2
REMARK VINA RESULT:      -6.9      1.911      2.433
REMARK  30 active torsions:
REMARK  status: ('A' for Active; 'I' for Inactive)
REMARK    1  A    between atoms: C_1  and  N_38 
REMARK    2  A    between atoms: C_3  and  O_6 
REMARK    3  A    between atoms: C_4  and  C_32 
REMARK    4  A    between atoms: C_5  and  O_33 
REMARK    5  A    between atoms: N_9  and  C_7 
REMARK    6  A    between atoms: C_7  and  C_8 
REMARK    7  A    between atoms: C_8  and  S_51 
REMARK       I    between atoms: C_10  and  N_9 
REMARK    8  A    between atoms: C_13  and  C_10 
REMARK    9  A    between atoms: C_12  and  N_14 
REMARK   10  A    between atoms: C_13  and  C_12 
REMARK       I    between atoms: C_16  and  N_14 
REMARK   11  A    between atoms: C_16  and  C_21 
REMARK   12  A    between atoms: C_19  and  C_17 
REMARK   13  A    between atoms: C_17  and  O_23 
REMARK   14  A    between atoms: C_21  and  C_19 
REMARK   15  A    between atoms: C_21  and  O_22 
REMARK   16  A    between atoms: O_23  and  P_30 
REMARK   17  A    between atoms: P_30  and  O_24 
REMARK   18  A    between atoms: O_24  and  P_31 
REMARK   19  A    between atoms: P_31  and  O_25 
REMARK   20  A    between atoms: C_32  and  O_25 
REMARK   21  A    between atoms: P_30  and  O_27 
REMARK   22  A    between atoms: O_33  and  P_36 
REMARK   23  A    between atoms: P_36  and  O_34 
REMARK   24  A    between atoms: P_36  and  O_35 
REMARK   25  A    between atoms: N_50  and  C_46 
REMARK   26  A    between atoms: S_51  and  C_53 
REMARK   27  A    between atoms: C_53  and  C_54 
REMARK   28  A    between atoms: C_54  and  C_55 
REMARK   29  A    between atoms: C_55  and  C_57 
REMARK   30  A    between atoms: C_57  and  O_58 
ROOT
HETATM    1  O   UNK N   1      26.364  14.634   5.616  0.00  0.00    -0.631 OA
HETATM    2  O   UNK N   1      26.282  16.939   4.284  0.00  0.00    -0.307 OA
HETATM    3  P   UNK N   1      26.243  15.208   4.177  0.00  0.00     0.401 P 
HETATM    4  H   UNK N   1      26.233  17.908   4.265  0.00  0.00     0.222 HD
ENDROOT
BRANCH   3   5
HETATM    5  O   UNK N   1      27.542  14.619   3.160  0.00  0.00    -0.195 OA
BRANCH   5   6
HETATM    6  P   UNK N   1      29.069  15.277   3.682  0.00  0.00     0.401 P 
HETATM    7  O   UNK N   1      29.579  16.297   2.631  0.00  0.00    -0.631 OA
BRANCH   6   8
HETATM    8  O   UNK N   1      30.303  14.111   4.112  0.00  0.00    -0.296 OA
BRANCH   8   9
HETATM    9  C   UNK N   1      30.724  14.330   5.427  0.00  0.00     0.192 C 
BRANCH   9  10
HETATM   10  C   UNK N   1      32.147  14.913   5.581  0.00  0.00     0.009 C 
HETATM   11  C   UNK N   1      32.663  14.307   6.873  0.00  0.00     0.020 C 
HETATM   12  C   UNK N   1      33.066  14.435   4.477  0.00  0.00     0.020 C 
BRANCH  10  13
HETATM   13  C   UNK N   1      32.255  16.453   5.742  0.00  0.00     0.219 C 
BRANCH  13  14
HETATM   14  C   UNK N   1      31.765  17.168   6.981  0.00  0.00     0.247 C 
HETATM   15  N   UNK N   1      30.452  17.261   7.296  0.00  0.00    -0.358 N 
HETATM   16  H   UNK N   1      29.762  17.070   6.621  0.00  0.00     0.162 HD
HETATM   17  O   UNK N   1      32.603  17.605   7.757  0.00  0.00    -0.271 OA
BRANCH  15  18
HETATM   18  C   UNK N   1      30.074  17.640   8.634  0.00  0.00     0.132 C 
BRANCH  18  19
HETATM   19  C   UNK N   1      28.823  18.479   8.707  0.00  0.00     0.122 C 
BRANCH  19  20
HETATM   20  C   UNK N   1      27.847  17.944   7.690  0.00  0.00     0.219 C 
HETATM   21  N   UNK N   1      27.359  18.708   6.673  0.00  0.00    -0.360 N 
HETATM   22  H   UNK N   1      26.712  18.296   6.058  0.00  0.00     0.162 HD
HETATM   23  O   UNK N   1      27.497  16.780   7.773  0.00  0.00    -0.274 OA
BRANCH  21  24
HETATM   24  C   UNK N   1      27.732  20.086   6.437  0.00  0.00     0.133 C 
BRANCH  24  25
HETATM   25  C   UNK N   1      26.611  20.840   5.749  0.00  0.00     0.102 C 
BRANCH  25  26
HETATM   26  S   UNK N   1      26.636  20.445   3.984  0.00  0.00    -0.091 SA
BRANCH  26  27
HETATM   27  C   UNK N   1      24.916  19.938   4.005  0.00  0.00     0.186 C 
HETATM   28  O   UNK N   1      24.531  19.133   4.837  0.00  0.00    -0.286 OA
BRANCH  27  29
HETATM   29  C   UNK N   1      23.951  20.484   3.000  0.00  0.00     0.101 C 
BRANCH  29  30
HETATM   30  C   UNK N   1      22.581  19.821   3.090  0.00  0.00     0.118 C 
BRANCH  30  31
HETATM   31  C   UNK N   1      21.478  20.654   2.516  0.00  0.00     0.139 C 
HETATM   32  O   UNK N   1      21.387  20.789   1.308  0.00  0.00    -0.650 OA
BRANCH  31  33
HETATM   33  O   UNK N   1      20.558  21.217   3.324  0.00  0.00    -0.776 OA
HETATM   34  H   UNK N   1      19.762  21.651   3.561  0.00  0.00     0.167 HD
ENDBRANCH  31  33
ENDBRANCH  30  31
ENDBRANCH  29  30
ENDBRANCH  27  29
ENDBRANCH  26  27
ENDBRANCH  25  26
ENDBRANCH  24  25
ENDBRANCH  21  24
ENDBRANCH  19  20
ENDBRANCH  18  19
ENDBRANCH  15  18
ENDBRANCH  13  14
BRANCH  13  35
HETATM   35  O   UNK N   1      31.735  17.098   4.614  0.00  0.00    -0.385 OA
HETATM   36  H   UNK N   1      30.956  17.674   4.651  0.00  0.00     0.210 HD
ENDBRANCH  13  35
ENDBRANCH  10  13
ENDBRANCH   9  10
ENDBRANCH   8   9
ENDBRANCH   6   8
BRANCH   6  37
HETATM   37  O   UNK N   1      28.762  16.253   5.083  0.00  0.00    -0.307 OA
HETATM   38  H   UNK N   1      27.880  16.518   5.388  0.00  0.00     0.222 HD
ENDBRANCH   6  37
ENDBRANCH   5   6
ENDBRANCH   3   5
BRANCH   3  39
HETATM   39  O   UNK N   1      24.693  14.682   3.564  0.00  0.00    -0.294 OA
BRANCH  39  40
HETATM   40  C   UNK N   1      23.985  14.175   4.662  0.00  0.00     0.215 C 
BRANCH  40  41
HETATM   41  C   UNK N   1      22.904  15.161   5.076  0.00  0.00     0.180 C 
HETATM   42  O   UNK N   1      23.118  15.660   6.382  0.00  0.00    -0.353 OA
HETATM   43  C   UNK N   1      21.823  15.941   6.881  0.00  0.00     0.262 C 
HETATM   44  C   UNK N   1      20.894  15.802   5.689  0.00  0.00     0.199 C 
HETATM   45  C   UNK N   1      21.491  14.622   5.022  0.00  0.00     0.197 C 
BRANCH  43  46
HETATM   46  N   UNK N   1      21.541  15.076   8.046  0.00  0.00    -0.297 N 
HETATM   47  C   UNK N   1      22.168  13.992   8.554  0.00  0.00     0.142 A 
HETATM   48  C   UNK N   1      21.461  13.519   9.601  0.00  0.00     0.122 A 
HETATM   49  N   UNK N   1      23.312  13.397   8.136  0.00  0.00    -0.336 N 
HETATM   50  C   UNK N   1      21.883  12.381  10.273  0.00  0.00     0.131 A 
HETATM   51  N   UNK N   1      20.381  14.287   9.810  0.00  0.00    -0.346 N 
HETATM   52  N   UNK N   1      23.028  11.772   9.849  0.00  0.00    -0.337 N 
HETATM   53  C   UNK N   1      23.744  12.278   8.793  0.00  0.00     0.183 A 
ATOM     54  HN  UNK N   1      23.358  10.931  10.324  1.00  0.00     0.168 HD
HETATM   55  C   UNK N   1      20.451  15.242   8.840  0.00  0.00     0.188 A 
ATOM     56  HN  UNK N   1      19.668  14.181  10.532  1.00  0.00     0.167 HD
ATOM     57  HN  UNK N   1      23.839  13.777   7.349  1.00  0.00     0.168 HD
BRANCH  50  58
HETATM   58  N   UNK N   1      21.147  11.854  11.354  0.00  0.00    -0.383 N 
HETATM   59  H   UNK N   1      20.804  12.418  12.084  0.00  0.00     0.157 HD
HETATM   60  H   UNK N   1      20.971  10.886  11.380  0.00  0.00     0.157 HD
ENDBRANCH  50  58
ENDBRANCH  43  46
BRANCH  44  61
HETATM   61  O   UNK N   1      19.533  15.723   5.977  0.00  0.00    -0.388 OA
HETATM   62  H   UNK N   1      19.007  14.952   5.715  0.00  0.00     0.210 HD
ENDBRANCH  44  61
BRANCH  45  63
HETATM   63  O   UNK N   1      20.962  14.471   3.726  0.00  0.00    -0.286 OA
BRANCH  63  64
HETATM   64  P   UNK N   1      21.128  16.009   2.902  0.00  0.00     0.391 P 
HETATM   65  O   UNK N   1      20.539  16.043   1.470  0.00  0.00    -0.632 OA
BRANCH  64  66
HETATM   66  O   UNK N   1      19.455  15.565   3.030  0.00  0.00    -0.307 OA
HETATM   67  H   UNK N   1      18.985  14.751   2.790  0.00  0.00     0.222 HD
ENDBRANCH  64  66
BRANCH  64  68
HETATM   68  O   UNK N   1      22.129  14.938   1.963  0.00  0.00    -0.307 OA
HETATM   69  H   UNK N   1      21.853  14.022   1.805  0.00  0.00     0.222 HD
ENDBRANCH  64  68
ENDBRANCH  63  64
ENDBRANCH  45  63
ENDBRANCH  40  41
ENDBRANCH  39  40
ENDBRANCH   3  39
TORSDOF 30
ENDMDL
MODEL 3
REMARK VINA RESULT:      -6.7      4.137      8.689
REMARK  30 active torsions:
REMARK  status: ('A' for Active; 'I' for Inactive)
REMARK    1  A    between atoms: C_1  and  N_38 
REMARK    2  A    between atoms: C_3  and  O_6 
REMARK    3  A    between atoms: C_4  and  C_32 
REMARK    4  A    between atoms: C_5  and  O_33 
REMARK    5  A    between atoms: N_9  and  C_7 
REMARK    6  A    between atoms: C_7  and  C_8 
REMARK    7  A    between atoms: C_8  and  S_51 
REMARK       I    between atoms: C_10  and  N_9 
REMARK    8  A    between atoms: C_13  and  C_10 
REMARK    9  A    between atoms: C_12  and  N_14 
REMARK   10  A    between atoms: C_13  and  C_12 
REMARK       I    between atoms: C_16  and  N_14 
REMARK   11  A    between atoms: C_16  and  C_21 
REMARK   12  A    between atoms: C_19  and  C_17 
REMARK   13  A    between atoms: C_17  and  O_23 
REMARK   14  A    between atoms: C_21  and  C_19 
REMARK   15  A    between atoms: C_21  and  O_22 
REMARK   16  A    between atoms: O_23  and  P_30 
REMARK   17  A    between atoms: P_30  and  O_24 
REMARK   18  A    between atoms: O_24  and  P_31 
REMARK   19  A    between atoms: P_31  and  O_25 
REMARK   20  A    between atoms: C_32  and  O_25 
REMARK   21  A    between atoms: P_30  and  O_27 
REMARK   22  A    between atoms: O_33  and  P_36 
REMARK   23  A    between atoms: P_36  and  O_34 
REMARK   24  A    between atoms: P_36  and  O_35 
REMARK   25  A    between atoms: N_50  and  C_46 
REMARK   26  A    between atoms: S_51  and  C_53 
REMARK   27  A    between atoms: C_53  and  C_54 
REMARK   28  A    between atoms: C_54  and  C_55 
REMARK   29  A    between atoms: C_55  and  C_57 
REMARK   30  A    between atoms: C_57  and  O_58 
ROOT
HETATM    1  O   UNK N   1      18.096  14.218   4.931  0.00  0.00    -0.631 OA
HETATM    2  O   UNK N   1      19.987  13.429   6.632  0.00  0.00    -0.307 OA
HETATM    3  P   UNK N   1      19.639  14.112   5.075  0.00  0.00     0.401 P 
HETATM    4  H   UNK N   1      20.265  13.114   7.506  0.00  0.00     0.222 HD
ENDROOT
BRANCH   3   5
HETATM    5  O   UNK N   1      20.318  13.124   3.798  0.00  0.00    -0.195 OA
BRANCH   5   6
HETATM    6  P   UNK N   1      19.506  13.438   2.289  0.00  0.00     0.401 P 
HETATM    7  O   UNK N   1      18.107  12.769   2.305  0.00  0.00    -0.631 OA
BRANCH   6   8
HETATM    8  O   UNK N   1      20.401  13.043   0.836  0.00  0.00    -0.296 OA
BRANCH   8   9
HETATM    9  C   UNK N   1      21.652  13.669   0.866  0.00  0.00     0.192 C 
BRANCH   9  10
HETATM   10  C   UNK N   1      22.870  12.719   0.891  0.00  0.00     0.009 C 
HETATM   11  C   UNK N   1      22.261  11.332   0.995  0.00  0.00     0.020 C 
HETATM   12  C   UNK N   1      23.636  12.762  -0.413  0.00  0.00     0.020 C 
BRANCH  10  13
HETATM   13  C   UNK N   1      23.841  12.865   2.092  0.00  0.00     0.219 C 
BRANCH  13  14
HETATM   14  C   UNK N   1      25.308  12.511   1.988  0.00  0.00     0.247 C 
HETATM   15  N   UNK N   1      26.286  13.445   2.036  0.00  0.00    -0.358 N 
HETATM   16  H   UNK N   1      26.073  14.397   1.908  0.00  0.00     0.162 HD
HETATM   17  O   UNK N   1      25.607  11.327   1.939  0.00  0.00    -0.271 OA
BRANCH  15  18
HETATM   18  C   UNK N   1      27.644  13.030   2.277  0.00  0.00     0.132 C 
BRANCH  18  19
HETATM   19  C   UNK N   1      28.199  13.474   3.608  0.00  0.00     0.122 C 
BRANCH  19  20
HETATM   20  C   UNK N   1      28.422  14.963   3.543  0.00  0.00     0.219 C 
HETATM   21  N   UNK N   1      29.655  15.524   3.683  0.00  0.00    -0.360 N 
HETATM   22  H   UNK N   1      29.722  16.505   3.647  0.00  0.00     0.162 HD
HETATM   23  O   UNK N   1      27.465  15.689   3.338  0.00  0.00    -0.274 OA
BRANCH  21  24
HETATM   24  C   UNK N   1      30.875  14.772   3.882  0.00  0.00     0.133 C 
BRANCH  24  25
HETATM   25  C   UNK N   1      31.810  15.497   4.830  0.00  0.00     0.102 C 
BRANCH  25  26
HETATM   26  S   UNK N   1      31.323  17.238   4.916  0.00  0.00    -0.091 SA
BRANCH  26  27
HETATM   27  C   UNK N   1      30.961  17.118   6.669  0.00  0.00     0.186 C 
HETATM   28  O   UNK N   1      31.874  17.082   7.476  0.00  0.00    -0.286 OA
BRANCH  27  29
HETATM   29  C   UNK N   1      29.544  17.046   7.148  0.00  0.00     0.101 C 
BRANCH  29  30
HETATM   30  C   UNK N   1      29.050  18.379   7.700  0.00  0.00     0.118 C 
BRANCH  30  31
HETATM   31  C   UNK N   1      28.674  18.320   9.147  0.00  0.00     0.139 C 
HETATM   32  O   UNK N   1      29.459  18.713   9.993  0.00  0.00    -0.650 OA
BRANCH  31  33
HETATM   33  O   UNK N   1      27.455  17.880   9.517  0.00  0.00    -0.776 OA
HETATM   34  H   UNK N   1      26.818  17.423  10.029  0.00  0.00     0.167 HD
ENDBRANCH  31  33
ENDBRANCH  30  31
ENDBRANCH  29  30
ENDBRANCH  27  29
ENDBRANCH  26  27
ENDBRANCH  25  26
ENDBRANCH  24  25
ENDBRANCH  21  24
ENDBRANCH  19  20
ENDBRANCH  18  19
ENDBRANCH  15  18
ENDBRANCH  13  14
BRANCH  13  35
HETATM   35  O   UNK N   1      23.308  12.245   3.228  0.00  0.00    -0.385 OA
HETATM   36  H   UNK N   1      23.452  12.582   4.126  0.00  0.00     0.210 HD
ENDBRANCH  13  35
ENDBRANCH  10  13
ENDBRANCH   9  10
ENDBRANCH   8   9
ENDBRANCH   6   8
BRANCH   6  37
HETATM   37  O   UNK N   1      19.146  15.134   2.235  0.00  0.00    -0.307 OA
HETATM   38  H   UNK N   1      18.361  15.518   1.814  0.00  0.00     0.222 HD
ENDBRANCH   6  37
ENDBRANCH   5   6
ENDBRANCH   3   5
BRANCH   3  39
HETATM   39  O   UNK N   1      20.258  15.744   4.987  0.00  0.00    -0.294 OA
BRANCH  39  40
HETATM   40  C   UNK N   1      20.890  15.993   6.213  0.00  0.00     0.215 C 
BRANCH  40  41
HETATM   41  C   UNK N   1      22.302  16.504   5.967  0.00  0.00     0.180 C 
HETATM   42  O   UNK N   1      22.374  17.914   6.048  0.00  0.00    -0.353 OA
HETATM   43  C   UNK N   1      23.425  18.276   5.171  0.00  0.00     0.262 C 
HETATM   44  C   UNK N   1      24.095  16.970   4.787  0.00  0.00     0.199 C 
HETATM   45  C   UNK N   1      22.909  16.094   4.643  0.00  0.00     0.197 C 
BRANCH  43  46
HETATM   46  N   UNK N   1      22.888  19.096   4.065  0.00  0.00    -0.297 N 
HETATM   47  C   UNK N   1      21.682  19.135   3.455  0.00  0.00     0.142 A 
HETATM   48  C   UNK N   1      21.725  20.023   2.441  0.00  0.00     0.122 A 
HETATM   49  N   UNK N   1      20.565  18.422   3.736  0.00  0.00    -0.336 N 
HETATM   50  C   UNK N   1      20.612  20.218   1.635  0.00  0.00     0.131 A 
HETATM   51  N   UNK N   1      22.938  20.594   2.381  0.00  0.00    -0.346 N 
HETATM   52  N   UNK N   1      19.488  19.495   1.907  0.00  0.00    -0.337 N 
HETATM   53  C   UNK N   1      19.458  18.608   2.953  0.00  0.00     0.183 A 
ATOM     54  HN  UNK N   1      18.658  19.616   1.325  1.00  0.00     0.168 HD
HETATM   55  C   UNK N   1      23.639  20.007   3.392  0.00  0.00     0.188 A 
ATOM     56  HN  UNK N   1      23.263  21.305   1.726  1.00  0.00     0.167 HD
ATOM     57  HN  UNK N   1      20.549  17.763   4.515  1.00  0.00     0.168 HD
BRANCH  50  58
HETATM   58  N   UNK N   1      20.641  21.122   0.554  0.00  0.00    -0.383 N 
HETATM   59  H   UNK N   1      21.428  21.222  -0.030  0.00  0.00     0.157 HD
HETATM   60  H   UNK N   1      19.846  21.675   0.376  0.00  0.00     0.157 HD
ENDBRANCH  50  58
ENDBRANCH  43  46
BRANCH  44  61
HETATM   61  O   UNK N   1      24.958  17.021   3.694  0.00  0.00    -0.388 OA
HETATM   62  H   UNK N   1      25.285  17.866   3.349  0.00  0.00     0.210 HD
ENDBRANCH  44  61
BRANCH  45  63
HETATM   63  O   UNK N   1      23.303  14.745   4.564  0.00  0.00    -0.286 OA
BRANCH  63  64
HETATM   64  P   UNK N   1      24.063  14.322   6.085  0.00  0.00     0.391 P 
HETATM   65  O   UNK N   1      24.769  12.943   6.095  0.00  0.00    -0.632 OA
BRANCH  64  66
HETATM   66  O   UNK N   1      25.236  14.341   4.805  0.00  0.00    -0.307 OA
HETATM   67  H   UNK N   1      25.595  15.069   4.273  0.00  0.00     0.222 HD
ENDBRANCH  64  66
BRANCH  64  68
HETATM   68  O   UNK N   1      22.789  13.147   5.931  0.00  0.00    -0.307 OA
HETATM   69  H   UNK N   1      23.000  12.210   5.796  0.00  0.00     0.222 HD
ENDBRANCH  64  68
ENDBRANCH  63  64
ENDBRANCH  45  63
ENDBRANCH  40  41
ENDBRANCH  39  40
ENDBRANCH   3  39
TORSDOF 30
ENDMDL
MODEL 4
REMARK VINA RESULT:      -6.7      7.285     12.211
REMARK  30 active torsions:
REMARK  status: ('A' for Active; 'I' for Inactive)
REMARK    1  A    between atoms: C_1  and  N_38 
REMARK    2  A    between atoms: C_3  and  O_6 
REMARK    3  A    between atoms: C_4  and  C_32 
REMARK    4  A    between atoms: C_5  and  O_33 
REMARK    5  A    between atoms: N_9  and  C_7 
REMARK    6  A    between atoms: C_7  and  C_8 
REMARK    7  A    between atoms: C_8  and  S_51 
REMARK       I    between atoms: C_10  and  N_9 
REMARK    8  A    between atoms: C_13  and  C_10 
REMARK    9  A    between atoms: C_12  and  N_14 
REMARK   10  A    between atoms: C_13  and  C_12 
REMARK       I    between atoms: C_16  and  N_14 
REMARK   11  A    between atoms: C_16  and  C_21 
REMARK   12  A    between atoms: C_19  and  C_17 
REMARK   13  A    between atoms: C_17  and  O_23 
REMARK   14  A    between atoms: C_21  and  C_19 
REMARK   15  A    between atoms: C_21  and  O_22 
REMARK   16  A    between atoms: O_23  and  P_30 
REMARK   17  A    between atoms: P_30  and  O_24 
REMARK   18  A    between atoms: O_24  and  P_31 
REMARK   19  A    between atoms: P_31  and  O_25 
REMARK   20  A    between atoms: C_32  and  O_25 
REMARK   21  A    between atoms: P_30  and  O_27 
REMARK   22  A    between atoms: O_33  and  P_36 
REMARK   23  A    between atoms: P_36  and  O_34 
REMARK   24  A    between atoms: P_36  and  O_35 
REMARK   25  A    between atoms: N_50  and  C_46 
REMARK   26  A    between atoms: S_51  and  C_53 
REMARK   27  A    between atoms: C_53  and  C_54 
REMARK   28  A    between atoms: C_54  and  C_55 
REMARK   29  A    between atoms: C_55  and  C_57 
REMARK   30  A    between atoms: C_57  and  O_58 
ROOT
HETATM    1  O   UNK N   1      33.922  14.839   2.399  0.00  0.00    -0.631 OA
HETATM    2  O   UNK N   1      32.665  13.584   4.384  0.00  0.00    -0.307 OA
HETATM    3  P   UNK N   1      33.285  15.093   3.793  0.00  0.00     0.401 P 
HETATM    4  H   UNK N   1      32.238  12.796   4.755  0.00  0.00     0.222 HD
ENDROOT
BRANCH   3   5
HETATM    5  O   UNK N   1      34.465  15.758   4.905  0.00  0.00    -0.195 OA
BRANCH   5   6
HETATM    6  P   UNK N   1      35.364  14.478   5.673  0.00  0.00     0.401 P 
HETATM    7  O   UNK N   1      35.339  13.215   4.774  0.00  0.00    -0.631 OA
BRANCH   6   8
HETATM    8  O   UNK N   1      34.920  14.110   7.327  0.00  0.00    -0.296 OA
BRANCH   8   9
HETATM    9  C   UNK N   1      35.690  14.877   8.207  0.00  0.00     0.192 C 
BRANCH   9  10
HETATM   10  C   UNK N   1      36.323  14.102   9.384  0.00  0.00     0.009 C 
HETATM   11  C   UNK N   1      35.289  13.049   9.739  0.00  0.00     0.020 C 
HETATM   12  C   UNK N   1      37.571  13.361   8.956  0.00  0.00     0.020 C 
BRANCH  10  13
HETATM   13  C   UNK N   1      36.594  14.908  10.682  0.00  0.00     0.219 C 
BRANCH  13  14
HETATM   14  C   UNK N   1      36.053  14.476  12.026  0.00  0.00     0.247 C 
HETATM   15  N   UNK N   1      36.799  13.792  12.925  0.00  0.00    -0.358 N 
HETATM   16  H   UNK N   1      37.636  13.354  12.647  0.00  0.00     0.162 HD
HETATM   17  O   UNK N   1      34.924  14.833  12.329  0.00  0.00    -0.271 OA
BRANCH  15  18
HETATM   18  C   UNK N   1      36.356  13.713  14.293  0.00  0.00     0.132 C 
BRANCH  18  19
HETATM   19  C   UNK N   1      36.419  12.326  14.883  0.00  0.00     0.122 C 
BRANCH  19  20
HETATM   20  C   UNK N   1      35.053  11.702  14.746  0.00  0.00     0.219 C 
HETATM   21  N   UNK N   1      34.759  10.469  15.245  0.00  0.00    -0.360 N 
HETATM   22  H   UNK N   1      33.851  10.118  15.101  0.00  0.00     0.162 HD
HETATM   23  O   UNK N   1      34.176  12.334  14.183  0.00  0.00    -0.274 OA
BRANCH  21  24
HETATM   24  C   UNK N   1      35.694   9.640  15.973  0.00  0.00     0.133 C 
BRANCH  24  25
HETATM   25  C   UNK N   1      35.142   9.269  17.335  0.00  0.00     0.102 C 
BRANCH  25  26
HETATM   26  S   UNK N   1      35.240  10.713  18.421  0.00  0.00    -0.091 SA
BRANCH  26  27
HETATM   27  C   UNK N   1      34.962   9.714  19.884  0.00  0.00     0.186 C 
HETATM   28  O   UNK N   1      35.484  10.026  20.941  0.00  0.00    -0.286 OA
BRANCH  27  29
HETATM   29  C   UNK N   1      34.103   8.489  19.815  0.00  0.00     0.101 C 
BRANCH  29  30
HETATM   30  C   UNK N   1      32.617   8.815  19.921  0.00  0.00     0.118 C 
BRANCH  30  31
HETATM   31  C   UNK N   1      32.143   8.974  21.332  0.00  0.00     0.139 C 
HETATM   32  O   UNK N   1      31.766   7.999  21.958  0.00  0.00    -0.650 OA
BRANCH  31  33
HETATM   33  O   UNK N   1      32.174  10.182  21.929  0.00  0.00    -0.776 OA
HETATM   34  H   UNK N   1      32.226  10.801  22.631  0.00  0.00     0.167 HD
ENDBRANCH  31  33
ENDBRANCH  30  31
ENDBRANCH  29  30
ENDBRANCH  27  29
ENDBRANCH  26  27
ENDBRANCH  25  26
ENDBRANCH  24  25
ENDBRANCH  21  24
ENDBRANCH  19  20
ENDBRANCH  18  19
ENDBRANCH  15  18
ENDBRANCH  13  14
BRANCH  13  35
HETATM   35  O   UNK N   1      36.290  16.261  10.488  0.00  0.00    -0.385 OA
HETATM   36  H   UNK N   1      36.019  16.847  11.211  0.00  0.00     0.210 HD
ENDBRANCH  13  35
ENDBRANCH  10  13
ENDBRANCH   9  10
ENDBRANCH   8   9
ENDBRANCH   6   8
BRANCH   6  37
HETATM   37  O   UNK N   1      37.035  14.945   5.674  0.00  0.00    -0.307 OA
HETATM   38  H   UNK N   1      37.364  15.816   5.400  0.00  0.00     0.222 HD
ENDBRANCH   6  37
ENDBRANCH   5   6
ENDBRANCH   3   5
BRANCH   3  39
HETATM   39  O   UNK N   1      31.973  16.219   3.539  0.00  0.00    -0.294 OA
BRANCH  39  40
HETATM   40  C   UNK N   1      32.007  17.114   4.618  0.00  0.00     0.215 C 
BRANCH  40  41
HETATM   41  C   UNK N   1      31.427  16.447   5.856  0.00  0.00     0.180 C 
HETATM   42  O   UNK N   1      30.018  16.341   5.786  0.00  0.00    -0.353 OA
HETATM   43  C   UNK N   1      29.582  16.394   7.133  0.00  0.00     0.262 C 
HETATM   44  C   UNK N   1      30.844  16.288   7.968  0.00  0.00     0.199 C 
HETATM   45  C   UNK N   1      31.767  17.125   7.166  0.00  0.00     0.197 C 
BRANCH  43  46
HETATM   46  N   UNK N   1      28.751  17.599   7.338  0.00  0.00    -0.297 N 
HETATM   47  C   UNK N   1      28.338  18.579   6.504  0.00  0.00     0.142 A 
HETATM   48  C   UNK N   1      27.647  19.500   7.207  0.00  0.00     0.122 A 
HETATM   49  N   UNK N   1      28.551  18.709   5.172  0.00  0.00    -0.336 N 
HETATM   50  C   UNK N   1      27.147  20.631   6.578  0.00  0.00     0.131 A 
HETATM   51  N   UNK N   1      27.576  19.134   8.497  0.00  0.00    -0.346 N 
HETATM   52  N   UNK N   1      27.368  20.771   5.239  0.00  0.00    -0.337 N 
HETATM   53  C   UNK N   1      28.059  19.816   4.536  0.00  0.00     0.183 A 
ATOM     54  HN  UNK N   1      27.015  21.596   4.753  1.00  0.00     0.168 HD
HETATM   55  C   UNK N   1      28.262  17.958   8.554  0.00  0.00     0.188 A 
ATOM     56  HN  UNK N   1      27.113  19.625   9.261  1.00  0.00     0.167 HD
ATOM     57  HN  UNK N   1      29.067  17.996   4.655  1.00  0.00     0.168 HD
BRANCH  50  58
HETATM   58  N   UNK N   1      26.444  21.619   7.297  0.00  0.00    -0.383 N 
HETATM   59  H   UNK N   1      25.712  22.142   6.898  0.00  0.00     0.157 HD
HETATM   60  H   UNK N   1      26.695  21.792   8.233  0.00  0.00     0.157 HD
ENDBRANCH  50  58
ENDBRANCH  43  46
BRANCH  44  61
HETATM   61  O   UNK N   1      30.720  16.626   9.314  0.00  0.00    -0.388 OA
HETATM   62  H   UNK N   1      31.409  17.132   9.772  0.00  0.00     0.210 HD
ENDBRANCH  44  61
BRANCH  45  63
HETATM   63  O   UNK N   1      33.094  16.946   7.600  0.00  0.00    -0.286 OA
BRANCH  63  64
HETATM   64  P   UNK N   1      33.654  18.476   8.245  0.00  0.00     0.391 P 
HETATM   65  O   UNK N   1      35.146  18.496   8.662  0.00  0.00    -0.632 OA
BRANCH  64  66
HETATM   66  O   UNK N   1      34.579  18.031   6.844  0.00  0.00    -0.307 OA
HETATM   67  H   UNK N   1      35.467  17.650   6.755  0.00  0.00     0.222 HD
ENDBRANCH  64  66
BRANCH  64  68
HETATM   68  O   UNK N   1      33.770  17.398   9.606  0.00  0.00    -0.307 OA
HETATM   69  H   UNK N   1      32.983  16.934   9.933  0.00  0.00     0.222 HD
ENDBRANCH  64  68
ENDBRANCH  63  64
ENDBRANCH  45  63
ENDBRANCH  40  41
ENDBRANCH  39  40
ENDBRANCH   3  39
TORSDOF 30
ENDMDL
MODEL 5
REMARK VINA RESULT:      -6.6      2.328      5.385
REMARK  30 active torsions:
REMARK  status: ('A' for Active; 'I' for Inactive)
REMARK    1  A    between atoms: C_1  and  N_38 
REMARK    2  A    between atoms: C_3  and  O_6 
REMARK    3  A    between atoms: C_4  and  C_32 
REMARK    4  A    between atoms: C_5  and  O_33 
REMARK    5  A    between atoms: N_9  and  C_7 
REMARK    6  A    between atoms: C_7  and  C_8 
REMARK    7  A    between atoms: C_8  and  S_51 
REMARK       I    between atoms: C_10  and  N_9 
REMARK    8  A    between atoms: C_13  and  C_10 
REMARK    9  A    between atoms: C_12  and  N_14 
REMARK   10  A    between atoms: C_13  and  C_12 
REMARK       I    between atoms: C_16  and  N_14 
REMARK   11  A    between atoms: C_16  and  C_21 
REMARK   12  A    between atoms: C_19  and  C_17 
REMARK   13  A    between atoms: C_17  and  O_23 
REMARK   14  A    between atoms: C_21  and  C_19 
REMARK   15  A    between atoms: C_21  and  O_22 
REMARK   16  A    between atoms: O_23  and  P_30 
REMARK   17  A    between atoms: P_30  and  O_24 
REMARK   18  A    between atoms: O_24  and  P_31 
REMARK   19  A    between atoms: P_31  and  O_25 
REMARK   20  A    between atoms: C_32  and  O_25 
REMARK   21  A    between atoms: P_30  and  O_27 
REMARK   22  A    between atoms: O_33  and  P_36 
REMARK   23  A    between atoms: P_36  and  O_34 
REMARK   24  A    between atoms: P_36  and  O_35 
REMARK   25  A    between atoms: N_50  and  C_46 
REMARK   26  A    between atoms: S_51  and  C_53 
REMARK   27  A    between atoms: C_53  and  C_54 
REMARK   28  A    between atoms: C_54  and  C_55 
REMARK   29  A    between atoms: C_55  and  C_57 
REMARK   30  A    between atoms: C_57  and  O_58 
ROOT
HETATM    1  O   UNK N   1      24.168  12.284   2.913  0.00  0.00    -0.631 OA
HETATM    2  O   UNK N   1      25.776  12.559   5.019  0.00  0.00    -0.307 OA
HETATM    3  P   UNK N   1      24.675  13.343   3.930  0.00  0.00     0.401 P 
HETATM    4  H   UNK N   1      26.350  12.183   5.703  0.00  0.00     0.222 HD
ENDROOT
BRANCH   3   5
HETATM    5  O   UNK N   1      25.462  14.674   3.104  0.00  0.00    -0.195 OA
BRANCH   5   6
HETATM    6  P   UNK N   1      26.669  15.398   4.132  0.00  0.00     0.401 P 
HETATM    7  O   UNK N   1      26.187  15.357   5.605  0.00  0.00    -0.631 OA
BRANCH   6   8
HETATM    8  O   UNK N   1      27.215  16.997   3.668  0.00  0.00    -0.296 OA
BRANCH   8   9
HETATM    9  C   UNK N   1      26.151  17.722   3.123  0.00  0.00     0.192 C 
BRANCH   9  10
HETATM   10  C   UNK N   1      25.776  19.018   3.876  0.00  0.00     0.009 C 
HETATM   11  C   UNK N   1      25.421  20.001   2.775  0.00  0.00     0.020 C 
HETATM   12  C   UNK N   1      24.528  18.833   4.714  0.00  0.00     0.020 C 
BRANCH  10  13
HETATM   13  C   UNK N   1      26.896  19.683   4.718  0.00  0.00     0.219 C 
BRANCH  13  14
HETATM   14  C   UNK N   1      27.079  19.388   6.190  0.00  0.00     0.247 C 
HETATM   15  N   UNK N   1      27.497  18.184   6.644  0.00  0.00    -0.358 N 
HETATM   16  H   UNK N   1      27.475  17.394   6.056  0.00  0.00     0.162 HD
HETATM   17  O   UNK N   1      26.916  20.307   6.980  0.00  0.00    -0.271 OA
BRANCH  15  18
HETATM   18  C   UNK N   1      27.978  18.070   7.997  0.00  0.00     0.132 C 
BRANCH  18  19
HETATM   19  C   UNK N   1      29.333  18.692   8.226  0.00  0.00     0.122 C 
BRANCH  19  20
HETATM   20  C   UNK N   1      29.890  18.129   9.509  0.00  0.00     0.219 C 
HETATM   21  N   UNK N   1      30.681  17.021   9.537  0.00  0.00    -0.360 N 
HETATM   22  H   UNK N   1      30.994  16.700  10.414  0.00  0.00     0.162 HD
HETATM   23  O   UNK N   1      29.636  18.699  10.556  0.00  0.00    -0.274 OA
BRANCH  21  24
HETATM   24  C   UNK N   1      31.095  16.283   8.363  0.00  0.00     0.133 C 
BRANCH  24  25
HETATM   25  C   UNK N   1      32.601  16.318   8.205  0.00  0.00     0.102 C 
BRANCH  25  26
HETATM   26  S   UNK N   1      33.096  15.046   7.017  0.00  0.00    -0.091 SA
BRANCH  26  27
HETATM   27  C   UNK N   1      33.851  16.258   5.932  0.00  0.00     0.186 C 
HETATM   28  O   UNK N   1      34.978  16.072   5.506  0.00  0.00    -0.286 OA
BRANCH  27  29
HETATM   29  C   UNK N   1      33.112  17.504   5.557  0.00  0.00     0.101 C 
BRANCH  29  30
HETATM   30  C   UNK N   1      32.373  17.364   4.231  0.00  0.00     0.118 C 
BRANCH  30  31
HETATM   31  C   UNK N   1      30.918  17.048   4.391  0.00  0.00     0.139 C 
HETATM   32  O   UNK N   1      30.238  17.701   5.163  0.00  0.00    -0.650 OA
BRANCH  31  33
HETATM   33  O   UNK N   1      30.347  16.076   3.652  0.00  0.00    -0.776 OA
HETATM   34  H   UNK N   1      29.836  15.312   3.471  0.00  0.00     0.167 HD
ENDBRANCH  31  33
ENDBRANCH  30  31
ENDBRANCH  29  30
ENDBRANCH  27  29
ENDBRANCH  26  27
ENDBRANCH  25  26
ENDBRANCH  24  25
ENDBRANCH  21  24
ENDBRANCH  19  20
ENDBRANCH  18  19
ENDBRANCH  15  18
ENDBRANCH  13  14
BRANCH  13  35
HETATM   35  O   UNK N   1      26.884  21.071   4.534  0.00  0.00    -0.385 OA
HETATM   36  H   UNK N   1      26.954  21.698   5.270  0.00  0.00     0.210 HD
ENDBRANCH  13  35
ENDBRANCH  10  13
ENDBRANCH   9  10
ENDBRANCH   8   9
ENDBRANCH   6   8
BRANCH   6  37
HETATM   37  O   UNK N   1      28.053  14.352   4.125  0.00  0.00    -0.307 OA
HETATM   38  H   UNK N   1      28.818  14.454   3.537  0.00  0.00     0.222 HD
ENDBRANCH   6  37
ENDBRANCH   5   6
ENDBRANCH   3   5
BRANCH   3  39
HETATM   39  O   UNK N   1      23.269  13.904   4.803  0.00  0.00    -0.294 OA
BRANCH  39  40
HETATM   40  C   UNK N   1      22.937  15.152   4.258  0.00  0.00     0.215 C 
BRANCH  40  41
HETATM   41  C   UNK N   1      21.929  15.852   5.156  0.00  0.00     0.180 C 
HETATM   42  O   UNK N   1      22.471  16.145   6.429  0.00  0.00    -0.353 OA
HETATM   43  C   UNK N   1      21.365  16.110   7.313  0.00  0.00     0.262 C 
HETATM   44  C   UNK N   1      20.141  16.024   6.421  0.00  0.00     0.199 C 
HETATM   45  C   UNK N   1      20.636  15.098   5.376  0.00  0.00     0.197 C 
BRANCH  43  46
HETATM   46  N   UNK N   1      21.547  15.019   8.294  0.00  0.00    -0.297 N 
HETATM   47  C   UNK N   1      22.493  14.064   8.436  0.00  0.00     0.142 A 
HETATM   48  C   UNK N   1      22.160  13.257   9.464  0.00  0.00     0.122 A 
HETATM   49  N   UNK N   1      23.615  13.863   7.703  0.00  0.00    -0.336 N 
HETATM   50  C   UNK N   1      22.960  12.171   9.789  0.00  0.00     0.131 A 
HETATM   51  N   UNK N   1      21.014  13.675  10.023  0.00  0.00    -0.346 N 
HETATM   52  N   UNK N   1      24.085  11.958   9.047  0.00  0.00    -0.337 N 
HETATM   53  C   UNK N   1      24.417  12.800   8.014  0.00  0.00     0.183 A 
ATOM     54  HN  UNK N   1      24.688  11.163   9.261  1.00  0.00     0.168 HD
HETATM   55  C   UNK N   1      20.654  14.764   9.286  0.00  0.00     0.188 A 
ATOM     56  HN  UNK N   1      20.522  13.270  10.819  1.00  0.00     0.167 HD
ATOM     57  HN  UNK N   1      23.856  14.492   6.936  1.00  0.00     0.168 HD
BRANCH  50  58
HETATM   58  N   UNK N   1      22.619  11.299  10.842  0.00  0.00    -0.383 N 
HETATM   59  H   UNK N   1      22.549  11.602  11.776  0.00  0.00     0.157 HD
HETATM   60  H   UNK N   1      22.445  10.353  10.637  0.00  0.00     0.157 HD
ENDBRANCH  50  58
ENDBRANCH  43  46
BRANCH  44  61
HETATM   61  O   UNK N   1      18.948  15.665   7.046  0.00  0.00    -0.388 OA
HETATM   62  H   UNK N   1      18.618  14.754   7.016  0.00  0.00     0.210 HD
ENDBRANCH  44  61
BRANCH  45  63
HETATM   63  O   UNK N   1      19.760  15.088   4.274  0.00  0.00    -0.286 OA
BRANCH  63  64
HETATM   64  P   UNK N   1      19.463  13.415   3.845  0.00  0.00     0.391 P 
HETATM   65  O   UNK N   1      18.245  13.191   2.915  0.00  0.00    -0.632 OA
BRANCH  64  66
HETATM   66  O   UNK N   1      19.729  14.371   2.419  0.00  0.00    -0.307 OA
HETATM   67  H   UNK N   1      19.168  15.019   1.966  0.00  0.00     0.222 HD
ENDBRANCH  64  66
BRANCH  64  68
HETATM   68  O   UNK N   1      18.069  13.840   4.796  0.00  0.00    -0.307 OA
HETATM   69  H   UNK N   1      18.135  14.517   5.487  0.00  0.00     0.222 HD
ENDBRANCH  64  68
ENDBRANCH  63  64
ENDBRANCH  45  63
ENDBRANCH  40  41
ENDBRANCH  39  40
ENDBRANCH   3  39
TORSDOF 30
ENDMDL
MODEL 6
REMARK VINA RESULT:      -6.6      5.407      9.379
REMARK  30 active torsions:
REMARK  status: ('A' for Active; 'I' for Inactive)
REMARK    1  A    between atoms: C_1  and  N_38 
REMARK    2  A    between atoms: C_3  and  O_6 
REMARK    3  A    between atoms: C_4  and  C_32 
REMARK    4  A    between atoms: C_5  and  O_33 
REMARK    5  A    between atoms: N_9  and  C_7 
REMARK    6  A    between atoms: C_7  and  C_8 
REMARK    7  A    between atoms: C_8  and  S_51 
REMARK       I    between atoms: C_10  and  N_9 
REMARK    8  A    between atoms: C_13  and  C_10 
REMARK    9  A    between atoms: C_12  and  N_14 
REMARK   10  A    between atoms: C_13  and  C_12 
REMARK       I    between atoms: C_16  and  N_14 
REMARK   11  A    between atoms: C_16  and  C_21 
REMARK   12  A    between atoms: C_19  and  C_17 
REMARK   13  A    between atoms: C_17  and  O_23 
REMARK   14  A    between atoms: C_21  and  C_19 
REMARK   15  A    between atoms: C_21  and  O_22 
REMARK   16  A    between atoms: O_23  and  P_30 
REMARK   17  A    between atoms: P_30  and  O_24 
REMARK   18  A    between atoms: O_24  and  P_31 
REMARK   19  A    between atoms: P_31  and  O_25 
REMARK   20  A    between atoms: C_32  and  O_25 
REMARK   21  A    between atoms: P_30  and  O_27 
REMARK   22  A    between atoms: O_33  and  P_36 
REMARK   23  A    between atoms: P_36  and  O_34 
REMARK   24  A    between atoms: P_36  and  O_35 
REMARK   25  A    between atoms: N_50  and  C_46 
REMARK   26  A    between atoms: S_51  and  C_53 
REMARK   27  A    between atoms: C_53  and  C_54 
REMARK   28  A    between atoms: C_54  and  C_55 
REMARK   29  A    between atoms: C_55  and  C_57 
REMARK   30  A    between atoms: C_57  and  O_58 
ROOT
HETATM    1  O   UNK N   1      25.236  14.850   6.899  0.00  0.00    -0.631 OA
HETATM    2  O   UNK N   1      26.396  17.198   6.413  0.00  0.00    -0.307 OA
HETATM    3  P   UNK N   1      25.495  15.868   5.755  0.00  0.00     0.401 P 
HETATM    4  H   UNK N   1      26.842  18.004   6.716  0.00  0.00     0.222 HD
ENDROOT
BRANCH   3   5
HETATM    5  O   UNK N   1      26.372  15.116   4.438  0.00  0.00    -0.195 OA
BRANCH   5   6
HETATM    6  P   UNK N   1      27.703  16.125   3.939  0.00  0.00     0.401 P 
HETATM    7  O   UNK N   1      28.237  15.636   2.568  0.00  0.00    -0.631 OA
BRANCH   6   8
HETATM    8  O   UNK N   1      28.992  16.331   5.106  0.00  0.00    -0.296 OA
BRANCH   8   9
HETATM    9  C   UNK N   1      29.907  17.279   4.639  0.00  0.00     0.192 C 
BRANCH   9  10
HETATM   10  C   UNK N   1      31.382  17.023   5.021  0.00  0.00     0.009 C 
HETATM   11  C   UNK N   1      31.502  15.511   5.062  0.00  0.00     0.020 C 
HETATM   12  C   UNK N   1      32.328  17.507   3.942  0.00  0.00     0.020 C 
BRANCH  10  13
HETATM   13  C   UNK N   1      31.841  17.540   6.410  0.00  0.00     0.219 C 
BRANCH  13  14
HETATM   14  C   UNK N   1      33.231  17.280   6.945  0.00  0.00     0.247 C 
HETATM   15  N   UNK N   1      33.489  16.321   7.865  0.00  0.00    -0.358 N 
HETATM   16  H   UNK N   1      32.756  15.918   8.384  0.00  0.00     0.162 HD
HETATM   17  O   UNK N   1      34.158  17.915   6.461  0.00  0.00    -0.271 OA
BRANCH  15  18
HETATM   18  C   UNK N   1      34.849  15.894   8.074  0.00  0.00     0.132 C 
BRANCH  18  19
HETATM   19  C   UNK N   1      35.055  15.083   9.330  0.00  0.00     0.122 C 
BRANCH  19  20
HETATM   20  C   UNK N   1      35.696  15.979  10.359  0.00  0.00     0.219 C 
HETATM   21  N   UNK N   1      36.515  15.500  11.337  0.00  0.00    -0.360 N 
HETATM   22  H   UNK N   1      36.884  16.142  11.984  0.00  0.00     0.162 HD
HETATM   23  O   UNK N   1      35.488  17.178  10.300  0.00  0.00    -0.274 OA
BRANCH  21  24
HETATM   24  C   UNK N   1      36.880  14.108  11.485  0.00  0.00     0.133 C 
BRANCH  24  25
HETATM   25  C   UNK N   1      36.139  13.475  12.646  0.00  0.00     0.102 C 
BRANCH  25  26
HETATM   26  S   UNK N   1      35.819  11.737  12.260  0.00  0.00    -0.091 SA
BRANCH  26  27
HETATM   27  C   UNK N   1      36.383  11.205  13.877  0.00  0.00     0.186 C 
HETATM   28  O   UNK N   1      36.480  10.015  14.125  0.00  0.00    -0.286 OA
BRANCH  27  29
HETATM   29  C   UNK N   1      36.721  12.212  14.932  0.00  0.00     0.101 C 
BRANCH  29  30
HETATM   30  C   UNK N   1      36.162  11.832  16.298  0.00  0.00     0.118 C 
BRANCH  30  31
HETATM   31  C   UNK N   1      35.045  12.720  16.752  0.00  0.00     0.139 C 
HETATM   32  O   UNK N   1      34.982  13.064  17.920  0.00  0.00    -0.650 OA
BRANCH  31  33
HETATM   33  O   UNK N   1      34.136  13.177  15.869  0.00  0.00    -0.776 OA
HETATM   34  H   UNK N   1      33.300  13.275  15.458  0.00  0.00     0.167 HD
ENDBRANCH  31  33
ENDBRANCH  30  31
ENDBRANCH  29  30
ENDBRANCH  27  29
ENDBRANCH  26  27
ENDBRANCH  25  26
ENDBRANCH  24  25
ENDBRANCH  21  24
ENDBRANCH  19  20
ENDBRANCH  18  19
ENDBRANCH  15  18
ENDBRANCH  13  14
BRANCH  13  35
HETATM   35  O   UNK N   1      30.907  17.191   7.392  0.00  0.00    -0.385 OA
HETATM   36  H   UNK N   1      31.141  17.095   8.328  0.00  0.00     0.210 HD
ENDBRANCH  13  35
ENDBRANCH  10  13
ENDBRANCH   9  10
ENDBRANCH   8   9
ENDBRANCH   6   8
BRANCH   6  37
HETATM   37  O   UNK N   1      27.059  17.698   3.589  0.00  0.00    -0.307 OA
HETATM   38  H   UNK N   1      26.940  18.403   4.245  0.00  0.00     0.222 HD
ENDBRANCH   6  37
ENDBRANCH   5   6
ENDBRANCH   3   5
BRANCH   3  39
HETATM   39  O   UNK N   1      23.926  16.418   5.217  0.00  0.00    -0.294 OA
BRANCH  39  40
HETATM   40  C   UNK N   1      22.981  15.748   6.005  0.00  0.00     0.215 C 
BRANCH  40  41
HETATM   41  C   UNK N   1      22.002  15.003   5.110  0.00  0.00     0.180 C 
HETATM   42  O   UNK N   1      22.332  15.138   3.741  0.00  0.00    -0.353 OA
HETATM   43  C   UNK N   1      21.094  15.055   3.058  0.00  0.00     0.262 C 
HETATM   44  C   UNK N   1      20.087  14.619   4.106  0.00  0.00     0.199 C 
HETATM   45  C   UNK N   1      20.553  15.408   5.270  0.00  0.00     0.197 C 
BRANCH  43  46
HETATM   46  N   UNK N   1      20.822  16.333   2.368  0.00  0.00    -0.297 N 
HETATM   47  C   UNK N   1      21.204  17.606   2.612  0.00  0.00     0.142 A 
HETATM   48  C   UNK N   1      20.621  18.426   1.715  0.00  0.00     0.122 A 
HETATM   49  N   UNK N   1      22.021  18.076   3.586  0.00  0.00    -0.336 N 
HETATM   50  C   UNK N   1      20.830  19.797   1.780  0.00  0.00     0.131 A 
HETATM   51  N   UNK N   1      19.871  17.713   0.860  0.00  0.00    -0.346 N 
HETATM   52  N   UNK N   1      21.643  20.276   2.765  0.00  0.00    -0.337 N 
HETATM   53  C   UNK N   1      22.242  19.424   3.660  0.00  0.00     0.183 A 
ATOM     54  HN  UNK N   1      21.809  21.280   2.838  1.00  0.00     0.168 HD
HETATM   55  C   UNK N   1      20.010  16.425   1.282  0.00  0.00     0.188 A 
ATOM     56  HN  UNK N   1      19.320  18.058   0.074  1.00  0.00     0.167 HD
ATOM     57  HN  UNK N   1      22.462  17.438   4.249  1.00  0.00     0.168 HD
BRANCH  50  58
HETATM   58  N   UNK N   1      20.211  20.676   0.868  0.00  0.00    -0.383 N 
HETATM   59  H   UNK N   1      20.078  20.446  -0.080  0.00  0.00     0.157 HD
HETATM   60  H   UNK N   1      19.901  21.553   1.191  0.00  0.00     0.157 HD
ENDBRANCH  50  58
ENDBRANCH  43  46
BRANCH  44  61
HETATM   61  O   UNK N   1      18.743  14.764   3.763  0.00  0.00    -0.388 OA
HETATM   62  H   UNK N   1      18.385  15.619   3.478  0.00  0.00     0.210 HD
ENDBRANCH  44  61
BRANCH  45  63
HETATM   63  O   UNK N   1      19.936  14.952   6.450  0.00  0.00    -0.286 OA
BRANCH  63  64
HETATM   64  P   UNK N   1      19.519  16.357   7.410  0.00  0.00     0.391 P 
HETATM   65  O   UNK N   1      18.315  16.156   8.364  0.00  0.00    -0.632 OA
BRANCH  64  66
HETATM   66  O   UNK N   1      19.904  15.012   8.438  0.00  0.00    -0.307 OA
HETATM   67  H   UNK N   1      19.730  14.062   8.346  0.00  0.00     0.222 HD
ENDBRANCH  64  66
BRANCH  64  68
HETATM   68  O   UNK N   1      18.135  16.151   6.374  0.00  0.00    -0.307 OA
HETATM   69  H   UNK N   1      18.253  15.968   5.429  0.00  0.00     0.222 HD
ENDBRANCH  64  68
ENDBRANCH  63  64
ENDBRANCH  45  63
ENDBRANCH  40  41
ENDBRANCH  39  40
ENDBRANCH   3  39
TORSDOF 30
ENDMDL
MODEL 7
REMARK VINA RESULT:      -6.6      3.243      9.256
REMARK  30 active torsions:
REMARK  status: ('A' for Active; 'I' for Inactive)
REMARK    1  A    between atoms: C_1  and  N_38 
REMARK    2  A    between atoms: C_3  and  O_6 
REMARK    3  A    between atoms: C_4  and  C_32 
REMARK    4  A    between atoms: C_5  and  O_33 
REMARK    5  A    between atoms: N_9  and  C_7 
REMARK    6  A    between atoms: C_7  and  C_8 
REMARK    7  A    between atoms: C_8  and  S_51 
REMARK       I    between atoms: C_10  and  N_9 
REMARK    8  A    between atoms: C_13  and  C_10 
REMARK    9  A    between atoms: C_12  and  N_14 
REMARK   10  A    between atoms: C_13  and  C_12 
REMARK       I    between atoms: C_16  and  N_14 
REMARK   11  A    between atoms: C_16  and  C_21 
REMARK   12  A    between atoms: C_19  and  C_17 
REMARK   13  A    between atoms: C_17  and  O_23 
REMARK   14  A    between atoms: C_21  and  C_19 
REMARK   15  A    between atoms: C_21  and  O_22 
REMARK   16  A    between atoms: O_23  and  P_30 
REMARK   17  A    between atoms: P_30  and  O_24 
REMARK   18  A    between atoms: O_24  and  P_31 
REMARK   19  A    between atoms: P_31  and  O_25 
REMARK   20  A    between atoms: C_32  and  O_25 
REMARK   21  A    between atoms: P_30  and  O_27 
REMARK   22  A    between atoms: O_33  and  P_36 
REMARK   23  A    between atoms: P_36  and  O_34 
REMARK   24  A    between atoms: P_36  and  O_35 
REMARK   25  A    between atoms: N_50  and  C_46 
REMARK   26  A    between atoms: S_51  and  C_53 
REMARK   27  A    between atoms: C_53  and  C_54 
REMARK   28  A    between atoms: C_54  and  C_55 
REMARK   29  A    between atoms: C_55  and  C_57 
REMARK   30  A    between atoms: C_57  and  O_58 
ROOT
HETATM    1  O   UNK N   1      27.593  14.363   2.890  0.00  0.00    -0.631 OA
HETATM    2  O   UNK N   1      25.966  16.466   3.062  0.00  0.00    -0.307 OA
HETATM    3  P   UNK N   1      26.780  15.195   3.920  0.00  0.00     0.401 P 
HETATM    4  H   UNK N   1      25.532  17.237   2.666  0.00  0.00     0.222 HD
ENDROOT
BRANCH   3   5
HETATM    5  O   UNK N   1      25.628  14.183   4.768  0.00  0.00    -0.195 OA
BRANCH   5   6
HETATM    6  P   UNK N   1      24.889  15.068   6.075  0.00  0.00     0.401 P 
HETATM    7  O   UNK N   1      25.652  14.776   7.393  0.00  0.00    -0.631 OA
BRANCH   6   8
HETATM    8  O   UNK N   1      23.160  14.863   6.263  0.00  0.00    -0.296 OA
BRANCH   8   9
HETATM    9  C   UNK N   1      22.857  14.593   7.601  0.00  0.00     0.192 C 
BRANCH   9  10
HETATM   10  C   UNK N   1      21.363  14.349   7.907  0.00  0.00     0.009 C 
HETATM   11  C   UNK N   1      20.963  13.233   6.959  0.00  0.00     0.020 C 
HETATM   12  C   UNK N   1      21.162  13.820   9.312  0.00  0.00     0.020 C 
BRANCH  10  13
HETATM   13  C   UNK N   1      20.393  15.529   7.633  0.00  0.00     0.219 C 
BRANCH  13  14
HETATM   14  C   UNK N   1      19.892  15.851   6.244  0.00  0.00     0.247 C 
HETATM   15  N   UNK N   1      20.684  16.401   5.293  0.00  0.00    -0.358 N 
HETATM   16  H   UNK N   1      21.540  16.819   5.539  0.00  0.00     0.162 HD
HETATM   17  O   UNK N   1      18.748  15.524   5.959  0.00  0.00    -0.271 OA
BRANCH  15  18
HETATM   18  C   UNK N   1      20.261  16.365   3.917  0.00  0.00     0.132 C 
BRANCH  18  19
HETATM   19  C   UNK N   1      19.551  17.613   3.456  0.00  0.00     0.122 C 
BRANCH  19  20
HETATM   20  C   UNK N   1      20.093  17.978   2.097  0.00  0.00     0.219 C 
HETATM   21  N   UNK N   1      20.801  19.121   1.876  0.00  0.00    -0.360 N 
HETATM   22  H   UNK N   1      21.108  19.302   0.958  0.00  0.00     0.162 HD
HETATM   23  O   UNK N   1      19.906  17.212   1.169  0.00  0.00    -0.274 OA
BRANCH  21  24
HETATM   24  C   UNK N   1      21.132  20.087   2.901  0.00  0.00     0.133 C 
BRANCH  24  25
HETATM   25  C   UNK N   1      22.570  20.547   2.766  0.00  0.00     0.102 C 
BRANCH  25  26
HETATM   26  S   UNK N   1      23.636  19.420   3.698  0.00  0.00    -0.091 SA
BRANCH  26  27
HETATM   27  C   UNK N   1      25.123  20.176   3.039  0.00  0.00     0.186 C 
HETATM   28  O   UNK N   1      25.043  20.965   2.114  0.00  0.00    -0.286 OA
BRANCH  27  29
HETATM   29  C   UNK N   1      26.464  19.833   3.609  0.00  0.00     0.101 C 
BRANCH  29  30
HETATM   30  C   UNK N   1      26.935  20.854   4.639  0.00  0.00     0.118 C 
BRANCH  30  31
HETATM   31  C   UNK N   1      26.622  20.464   6.049  0.00  0.00     0.139 C 
HETATM   32  O   UNK N   1      26.308  21.320   6.859  0.00  0.00    -0.650 OA
BRANCH  31  33
HETATM   33  O   UNK N   1      26.641  19.168   6.418  0.00  0.00    -0.776 OA
HETATM   34  H   UNK N   1      26.330  18.372   6.803  0.00  0.00     0.167 HD
ENDBRANCH  31  33
ENDBRANCH  30  31
ENDBRANCH  29  30
ENDBRANCH  27  29
ENDBRANCH  26  27
ENDBRANCH  25  26
ENDBRANCH  24  25
ENDBRANCH  21  24
ENDBRANCH  19  20
ENDBRANCH  18  19
ENDBRANCH  15  18
ENDBRANCH  13  14
BRANCH  13  35
HETATM   35  O   UNK N   1      20.877  16.703   8.222  0.00  0.00    -0.385 OA
HETATM   36  H   UNK N   1      20.310  17.316   8.714  0.00  0.00     0.210 HD
ENDBRANCH  13  35
ENDBRANCH  10  13
ENDBRANCH   9  10
ENDBRANCH   8   9
ENDBRANCH   6   8
BRANCH   6  37
HETATM   37  O   UNK N   1      25.187  16.754   5.796  0.00  0.00    -0.307 OA
HETATM   38  H   UNK N   1      26.064  17.170   5.816  0.00  0.00     0.222 HD
ENDBRANCH   6  37
ENDBRANCH   5   6
ENDBRANCH   3   5
BRANCH   3  39
HETATM   39  O   UNK N   1      27.941  15.876   5.034  0.00  0.00    -0.294 OA
BRANCH  39  40
HETATM   40  C   UNK N   1      28.501  16.988   4.391  0.00  0.00     0.215 C 
BRANCH  40  41
HETATM   41  C   UNK N   1      29.829  17.342   5.042  0.00  0.00     0.180 C 
HETATM   42  O   UNK N   1      30.911  16.659   4.439  0.00  0.00    -0.353 OA
HETATM   43  C   UNK N   1      31.865  16.501   5.474  0.00  0.00     0.262 C 
HETATM   44  C   UNK N   1      31.355  17.352   6.622  0.00  0.00     0.199 C 
HETATM   45  C   UNK N   1      29.902  17.082   6.531  0.00  0.00     0.197 C 
BRANCH  43  46
HETATM   46  N   UNK N   1      32.062  15.063   5.751  0.00  0.00    -0.297 N 
HETATM   47  C   UNK N   1      32.940  14.393   6.531  0.00  0.00     0.142 A 
HETATM   48  C   UNK N   1      32.745  13.067   6.381  0.00  0.00     0.122 A 
HETATM   49  N   UNK N   1      33.902  14.887   7.346  0.00  0.00    -0.336 N 
HETATM   50  C   UNK N   1      33.553  12.160   7.054  0.00  0.00     0.131 A 
HETATM   51  N   UNK N   1      31.734  12.844   5.527  0.00  0.00    -0.346 N 
HETATM   52  N   UNK N   1      34.530  12.653   7.868  0.00  0.00    -0.337 N 
HETATM   53  C   UNK N   1      34.703  14.006   8.021  0.00  0.00     0.183 A 
ATOM     54  HN  UNK N   1      35.141  12.008   8.370  1.00  0.00     0.168 HD
HETATM   55  C   UNK N   1      31.327  14.089   5.152  0.00  0.00     0.188 A 
ATOM     56  HN  UNK N   1      31.355  11.946   5.226  1.00  0.00     0.167 HD
ATOM     57  HN  UNK N   1      34.026  15.894   7.455  1.00  0.00     0.168 HD
BRANCH  50  58
HETATM   58  N   UNK N   1      33.385  10.770   6.893  0.00  0.00    -0.383 N 
HETATM   59  H   UNK N   1      33.417  10.333   6.011  0.00  0.00     0.157 HD
HETATM   60  H   UNK N   1      33.228  10.216   7.691  0.00  0.00     0.157 HD
ENDBRANCH  50  58
ENDBRANCH  43  46
BRANCH  44  61
HETATM   61  O   UNK N   1      31.946  17.125   7.864  0.00  0.00    -0.388 OA
HETATM   62  H   UNK N   1      32.910  17.090   7.964  0.00  0.00     0.210 HD
ENDBRANCH  44  61
BRANCH  45  63
HETATM   63  O   UNK N   1      29.183  17.992   7.328  0.00  0.00    -0.286 OA
BRANCH  63  64
HETATM   64  P   UNK N   1      28.829  17.202   8.852  0.00  0.00     0.391 P 
HETATM   65  O   UNK N   1      27.538  17.693   9.552  0.00  0.00    -0.632 OA
BRANCH  64  66
HETATM   66  O   UNK N   1      27.524  16.972   7.731  0.00  0.00    -0.307 OA
HETATM   67  H   UNK N   1      27.323  17.397   6.882  0.00  0.00     0.222 HD
ENDBRANCH  64  66
BRANCH  64  68
HETATM   68  O   UNK N   1      29.151  18.848   9.317  0.00  0.00    -0.307 OA
HETATM   69  H   UNK N   1      29.142  19.103  10.253  0.00  0.00     0.222 HD
ENDBRANCH  64  68
ENDBRANCH  63  64
ENDBRANCH  45  63
ENDBRANCH  40  41
ENDBRANCH  39  40
ENDBRANCH   3  39
TORSDOF 30
ENDMDL
MODEL 8
REMARK VINA RESULT:      -6.6      7.588     12.024
REMARK  30 active torsions:
REMARK  status: ('A' for Active; 'I' for Inactive)
REMARK    1  A    between atoms: C_1  and  N_38 
REMARK    2  A    between atoms: C_3  and  O_6 
REMARK    3  A    between atoms: C_4  and  C_32 
REMARK    4  A    between atoms: C_5  and  O_33 
REMARK    5  A    between atoms: N_9  and  C_7 
REMARK    6  A    between atoms: C_7  and  C_8 
REMARK    7  A    between atoms: C_8  and  S_51 
REMARK       I    between atoms: C_10  and  N_9 
REMARK    8  A    between atoms: C_13  and  C_10 
REMARK    9  A    between atoms: C_12  and  N_14 
REMARK   10  A    between atoms: C_13  and  C_12 
REMARK       I    between atoms: C_16  and  N_14 
REMARK   11  A    between atoms: C_16  and  C_21 
REMARK   12  A    between atoms: C_19  and  C_17 
REMARK   13  A    between atoms: C_17  and  O_23 
REMARK   14  A    between atoms: C_21  and  C_19 
REMARK   15  A    between atoms: C_21  and  O_22 
REMARK   16  A    between atoms: O_23  and  P_30 
REMARK   17  A    between atoms: P_30  and  O_24 
REMARK   18  A    between atoms: O_24  and  P_31 
REMARK   19  A    between atoms: P_31  and  O_25 
REMARK   20  A    between atoms: C_32  and  O_25 
REMARK   21  A    between atoms: P_30  and  O_27 
REMARK   22  A    between atoms: O_33  and  P_36 
REMARK   23  A    between atoms: P_36  and  O_34 
REMARK   24  A    between atoms: P_36  and  O_35 
REMARK   25  A    between atoms: N_50  and  C_46 
REMARK   26  A    between atoms: S_51  and  C_53 
REMARK   27  A    between atoms: C_53  and  C_54 
REMARK   28  A    between atoms: C_54  and  C_55 
REMARK   29  A    between atoms: C_55  and  C_57 
REMARK   30  A    between atoms: C_57  and  O_58 
ROOT
HETATM    1  O   UNK N   1      32.934  17.816   4.328  0.00  0.00    -0.631 OA
HETATM    2  O   UNK N   1      33.958  15.631   5.456  0.00  0.00    -0.307 OA
HETATM    3  P   UNK N   1      33.216  17.179   5.716  0.00  0.00     0.401 P 
HETATM    4  H   UNK N   1      34.316  14.732   5.395  0.00  0.00     0.222 HD
ENDROOT
BRANCH   3   5
HETATM    5  O   UNK N   1      34.256  18.212   6.676  0.00  0.00    -0.195 OA
BRANCH   5   6
HETATM    6  P   UNK N   1      34.581  17.477   8.223  0.00  0.00     0.401 P 
HETATM    7  O   UNK N   1      35.384  18.466   9.107  0.00  0.00    -0.631 OA
BRANCH   6   8
HETATM    8  O   UNK N   1      35.321  15.890   8.181  0.00  0.00    -0.296 OA
BRANCH   8   9
HETATM    9  C   UNK N   1      34.464  14.953   8.767  0.00  0.00     0.192 C 
BRANCH   9  10
HETATM   10  C   UNK N   1      35.014  14.247  10.026  0.00  0.00     0.009 C 
HETATM   11  C   UNK N   1      34.376  14.995  11.183  0.00  0.00     0.020 C 
HETATM   12  C   UNK N   1      34.534  12.814  10.116  0.00  0.00     0.020 C 
BRANCH  10  13
HETATM   13  C   UNK N   1      36.548  14.316  10.250  0.00  0.00     0.219 C 
BRANCH  13  14
HETATM   14  C   UNK N   1      37.270  13.362  11.174  0.00  0.00     0.247 C 
HETATM   15  N   UNK N   1      37.092  13.374  12.516  0.00  0.00    -0.358 N 
HETATM   16  H   UNK N   1      36.668  14.146  12.955  0.00  0.00     0.162 HD
HETATM   17  O   UNK N   1      37.976  12.501  10.668  0.00  0.00    -0.271 OA
BRANCH  15  18
HETATM   18  C   UNK N   1      37.527  12.242  13.294  0.00  0.00     0.132 C 
BRANCH  18  19
HETATM   19  C   UNK N   1      36.422  11.282  13.660  0.00  0.00     0.122 C 
BRANCH  19  20
HETATM   20  C   UNK N   1      35.324  12.073  14.325  0.00  0.00     0.219 C 
HETATM   21  N   UNK N   1      35.187  12.138  15.679  0.00  0.00    -0.360 N 
HETATM   22  H   UNK N   1      34.436  12.659  16.041  0.00  0.00     0.162 HD
HETATM   23  O   UNK N   1      34.542  12.691  13.623  0.00  0.00    -0.274 OA
BRANCH  21  24
HETATM   24  C   UNK N   1      36.075  11.491  16.620  0.00  0.00     0.133 C 
BRANCH  24  25
HETATM   25  C   UNK N   1      35.339  11.120  17.892  0.00  0.00     0.102 C 
BRANCH  25  26
HETATM   26  S   UNK N   1      34.682   9.443  17.721  0.00  0.00    -0.091 SA
BRANCH  26  27
HETATM   27  C   UNK N   1      34.160   9.402  19.436  0.00  0.00     0.186 C 
HETATM   28  O   UNK N   1      33.325   8.590  19.797  0.00  0.00    -0.286 OA
BRANCH  27  29
HETATM   29  C   UNK N   1      34.731  10.368  20.426  0.00  0.00     0.101 C 
BRANCH  29  30
HETATM   30  C   UNK N   1      35.798   9.732  21.310  0.00  0.00     0.118 C 
BRANCH  30  31
HETATM   31  C   UNK N   1      35.283   9.299  22.647  0.00  0.00     0.139 C 
HETATM   32  O   UNK N   1      34.213   9.722  23.050  0.00  0.00    -0.650 OA
BRANCH  31  33
HETATM   33  O   UNK N   1      35.972   8.409  23.387  0.00  0.00    -0.776 OA
HETATM   34  H   UNK N   1      36.480   8.089  24.106  0.00  0.00     0.167 HD
ENDBRANCH  31  33
ENDBRANCH  30  31
ENDBRANCH  29  30
ENDBRANCH  27  29
ENDBRANCH  26  27
ENDBRANCH  25  26
ENDBRANCH  24  25
ENDBRANCH  21  24
ENDBRANCH  19  20
ENDBRANCH  18  19
ENDBRANCH  15  18
ENDBRANCH  13  14
BRANCH  13  35
HETATM   35  O   UNK N   1      36.937  15.625  10.560  0.00  0.00    -0.385 OA
HETATM   36  H   UNK N   1      37.775  16.007  10.261  0.00  0.00     0.210 HD
ENDBRANCH  13  35
ENDBRANCH  10  13
ENDBRANCH   9  10
ENDBRANCH   8   9
ENDBRANCH   6   8
BRANCH   6  37
HETATM   37  O   UNK N   1      33.066  17.325   9.054  0.00  0.00    -0.307 OA
HETATM   38  H   UNK N   1      32.228  17.704   8.746  0.00  0.00     0.222 HD
ENDBRANCH   6  37
ENDBRANCH   5   6
ENDBRANCH   3   5
BRANCH   3  39
HETATM   39  O   UNK N   1      31.663  16.974   6.492  0.00  0.00    -0.294 OA
BRANCH  39  40
HETATM   40  C   UNK N   1      30.697  17.317   5.536  0.00  0.00     0.215 C 
BRANCH  40  41
HETATM   41  C   UNK N   1      29.429  16.513   5.779  0.00  0.00     0.180 C 
HETATM   42  O   UNK N   1      28.668  16.358   4.596  0.00  0.00    -0.353 OA
HETATM   43  C   UNK N   1      27.325  16.266   5.036  0.00  0.00     0.262 C 
HETATM   44  C   UNK N   1      27.406  16.130   6.545  0.00  0.00     0.199 C 
HETATM   45  C   UNK N   1      28.508  17.075   6.840  0.00  0.00     0.197 C 
BRANCH  43  46
HETATM   46  N   UNK N   1      26.552  17.412   4.514  0.00  0.00    -0.297 N 
HETATM   47  C   UNK N   1      25.238  17.724   4.555  0.00  0.00     0.142 A 
HETATM   48  C   UNK N   1      25.028  18.861   3.860  0.00  0.00     0.122 A 
HETATM   49  N   UNK N   1      24.223  17.056   5.155  0.00  0.00    -0.336 N 
HETATM   50  C   UNK N   1      23.745  19.371   3.723  0.00  0.00     0.131 A 
HETATM   51  N   UNK N   1      26.191  19.323   3.374  0.00  0.00    -0.346 N 
HETATM   52  N   UNK N   1      22.719  18.696   4.316  0.00  0.00    -0.337 N 
HETATM   53  C   UNK N   1      22.953  17.550   5.034  0.00  0.00     0.183 A 
ATOM     54  HN  UNK N   1      21.766  19.048   4.227  1.00  0.00     0.168 HD
HETATM   55  C   UNK N   1      27.117  18.413   3.790  0.00  0.00     0.188 A 
ATOM     56  HN  UNK N   1      26.347  20.163   2.818  1.00  0.00     0.167 HD
ATOM     57  HN  UNK N   1      24.403  16.203   5.686  1.00  0.00     0.168 HD
BRANCH  50  58
HETATM   58  N   UNK N   1      23.500  20.544   2.980  0.00  0.00    -0.383 N 
HETATM   59  H   UNK N   1      23.319  20.527   2.012  0.00  0.00     0.157 HD
HETATM   60  H   UNK N   1      23.510  21.411   3.445  0.00  0.00     0.157 HD
ENDBRANCH  50  58
ENDBRANCH  43  46
BRANCH  44  61
HETATM   61  O   UNK N   1      26.218  16.333   7.244  0.00  0.00    -0.388 OA
HETATM   62  H   UNK N   1      25.572  16.998   6.958  0.00  0.00     0.210 HD
ENDBRANCH  44  61
BRANCH  45  63
HETATM   63  O   UNK N   1      28.956  16.907   8.164  0.00  0.00    -0.286 OA
BRANCH  63  64
HETATM   64  P   UNK N   1      29.137  18.501   8.870  0.00  0.00     0.391 P 
HETATM   65  O   UNK N   1      29.224  18.518  10.417  0.00  0.00    -0.632 OA
BRANCH  64  66
HETATM   66  O   UNK N   1      30.472  17.483   9.316  0.00  0.00    -0.307 OA
HETATM   67  H   UNK N   1      31.072  16.939   8.782  0.00  0.00     0.222 HD
ENDBRANCH  64  66
BRANCH  64  68
HETATM   68  O   UNK N   1      27.570  17.988   9.429  0.00  0.00    -0.307 OA
HETATM   69  H   UNK N   1      27.176  17.167   9.095  0.00  0.00     0.222 HD
ENDBRANCH  64  68
ENDBRANCH  63  64
ENDBRANCH  45  63
ENDBRANCH  40  41
ENDBRANCH  39  40
ENDBRANCH   3  39
TORSDOF 30
ENDMDL
MODEL 9
REMARK VINA RESULT:      -6.5      5.417      9.363
REMARK  30 active torsions:
REMARK  status: ('A' for Active; 'I' for Inactive)
REMARK    1  A    between atoms: C_1  and  N_38 
REMARK    2  A    between atoms: C_3  and  O_6 
REMARK    3  A    between atoms: C_4  and  C_32 
REMARK    4  A    between atoms: C_5  and  O_33 
REMARK    5  A    between atoms: N_9  and  C_7 
REMARK    6  A    between atoms: C_7  and  C_8 
REMARK    7  A    between atoms: C_8  and  S_51 
REMARK       I    between atoms: C_10  and  N_9 
REMARK    8  A    between atoms: C_13  and  C_10 
REMARK    9  A    between atoms: C_12  and  N_14 
REMARK   10  A    between atoms: C_13  and  C_12 
REMARK       I    between atoms: C_16  and  N_14 
REMARK   11  A    between atoms: C_16  and  C_21 
REMARK   12  A    between atoms: C_19  and  C_17 
REMARK   13  A    between atoms: C_17  and  O_23 
REMARK   14  A    between atoms: C_21  and  C_19 
REMARK   15  A    between atoms: C_21  and  O_22 
REMARK   16  A    between atoms: O_23  and  P_30 
REMARK   17  A    between atoms: P_30  and  O_24 
REMARK   18  A    between atoms: O_24  and  P_31 
REMARK   19  A    between atoms: P_31  and  O_25 
REMARK   20  A    between atoms: C_32  and  O_25 
REMARK   21  A    between atoms: P_30  and  O_27 
REMARK   22  A    between atoms: O_33  and  P_36 
REMARK   23  A    between atoms: P_36  and  O_34 
REMARK   24  A    between atoms: P_36  and  O_35 
REMARK   25  A    between atoms: N_50  and  C_46 
REMARK   26  A    between atoms: S_51  and  C_53 
REMARK   27  A    between atoms: C_53  and  C_54 
REMARK   28  A    between atoms: C_54  and  C_55 
REMARK   29  A    between atoms: C_55  and  C_57 
REMARK   30  A    between atoms: C_57  and  O_58 
ROOT
HETATM    1  O   UNK N   1      25.875  16.018   3.891  0.00  0.00    -0.631 OA
HETATM    2  O   UNK N   1      27.382  14.761   5.693  0.00  0.00    -0.307 OA
HETATM    3  P   UNK N   1      26.354  16.121   5.365  0.00  0.00     0.401 P 
HETATM    4  H   UNK N   1      27.913  13.999   5.972  0.00  0.00     0.222 HD
ENDROOT
BRANCH   3   5
HETATM    5  O   UNK N   1      27.209  17.625   5.640  0.00  0.00    -0.195 OA
BRANCH   5   6
HETATM    6  P   UNK N   1      28.252  17.486   7.030  0.00  0.00     0.401 P 
HETATM    7  O   UNK N   1      28.607  18.901   7.555  0.00  0.00    -0.631 OA
BRANCH   6   8
HETATM    8  O   UNK N   1      29.678  16.490   6.825  0.00  0.00    -0.296 OA
BRANCH   8   9
HETATM    9  C   UNK N   1      30.593  17.138   5.989  0.00  0.00     0.192 C 
BRANCH   9  10
HETATM   10  C   UNK N   1      32.065  17.098   6.458  0.00  0.00     0.009 C 
HETATM   11  C   UNK N   1      32.273  15.665   6.916  0.00  0.00     0.020 C 
HETATM   12  C   UNK N   1      33.021  17.331   5.308  0.00  0.00     0.020 C 
BRANCH  10  13
HETATM   13  C   UNK N   1      32.438  18.004   7.661  0.00  0.00     0.219 C 
BRANCH  13  14
HETATM   14  C   UNK N   1      33.777  17.908   8.356  0.00  0.00     0.247 C 
HETATM   15  N   UNK N   1      33.946  17.239   9.521  0.00  0.00    -0.358 N 
HETATM   16  H   UNK N   1      33.168  16.991  10.071  0.00  0.00     0.162 HD
HETATM   17  O   UNK N   1      34.749  18.389   7.792  0.00  0.00    -0.271 OA
BRANCH  15  18
HETATM   18  C   UNK N   1      35.277  16.893   9.947  0.00  0.00     0.132 C 
BRANCH  18  19
HETATM   19  C   UNK N   1      35.594  15.421   9.850  0.00  0.00     0.122 C 
BRANCH  19  20
HETATM   20  C   UNK N   1      34.505  14.665  10.570  0.00  0.00     0.219 C 
HETATM   21  N   UNK N   1      34.653  14.213  11.847  0.00  0.00    -0.360 N 
HETATM   22  H   UNK N   1      33.906  13.712  12.247  0.00  0.00     0.162 HD
HETATM   23  O   UNK N   1      33.450  14.470   9.994  0.00  0.00    -0.274 OA
BRANCH  21  24
HETATM   24  C   UNK N   1      35.834  14.422  12.655  0.00  0.00     0.133 C 
BRANCH  24  25
HETATM   25  C   UNK N   1      35.925  13.386  13.758  0.00  0.00     0.102 C 
BRANCH  25  26
HETATM   26  S   UNK N   1      35.188  11.841  13.174  0.00  0.00    -0.091 SA
BRANCH  26  27
HETATM   27  C   UNK N   1      34.340  11.579  14.732  0.00  0.00     0.186 C 
HETATM   28  O   UNK N   1      33.414  10.788  14.794  0.00  0.00    -0.286 OA
BRANCH  27  29
HETATM   29  C   UNK N   1      34.752  12.335  15.957  0.00  0.00     0.101 C 
BRANCH  29  30
HETATM   30  C   UNK N   1      35.702  11.536  16.841  0.00  0.00     0.118 C 
BRANCH  30  31
HETATM   31  C   UNK N   1      35.188  11.327  18.231  0.00  0.00     0.139 C 
HETATM   32  O   UNK N   1      34.715  10.249  18.546  0.00  0.00    -0.650 OA
BRANCH  31  33
HETATM   33  O   UNK N   1      35.288  12.309  19.149  0.00  0.00    -0.776 OA
HETATM   34  H   UNK N   1      35.308  13.184  19.483  0.00  0.00     0.167 HD
ENDBRANCH  31  33
ENDBRANCH  30  31
ENDBRANCH  29  30
ENDBRANCH  27  29
ENDBRANCH  26  27
ENDBRANCH  25  26
ENDBRANCH  24  25
ENDBRANCH  21  24
ENDBRANCH  19  20
ENDBRANCH  18  19
ENDBRANCH  15  18
ENDBRANCH  13  14
BRANCH  13  35
HETATM   35  O   UNK N   1      31.425  17.971   8.627  0.00  0.00    -0.385 OA
HETATM   36  H   UNK N   1      30.933  18.761   8.899  0.00  0.00     0.210 HD
ENDBRANCH  13  35
ENDBRANCH  10  13
ENDBRANCH   9  10
ENDBRANCH   8   9
ENDBRANCH   6   8
BRANCH   6  37
HETATM   37  O   UNK N   1      27.315  16.796   8.316  0.00  0.00    -0.307 OA
HETATM   38  H   UNK N   1      27.651  16.150   8.958  0.00  0.00     0.222 HD
ENDBRANCH   6  37
ENDBRANCH   5   6
ENDBRANCH   3   5
BRANCH   3  39
HETATM   39  O   UNK N   1      24.919  16.037   6.359  0.00  0.00    -0.294 OA
BRANCH  39  40
HETATM   40  C   UNK N   1      24.499  14.700   6.333  0.00  0.00     0.215 C 
BRANCH  40  41
HETATM   41  C   UNK N   1      23.035  14.630   5.927  0.00  0.00     0.180 C 
HETATM   42  O   UNK N   1      22.844  15.006   4.577  0.00  0.00    -0.353 OA
HETATM   43  C   UNK N   1      21.542  15.563   4.534  0.00  0.00     0.262 C 
HETATM   44  C   UNK N   1      20.927  15.248   5.885  0.00  0.00     0.199 C 
HETATM   45  C   UNK N   1      22.096  15.467   6.768  0.00  0.00     0.197 C 
BRANCH  43  46
HETATM   46  N   UNK N   1      21.624  16.990   4.160  0.00  0.00    -0.297 N 
HETATM   47  C   UNK N   1      20.764  17.822   3.532  0.00  0.00     0.142 A 
HETATM   48  C   UNK N   1      21.350  19.026   3.367  0.00  0.00     0.122 A 
HETATM   49  N   UNK N   1      19.507  17.572   3.091  0.00  0.00    -0.336 N 
HETATM   50  C   UNK N   1      20.678  20.048   2.711  0.00  0.00     0.131 A 
HETATM   51  N   UNK N   1      22.584  19.012   3.895  0.00  0.00    -0.346 N 
HETATM   52  N   UNK N   1      19.417  19.797   2.255  0.00  0.00    -0.337 N 
HETATM   53  C   UNK N   1      18.829  18.571   2.447  0.00  0.00     0.183 A 
ATOM     54  HN  UNK N   1      18.903  20.530   1.765  1.00  0.00     0.168 HD
HETATM   55  C   UNK N   1      22.731  17.747   4.379  0.00  0.00     0.188 A 
ATOM     56  HN  UNK N   1      23.259  19.776   3.927  1.00  0.00     0.167 HD
ATOM     57  HN  UNK N   1      19.076  16.658   3.236  1.00  0.00     0.168 HD
BRANCH  50  58
HETATM   58  N   UNK N   1      21.280  21.305   2.504  0.00  0.00    -0.383 N 
HETATM   59  H   UNK N   1      21.259  22.019   3.182  0.00  0.00     0.157 HD
HETATM   60  H   UNK N   1      21.738  21.476   1.650  0.00  0.00     0.157 HD
ENDBRANCH  50  58
ENDBRANCH  43  46
BRANCH  44  61
HETATM   61  O   UNK N   1      19.769  15.952   6.212  0.00  0.00    -0.388 OA
HETATM   62  H   UNK N   1      19.768  16.919   6.270  0.00  0.00     0.210 HD
ENDBRANCH  44  61
BRANCH  45  63
HETATM   63  O   UNK N   1      21.840  14.958   8.056  0.00  0.00    -0.286 OA
BRANCH  63  64
HETATM   64  P   UNK N   1      21.482  13.250   7.891  0.00  0.00     0.391 P 
HETATM   65  O   UNK N   1      21.018  12.557   9.197  0.00  0.00    -0.632 OA
BRANCH  64  66
HETATM   66  O   UNK N   1      20.085  14.113   8.457  0.00  0.00    -0.307 OA
HETATM   67  H   UNK N   1      19.357  13.846   9.040  0.00  0.00     0.222 HD
ENDBRANCH  64  66
BRANCH  64  68
HETATM   68  O   UNK N   1      22.866  13.271   8.945  0.00  0.00    -0.307 OA
HETATM   69  H   UNK N   1      22.750  13.256   9.908  0.00  0.00     0.222 HD
ENDBRANCH  64  68
ENDBRANCH  63  64
ENDBRANCH  45  63
ENDBRANCH  40  41
ENDBRANCH  39  40
ENDBRANCH   3  39
TORSDOF 30
ENDMDL
