REMARK  4 active torsions:
REMARK  status: ('A' for Active; 'I' for Inactive)
REMARK    1  A    between atoms: C_2  and  N_3 
REMARK    2  A    between atoms: N_3  and  C_5 
REMARK    3  A    between atoms: C_5  and  C_6 
REMARK    4  A    between atoms: C_14  and  N_15 
ROOT
HETATM    1  C   UNK N   1       1.351   0.721  -0.351  0.00  0.00     0.029 A 
HETATM    2  C   UNK N   1       1.546  -0.653  -0.204  0.00  0.00     0.102 A 
HETATM    3  N   UNK N   1       0.500  -1.466   0.103  0.00  0.00    -0.355 N 
ATOM      4  HN  UNK N   1       0.655  -2.468   0.212  1.00  0.00     0.166 HD
HETATM    5  C   UNK N   1      -0.749  -0.958   0.267  0.00  0.00     0.078 A 
HETATM    6  C   UNK N   1      -1.888  -1.868   0.563  0.00  0.00     0.089 C 
HETATM    7  N   UNK N   1      -0.966   0.374   0.138  0.00  0.00    -0.332 N 
ATOM      8  HN  UNK N   1      -1.907   0.744   0.271  1.00  0.00     0.168 HD
HETATM    9  C   UNK N   1       0.050   1.227  -0.167  0.00  0.00     0.109 A 
ENDROOT
BRANCH   1  10
HETATM   10  C   UNK N   1       2.517   1.571  -0.793  0.00  0.00     0.315 C 
BRANCH  10  11
HETATM   11  N   UNK N   1       2.901   2.612   0.154  0.00  0.00     0.088 N 
HETATM   12  C   UNK N   1       2.323   3.854  -0.343  0.00  0.00     0.310 C 
BRANCH  11  13
HETATM   13  C   UNK N   1       4.351   2.737   0.023  0.00  0.00     0.268 C 
HETATM   14  C   UNK N   1       4.917   3.816   0.939  0.00  0.00     0.037 C 
ENDBRANCH  11  13
ENDBRANCH  10  11
ENDBRANCH   1  10
BRANCH   9  15
HETATM   15  N   UNK N   1      -0.232   2.596  -0.329  0.00  0.00    -0.385 N 
HETATM   16  H   UNK N   1       0.498   3.246  -0.442  0.00  0.00     0.157 HD
HETATM   17  H   UNK N   1      -1.167   2.906  -0.329  0.00  0.00     0.157 HD
ENDBRANCH   9  15
TORSDOF 4
