REMARK  9 active torsions:
REMARK  status: ('A' for Active; 'I' for Inactive)
REMARK    1  A    between atoms: C_4  and  C_3 
REMARK    2  A    between atoms: O_15  and  C_3 
REMARK    3  A    between atoms: C_6  and  O_16 
REMARK    4  A    between atoms: C_7  and  O_22 
REMARK    5  A    between atoms: C_8  and  N_14 
REMARK    6  A    between atoms: O_17  and  C_9 
REMARK    7  A    between atoms: P_23  and  O_18 
REMARK    8  A    between atoms: P_23  and  O_19 
REMARK    9  A    between atoms: P_23  and  O_22 
ROOT
HETATM    1  C   UNK N   1       4.073  -0.103   0.434  0.00  0.00     0.179 C 
HETATM    2  C   UNK N   1       3.300   0.708  -0.616  0.00  0.00     0.183 C 
HETATM    3  C   UNK N   1       2.082  -0.180  -0.865  0.00  0.00     0.214 C 
HETATM    4  C   UNK N   1       2.137  -1.236   0.247  0.00  0.00     0.263 C 
HETATM    5  O   UNK N   1       3.526  -1.403   0.477  0.00  0.00    -0.353 OA
ENDROOT
BRANCH   4   6
HETATM    6  N   UNK N   1       1.514  -2.539  -0.105  0.00  0.00    -0.293 N 
HETATM    7  C   UNK N   1       2.293  -3.663  -0.078  0.00  0.00     0.101 A 
HETATM    8  C   UNK N   1       1.754  -4.921  -0.331  0.00  0.00     0.065 A 
HETATM    9  C   UNK N   1       0.401  -5.014  -0.616  0.00  0.00     0.102 A 
HETATM   10  N   UNK N   1      -0.131  -6.154  -0.838  0.00  0.00    -0.385 N 
HETATM   11  N   UNK N   1      -0.358  -3.893  -0.650  0.00  0.00    -0.308 N 
HETATM   12  H   UNK N   1      -1.097  -6.239  -1.009  0.00  0.00     0.157 HD
ATOM     13  HN  UNK N   1       0.453  -6.990  -0.838  1.00  0.00     0.157 HD
HETATM   14  C   UNK N   1       0.176  -2.668  -0.398  0.00  0.00     0.227 A 
ATOM     15  HN  UNK N   1      -1.351  -3.968  -0.870  1.00  0.00     0.171 HD
BRANCH  14  16
HETATM   16  O   UNK N   1      -0.629  -1.600  -0.428  0.00  0.00    -0.332 OA
HETATM   17  H   UNK N   1      -0.263  -0.738  -0.449  0.00  0.00     0.221 HD
ENDBRANCH  14  16
ENDBRANCH   4   6
BRANCH   3  18
HETATM   18  O   UNK N   1       0.859   0.475  -1.166  0.00  0.00    -0.284 OA
BRANCH  18  19
HETATM   19  P   UNK N   1       0.136   1.331   0.202  0.00  0.00     0.391 P 
HETATM   20  O   UNK N   1      -0.025   2.808  -0.243  0.00  0.00    -0.632 OA
BRANCH  19  21
HETATM   21  O   UNK N   1       1.075   1.379   1.664  0.00  0.00    -0.307 OA
HETATM   22  H   UNK N   1       1.360   0.939   2.480  0.00  0.00     0.222 HD
ENDBRANCH  19  21
BRANCH  19  23
HETATM   23  O   UNK N   1      -1.477   0.779   0.534  0.00  0.00    -0.307 OA
HETATM   24  H   UNK N   1      -2.194   1.405   0.719  0.00  0.00     0.222 HD
ENDBRANCH  19  23
ENDBRANCH  18  19
ENDBRANCH   3  18
BRANCH   2  25
HETATM   25  O   UNK N   1       3.007   1.975  -0.110  0.00  0.00    -0.390 OA
HETATM   26  H   UNK N   1       3.668   2.592   0.242  0.00  0.00     0.210 HD
ENDBRANCH   2  25
BRANCH   1  27
HETATM   27  C   UNK N   1       5.566  -0.161   0.131  0.00  0.00     0.198 C 
BRANCH  27  28
HETATM   28  O   UNK N   1       6.128   1.115   0.199  0.00  0.00    -0.398 OA
HETATM   29  H   UNK N   1       7.091   1.220   0.245  0.00  0.00     0.209 HD
ENDBRANCH  27  28
ENDBRANCH   1  27
TORSDOF 9
