REMARK  6 active torsions:
REMARK  status: ('A' for Active; 'I' for Inactive)
REMARK    1  A    between atoms: N_2  and  C_3 
REMARK    2  A    between atoms: N_2  and  C_5 
REMARK    3  A    between atoms: N_2  and  C_7 
REMARK    4  A    between atoms: C_3  and  O_4 
REMARK    5  A    between atoms: C_5  and  O_6 
REMARK    6  A    between atoms: C_7  and  O_8 
ROOT
HETATM    1  C   UNK N   1       1.653   2.180  -0.603  0.00  0.00     0.280 C 
HETATM    2  N   UNK N   1       1.260   1.036   0.212  0.00  0.00    -0.009 N 
ENDROOT
BRANCH   2   3
HETATM    3  C   UNK N   1       0.055   1.387   0.967  0.00  0.00     0.406 C 
BRANCH   3   4
HETATM    4  O   UNK N   1      -1.023   1.652   0.115  0.00  0.00    -0.374 OA
HETATM    5  H   UNK N   1      -1.237   2.391  -0.476  0.00  0.00     0.211 HD
ENDBRANCH   3   4
ENDBRANCH   2   3
BRANCH   2   6
HETATM    6  C   UNK N   1       2.320   0.740   1.179  0.00  0.00     0.406 C 
BRANCH   6   7
HETATM    7  O   UNK N   1       3.556   0.549   0.547  0.00  0.00    -0.374 OA
HETATM    8  H   UNK N   1       3.869  -0.258   0.110  0.00  0.00     0.211 HD
ENDBRANCH   6   7
ENDBRANCH   2   6
BRANCH   2   9
HETATM    9  C   UNK N   1       1.023  -0.114  -0.670  0.00  0.00     0.406 C 
BRANCH   9  10
HETATM   10  O   UNK N   1       0.488  -1.197   0.038  0.00  0.00    -0.374 OA
HETATM   11  H   UNK N   1      -0.347  -1.252   0.528  0.00  0.00     0.211 HD
ENDBRANCH   9  10
ENDBRANCH   2   9
TORSDOF 6
