MODEL 1
REMARK VINA RESULT:      -7.2      0.000      0.000
REMARK  27 active torsions:
REMARK  status: ('A' for Active; 'I' for Inactive)
REMARK    1  A    between atoms: C_31  and  C_23 
REMARK    2  A    between atoms: N_47  and  C_23 
REMARK    3  A    between atoms: C_32  and  C_24 
REMARK    4  A    between atoms: N_49  and  C_24 
REMARK    5  A    between atoms: C_29  and  C_25 
REMARK    6  A    between atoms: O_61  and  C_25 
REMARK    7  A    between atoms: C_30  and  C_26 
REMARK    8  A    between atoms: O_62  and  C_26 
REMARK    9  A    between atoms: C_33  and  C_27 
REMARK   10  A    between atoms: C_34  and  C_28 
REMARK   11  A    between atoms: C_39  and  C_33 
REMARK   12  A    between atoms: C_33  and  N_51 
REMARK   13  A    between atoms: C_40  and  C_34 
REMARK   14  A    between atoms: C_34  and  N_53 
REMARK   15  A    between atoms: C_36  and  C_35 
REMARK   16  A    between atoms: C_37  and  C_35 
REMARK   17  A    between atoms: C_35  and  O_55 
REMARK   18  A    between atoms: C_38  and  C_36 
REMARK   19  A    between atoms: C_36  and  O_56 
REMARK   20  A    between atoms: C_41  and  C_37 
REMARK   21  A    between atoms: C_37  and  O_61 
REMARK   22  A    between atoms: C_42  and  C_38 
REMARK   23  A    between atoms: C_38  and  O_62 
REMARK   24  A    between atoms: O_57  and  C_39 
REMARK   25  A    between atoms: O_58  and  C_40 
REMARK   26  A    between atoms: C_41  and  O_59 
REMARK   27  A    between atoms: C_42  and  O_60 
ROOT
HETATM    1  C   UNK N   1      24.216  16.316   4.627  0.00  0.00     0.186 C 
ENDROOT
BRANCH   1   2
HETATM    2  C   UNK N   1      25.686  16.067   4.189  0.00  0.00     0.186 C 
BRANCH   2   3
HETATM    3  C   UNK N   1      26.838  16.842   4.868  0.00  0.00     0.227 C 
BRANCH   3   4
HETATM    4  C   UNK N   1      27.705  17.718   3.964  0.00  0.00     0.144 C 
HETATM    5  N   UNK N   1      27.510  19.002   3.859  0.00  0.00    -0.360 N 
ATOM      6  HN  UNK N   1      28.142  19.532   3.258  1.00  0.00     0.162 HD
BRANCH   5   7
HETATM    7  C   UNK N   1      26.449  19.734   4.543  0.00  0.00     0.161 C 
BRANCH   7   8
HETATM    8  C   UNK N   1      26.993  20.938   5.318  0.00  0.00     0.008 C 
HETATM    9  C   UNK N   1      28.362  20.673   5.925  0.00  0.00     0.012 C 
HETATM   10  C   UNK N   1      26.027  21.374   6.404  0.00  0.00     0.012 C 
ENDBRANCH   7   8
BRANCH   7  11
HETATM   11  C   UNK N   1      25.364  20.188   3.593  0.00  0.00     0.135 C 
HETATM   12  N   UNK N   1      24.118  19.908   3.831  0.00  0.00    -0.367 N 
ATOM     13  HN  UNK N   1      23.889  19.411   4.692  1.00  0.00     0.161 HD
BRANCH  12  14
HETATM   14  C   UNK N   1      23.035  20.266   2.932  0.00  0.00     0.178 C 
BRANCH  14  15
HETATM   15  C   UNK N   1      21.882  19.322   3.082  0.00  0.00     0.026 A 
HETATM   16  C   UNK N   1      20.799  19.380   2.196  0.00  0.00     0.027 A 
HETATM   17  C   UNK N   1      19.681  18.578   2.431  0.00  0.00     0.003 A 
HETATM   18  C   UNK N   1      19.655  17.736   3.543  0.00  0.00     0.017 A 
HETATM   19  C   UNK N   1      20.757  17.699   4.400  0.00  0.00     0.088 A 
HETATM   20  N   UNK N   1      21.836  18.491   4.158  0.00  0.00    -0.368 N 
ATOM     21  HN  UNK N   1      22.629  18.461   4.799  1.00  0.00     0.165 HD
ENDBRANCH  14  15
ENDBRANCH  12  14
BRANCH  11  22
HETATM   22  O   UNK N   1      25.719  20.845   2.471  0.00  0.00    -0.348 OA
HETATM   23  H   UNK N   1      25.942  20.771   1.564  0.00  0.00     0.219 HD
ENDBRANCH  11  22
ENDBRANCH   7  11
ENDBRANCH   5   7
BRANCH   4  24
HETATM   24  O   UNK N   1      28.708  17.157   3.265  0.00  0.00    -0.348 OA
HETATM   25  H   UNK N   1      29.028  17.104   2.386  0.00  0.00     0.219 HD
ENDBRANCH   4  24
ENDBRANCH   3   4
BRANCH   3  26
HETATM   26  O   UNK N   1      27.559  16.198   5.902  0.00  0.00    -0.370 OA
BRANCH  26  27
HETATM   27  C   UNK N   1      27.455  16.884   7.126  0.00  0.00     0.207 C 
BRANCH  27  28
HETATM   28  C   UNK N   1      28.780  17.344   7.646  0.00  0.00    -0.035 A 
HETATM   29  C   UNK N   1      28.867  18.177   8.769  0.00  0.00     0.009 A 
HETATM   30  C   UNK N   1      30.119  18.587   9.241  0.00  0.00     0.001 A 
HETATM   31  C   UNK N   1      31.284  18.153   8.601  0.00  0.00     0.000 A 
HETATM   32  C   UNK N   1      31.199  17.314   7.486  0.00  0.00     0.001 A 
HETATM   33  C   UNK N   1      29.948  16.911   7.010  0.00  0.00     0.009 A 
ENDBRANCH  27  28
ENDBRANCH  26  27
ENDBRANCH   3  26
ENDBRANCH   2   3
BRANCH   2  34
HETATM   34  O   UNK N   1      25.760  16.342   2.814  0.00  0.00    -0.390 OA
HETATM   35  H   UNK N   1      25.770  15.997   1.908  0.00  0.00     0.210 HD
ENDBRANCH   2  34
ENDBRANCH   1   2
BRANCH   1  36
HETATM   36  C   UNK N   1      23.489  14.985   5.021  0.00  0.00     0.227 C 
BRANCH  36  37
HETATM   37  C   UNK N   1      23.643  14.666   6.499  0.00  0.00     0.144 C 
HETATM   38  N   UNK N   1      22.647  14.528   7.326  0.00  0.00    -0.360 N 
ATOM     39  HN  UNK N   1      22.914  14.287   8.281  1.00  0.00     0.162 HD
BRANCH  38  40
HETATM   40  C   UNK N   1      21.212  14.666   7.106  0.00  0.00     0.161 C 
BRANCH  40  41
HETATM   41  C   UNK N   1      20.395  15.150   8.337  0.00  0.00     0.008 C 
HETATM   42  C   UNK N   1      20.819  14.416   9.601  0.00  0.00     0.012 C 
HETATM   43  C   UNK N   1      20.411  16.624   8.647  0.00  0.00     0.012 C 
ENDBRANCH  40  41
BRANCH  40  44
HETATM   44  C   UNK N   1      20.635  13.513   6.321  0.00  0.00     0.135 C 
HETATM   45  N   UNK N   1      19.971  13.771   5.241  0.00  0.00    -0.367 N 
ATOM     46  HN  UNK N   1      19.980  14.722   4.877  1.00  0.00     0.161 HD
BRANCH  45  47
HETATM   47  C   UNK N   1      19.217  12.763   4.529  0.00  0.00     0.178 C 
BRANCH  47  48
HETATM   48  C   UNK N   1      19.332  13.033   3.060  0.00  0.00     0.026 A 
HETATM   49  C   UNK N   1      19.648  11.989   2.179  0.00  0.00     0.027 A 
HETATM   50  C   UNK N   1      19.877  12.274   0.833  0.00  0.00     0.003 A 
HETATM   51  C   UNK N   1      19.786  13.591   0.381  0.00  0.00     0.017 A 
HETATM   52  C   UNK N   1      19.459  14.604   1.286  0.00  0.00     0.088 A 
HETATM   53  N   UNK N   1      19.250  14.309   2.599  0.00  0.00    -0.368 N 
ATOM     54  HN  UNK N   1      19.028  15.062   3.250  1.00  0.00     0.165 HD
ENDBRANCH  47  48
ENDBRANCH  45  47
BRANCH  44  55
HETATM   55  O   UNK N   1      20.719  12.251   6.793  0.00  0.00    -0.348 OA
HETATM   56  H   UNK N   1      20.891  11.472   7.285  0.00  0.00     0.219 HD
ENDBRANCH  44  55
ENDBRANCH  40  44
ENDBRANCH  38  40
BRANCH  37  57
HETATM   57  O   UNK N   1      24.891  14.547   6.989  0.00  0.00    -0.348 OA
HETATM   58  H   UNK N   1      25.497  13.837   7.076  0.00  0.00     0.219 HD
ENDBRANCH  37  57
ENDBRANCH  36  37
BRANCH  36  59
HETATM   59  O   UNK N   1      24.107  13.931   4.308  0.00  0.00    -0.370 OA
BRANCH  59  60
HETATM   60  C   UNK N   1      23.251  12.893   3.950  0.00  0.00     0.207 C 
BRANCH  60  61
HETATM   61  C   UNK N   1      23.330  12.750   2.469  0.00  0.00    -0.035 A 
HETATM   62  C   UNK N   1      23.409  11.481   1.892  0.00  0.00     0.009 A 
HETATM   63  C   UNK N   1      23.523  11.350   0.504  0.00  0.00     0.001 A 
HETATM   64  C   UNK N   1      23.573  12.488  -0.307  0.00  0.00     0.000 A 
HETATM   65  C   UNK N   1      23.498  13.760   0.267  0.00  0.00     0.001 A 
HETATM   66  C   UNK N   1      23.373  13.892   1.652  0.00  0.00     0.009 A 
ENDBRANCH  60  61
ENDBRANCH  59  60
ENDBRANCH  36  59
ENDBRANCH   1  36
BRANCH   1  67
HETATM   67  O   UNK N   1      24.116  17.259   5.654  0.00  0.00    -0.390 OA
HETATM   68  H   UNK N   1      23.731  17.310   6.544  0.00  0.00     0.210 HD
ENDBRANCH   1  67
TORSDOF 27
ENDMDL
MODEL 2
REMARK VINA RESULT:      -7.1      7.774     13.286
REMARK  27 active torsions:
REMARK  status: ('A' for Active; 'I' for Inactive)
REMARK    1  A    between atoms: C_31  and  C_23 
REMARK    2  A    between atoms: N_47  and  C_23 
REMARK    3  A    between atoms: C_32  and  C_24 
REMARK    4  A    between atoms: N_49  and  C_24 
REMARK    5  A    between atoms: C_29  and  C_25 
REMARK    6  A    between atoms: O_61  and  C_25 
REMARK    7  A    between atoms: C_30  and  C_26 
REMARK    8  A    between atoms: O_62  and  C_26 
REMARK    9  A    between atoms: C_33  and  C_27 
REMARK   10  A    between atoms: C_34  and  C_28 
REMARK   11  A    between atoms: C_39  and  C_33 
REMARK   12  A    between atoms: C_33  and  N_51 
REMARK   13  A    between atoms: C_40  and  C_34 
REMARK   14  A    between atoms: C_34  and  N_53 
REMARK   15  A    between atoms: C_36  and  C_35 
REMARK   16  A    between atoms: C_37  and  C_35 
REMARK   17  A    between atoms: C_35  and  O_55 
REMARK   18  A    between atoms: C_38  and  C_36 
REMARK   19  A    between atoms: C_36  and  O_56 
REMARK   20  A    between atoms: C_41  and  C_37 
REMARK   21  A    between atoms: C_37  and  O_61 
REMARK   22  A    between atoms: C_42  and  C_38 
REMARK   23  A    between atoms: C_38  and  O_62 
REMARK   24  A    between atoms: O_57  and  C_39 
REMARK   25  A    between atoms: O_58  and  C_40 
REMARK   26  A    between atoms: C_41  and  O_59 
REMARK   27  A    between atoms: C_42  and  O_60 
ROOT
HETATM    1  C   UNK N   1      34.518  15.891  10.452  0.00  0.00     0.186 C 
ENDROOT
BRANCH   1   2
HETATM    2  C   UNK N   1      35.907  15.325  10.044  0.00  0.00     0.186 C 
BRANCH   2   3
HETATM    3  C   UNK N   1      36.198  13.814  10.181  0.00  0.00     0.227 C 
BRANCH   3   4
HETATM    4  C   UNK N   1      37.517  13.424  10.848  0.00  0.00     0.144 C 
HETATM    5  N   UNK N   1      37.568  12.541  11.805  0.00  0.00    -0.360 N 
ATOM      6  HN  UNK N   1      38.484  12.308  12.188  1.00  0.00     0.162 HD
BRANCH   5   7
HETATM    7  C   UNK N   1      36.404  11.864  12.366  0.00  0.00     0.161 C 
BRANCH   7   8
HETATM    8  C   UNK N   1      36.762  10.486  12.931  0.00  0.00     0.008 C 
HETATM    9  C   UNK N   1      37.686   9.699  12.015  0.00  0.00     0.012 C 
HETATM   10  C   UNK N   1      35.515   9.672  13.224  0.00  0.00     0.012 C 
ENDBRANCH   7   8
BRANCH   7  11
HETATM   11  C   UNK N   1      35.720  12.690  13.432  0.00  0.00     0.135 C 
HETATM   12  N   UNK N   1      36.340  12.995  14.531  0.00  0.00    -0.367 N 
ATOM     13  HN  UNK N   1      37.310  12.698  14.638  1.00  0.00     0.161 HD
BRANCH  12  14
HETATM   14  C   UNK N   1      35.721  13.736  15.616  0.00  0.00     0.178 C 
BRANCH  14  15
HETATM   15  C   UNK N   1      35.549  12.869  16.825  0.00  0.00     0.026 A 
HETATM   16  C   UNK N   1      35.209  13.436  18.060  0.00  0.00     0.027 A 
HETATM   17  C   UNK N   1      35.178  12.626  19.196  0.00  0.00     0.003 A 
HETATM   18  C   UNK N   1      35.487  11.270  19.089  0.00  0.00     0.017 A 
HETATM   19  C   UNK N   1      35.813  10.739  17.839  0.00  0.00     0.088 A 
HETATM   20  N   UNK N   1      35.843  11.543  16.743  0.00  0.00    -0.368 N 
ATOM     21  HN  UNK N   1      36.093  11.144  15.838  1.00  0.00     0.165 HD
ENDBRANCH  14  15
ENDBRANCH  12  14
BRANCH  11  22
HETATM   22  O   UNK N   1      34.438  13.061  13.239  0.00  0.00    -0.348 OA
HETATM   23  H   UNK N   1      33.807  13.749  13.323  0.00  0.00     0.219 HD
ENDBRANCH  11  22
ENDBRANCH   7  11
ENDBRANCH   5   7
BRANCH   4  24
HETATM   24  O   UNK N   1      38.662  13.993  10.431  0.00  0.00    -0.348 OA
HETATM   25  H   UNK N   1      39.492  13.754  10.069  0.00  0.00     0.219 HD
ENDBRANCH   4  24
ENDBRANCH   3   4
BRANCH   3  26
HETATM   26  O   UNK N   1      35.822  12.961   9.115  0.00  0.00    -0.370 OA
BRANCH  26  27
HETATM   27  C   UNK N   1      36.302  13.420   7.875  0.00  0.00     0.207 C 
BRANCH  27  28
HETATM   28  C   UNK N   1      35.854  12.570   6.729  0.00  0.00    -0.035 A 
HETATM   29  C   UNK N   1      36.734  12.228   5.694  0.00  0.00     0.009 A 
HETATM   30  C   UNK N   1      36.292  11.424   4.638  0.00  0.00     0.001 A 
HETATM   31  C   UNK N   1      34.976  10.951   4.621  0.00  0.00     0.000 A 
HETATM   32  C   UNK N   1      34.100  11.283   5.658  0.00  0.00     0.001 A 
HETATM   33  C   UNK N   1      34.539  12.092   6.710  0.00  0.00     0.009 A 
ENDBRANCH  27  28
ENDBRANCH  26  27
ENDBRANCH   3  26
ENDBRANCH   2   3
BRANCH   2  34
HETATM   34  O   UNK N   1      36.871  16.000  10.811  0.00  0.00    -0.390 OA
HETATM   35  H   UNK N   1      37.169  16.283  11.689  0.00  0.00     0.210 HD
ENDBRANCH   2  34
ENDBRANCH   1   2
BRANCH   1  36
HETATM   36  C   UNK N   1      33.641  16.245   9.202  0.00  0.00     0.227 C 
BRANCH  36  37
HETATM   37  C   UNK N   1      32.600  15.176   8.914  0.00  0.00     0.144 C 
HETATM   38  N   UNK N   1      31.425  15.415   8.410  0.00  0.00    -0.360 N 
ATOM     39  HN  UNK N   1      30.851  14.587   8.249  1.00  0.00     0.162 HD
BRANCH  38  40
HETATM   40  C   UNK N   1      30.795  16.678   8.041  0.00  0.00     0.161 C 
BRANCH  40  41
HETATM   41  C   UNK N   1      29.946  17.349   9.157  0.00  0.00     0.008 C 
HETATM   42  C   UNK N   1      30.291  18.825   9.296  0.00  0.00     0.012 C 
HETATM   43  C   UNK N   1      28.447  17.248   9.048  0.00  0.00     0.012 C 
ENDBRANCH  40  41
BRANCH  40  44
HETATM   44  C   UNK N   1      30.189  16.638   6.660  0.00  0.00     0.135 C 
HETATM   45  N   UNK N   1      29.849  17.754   6.100  0.00  0.00    -0.367 N 
ATOM     46  HN  UNK N   1      30.129  18.628   6.542  1.00  0.00     0.161 HD
BRANCH  45  47
HETATM   47  C   UNK N   1      29.086  17.812   4.873  0.00  0.00     0.178 C 
BRANCH  47  48
HETATM   48  C   UNK N   1      28.026  18.859   5.021  0.00  0.00     0.026 A 
HETATM   49  C   UNK N   1      27.330  19.316   3.892  0.00  0.00     0.027 A 
HETATM   50  C   UNK N   1      26.436  20.378   4.022  0.00  0.00     0.003 A 
HETATM   51  C   UNK N   1      26.244  20.971   5.269  0.00  0.00     0.017 A 
HETATM   52  C   UNK N   1      26.947  20.483   6.374  0.00  0.00     0.088 A 
HETATM   53  N   UNK N   1      27.824  19.453   6.227  0.00  0.00    -0.368 N 
ATOM     54  HN  UNK N   1      28.342  19.118   7.040  1.00  0.00     0.165 HD
ENDBRANCH  47  48
ENDBRANCH  45  47
BRANCH  44  55
HETATM   55  O   UNK N   1      29.910  15.458   6.066  0.00  0.00    -0.348 OA
HETATM   56  H   UNK N   1      29.819  14.554   5.832  0.00  0.00     0.219 HD
ENDBRANCH  44  55
ENDBRANCH  40  44
ENDBRANCH  38  40
BRANCH  37  57
HETATM   57  O   UNK N   1      32.906  13.902   9.226  0.00  0.00    -0.348 OA
HETATM   58  H   UNK N   1      32.528  13.068   9.024  0.00  0.00     0.219 HD
ENDBRANCH  37  57
ENDBRANCH  36  37
BRANCH  36  59
HETATM   59  O   UNK N   1      34.497  16.299   8.077  0.00  0.00    -0.370 OA
BRANCH  59  60
HETATM   60  C   UNK N   1      34.307  17.407   7.256  0.00  0.00     0.207 C 
BRANCH  60  61
HETATM   61  C   UNK N   1      33.935  16.894   5.907  0.00  0.00    -0.035 A 
HETATM   62  C   UNK N   1      33.202  17.697   5.032  0.00  0.00     0.009 A 
HETATM   63  C   UNK N   1      32.819  17.201   3.782  0.00  0.00     0.001 A 
HETATM   64  C   UNK N   1      33.155  15.895   3.412  0.00  0.00     0.000 A 
HETATM   65  C   UNK N   1      33.885  15.086   4.287  0.00  0.00     0.001 A 
HETATM   66  C   UNK N   1      34.278  15.585   5.531  0.00  0.00     0.009 A 
ENDBRANCH  60  61
ENDBRANCH  59  60
ENDBRANCH  36  59
ENDBRANCH   1  36
BRANCH   1  67
HETATM   67  O   UNK N   1      33.827  15.040  11.318  0.00  0.00    -0.390 OA
HETATM   68  H   UNK N   1      33.862  14.107  11.583  0.00  0.00     0.210 HD
ENDBRANCH   1  67
TORSDOF 27
ENDMDL
MODEL 3
REMARK VINA RESULT:      -7.0      2.410      8.768
REMARK  27 active torsions:
REMARK  status: ('A' for Active; 'I' for Inactive)
REMARK    1  A    between atoms: C_31  and  C_23 
REMARK    2  A    between atoms: N_47  and  C_23 
REMARK    3  A    between atoms: C_32  and  C_24 
REMARK    4  A    between atoms: N_49  and  C_24 
REMARK    5  A    between atoms: C_29  and  C_25 
REMARK    6  A    between atoms: O_61  and  C_25 
REMARK    7  A    between atoms: C_30  and  C_26 
REMARK    8  A    between atoms: O_62  and  C_26 
REMARK    9  A    between atoms: C_33  and  C_27 
REMARK   10  A    between atoms: C_34  and  C_28 
REMARK   11  A    between atoms: C_39  and  C_33 
REMARK   12  A    between atoms: C_33  and  N_51 
REMARK   13  A    between atoms: C_40  and  C_34 
REMARK   14  A    between atoms: C_34  and  N_53 
REMARK   15  A    between atoms: C_36  and  C_35 
REMARK   16  A    between atoms: C_37  and  C_35 
REMARK   17  A    between atoms: C_35  and  O_55 
REMARK   18  A    between atoms: C_38  and  C_36 
REMARK   19  A    between atoms: C_36  and  O_56 
REMARK   20  A    between atoms: C_41  and  C_37 
REMARK   21  A    between atoms: C_37  and  O_61 
REMARK   22  A    between atoms: C_42  and  C_38 
REMARK   23  A    between atoms: C_38  and  O_62 
REMARK   24  A    between atoms: O_57  and  C_39 
REMARK   25  A    between atoms: O_58  and  C_40 
REMARK   26  A    between atoms: C_41  and  O_59 
REMARK   27  A    between atoms: C_42  and  O_60 
ROOT
HETATM    1  C   UNK N   1      23.465  14.734   5.703  0.00  0.00     0.186 C 
ENDROOT
BRANCH   1   2
HETATM    2  C   UNK N   1      23.072  16.210   5.988  0.00  0.00     0.186 C 
BRANCH   2   3
HETATM    3  C   UNK N   1      22.094  16.946   5.047  0.00  0.00     0.227 C 
BRANCH   3   4
HETATM    4  C   UNK N   1      21.479  18.245   5.570  0.00  0.00     0.144 C 
HETATM    5  N   UNK N   1      21.252  19.261   4.788  0.00  0.00    -0.360 N 
ATOM      6  HN  UNK N   1      20.816  20.088   5.196  1.00  0.00     0.162 HD
BRANCH   5   7
HETATM    7  C   UNK N   1      21.581  19.299   3.366  0.00  0.00     0.161 C 
BRANCH   7   8
HETATM    8  C   UNK N   1      20.377  19.707   2.513  0.00  0.00     0.008 C 
HETATM    9  C   UNK N   1      19.173  18.804   2.728  0.00  0.00     0.012 C 
HETATM   10  C   UNK N   1      20.735  19.740   1.038  0.00  0.00     0.012 C 
ENDBRANCH   7   8
BRANCH   7  11
HETATM   11  C   UNK N   1      22.748  20.213   3.072  0.00  0.00     0.135 C 
HETATM   12  N   UNK N   1      23.958  19.745   3.021  0.00  0.00    -0.367 N 
ATOM     13  HN  UNK N   1      24.095  18.741   3.143  1.00  0.00     0.161 HD
BRANCH  12  14
HETATM   14  C   UNK N   1      25.126  20.579   2.799  0.00  0.00     0.178 C 
BRANCH  14  15
HETATM   15  C   UNK N   1      26.102  20.443   3.927  0.00  0.00     0.026 A 
HETATM   16  C   UNK N   1      27.379  19.917   3.699  0.00  0.00     0.027 A 
HETATM   17  C   UNK N   1      28.225  19.683   4.785  0.00  0.00     0.003 A 
HETATM   18  C   UNK N   1      27.786  19.971   6.078  0.00  0.00     0.017 A 
HETATM   19  C   UNK N   1      26.509  20.503   6.266  0.00  0.00     0.088 A 
HETATM   20  N   UNK N   1      25.697  20.720   5.196  0.00  0.00    -0.368 N 
ATOM     21  HN  UNK N   1      24.763  21.099   5.349  1.00  0.00     0.165 HD
ENDBRANCH  14  15
ENDBRANCH  12  14
BRANCH  11  22
HETATM   22  O   UNK N   1      22.513  21.532   2.914  0.00  0.00    -0.348 OA
HETATM   23  H   UNK N   1      21.921  22.240   3.073  0.00  0.00     0.219 HD
ENDBRANCH  11  22
ENDBRANCH   7  11
ENDBRANCH   5   7
BRANCH   4  24
HETATM   24  O   UNK N   1      21.148  18.342   6.870  0.00  0.00    -0.348 OA
HETATM   25  H   UNK N   1      20.853  17.804   7.577  0.00  0.00     0.219 HD
ENDBRANCH   4  24
ENDBRANCH   3   4
BRANCH   3  26
HETATM   26  O   UNK N   1      21.206  16.169   4.263  0.00  0.00    -0.370 OA
BRANCH  26  27
HETATM   27  C   UNK N   1      21.666  16.009   2.943  0.00  0.00     0.207 C 
BRANCH  27  28
HETATM   28  C   UNK N   1      20.819  15.070   2.145  0.00  0.00    -0.035 A 
HETATM   29  C   UNK N   1      19.919  15.548   1.183  0.00  0.00     0.009 A 
HETATM   30  C   UNK N   1      19.144  14.648   0.444  0.00  0.00     0.001 A 
HETATM   31  C   UNK N   1      19.276  13.272   0.654  0.00  0.00     0.000 A 
HETATM   32  C   UNK N   1      20.180  12.794   1.606  0.00  0.00     0.001 A 
HETATM   33  C   UNK N   1      20.950  13.692   2.351  0.00  0.00     0.009 A 
ENDBRANCH  27  28
ENDBRANCH  26  27
ENDBRANCH   3  26
ENDBRANCH   2   3
BRANCH   2  34
HETATM   34  O   UNK N   1      24.261  16.957   6.012  0.00  0.00    -0.390 OA
HETATM   35  H   UNK N   1      25.215  16.987   5.841  0.00  0.00     0.210 HD
ENDBRANCH   2  34
ENDBRANCH   1   2
BRANCH   1  36
HETATM   36  C   UNK N   1      24.635  14.250   6.627  0.00  0.00     0.227 C 
BRANCH  36  37
HETATM   37  C   UNK N   1      25.765  13.615   5.834  0.00  0.00     0.144 C 
HETATM   38  N   UNK N   1      26.679  14.286   5.196  0.00  0.00    -0.360 N 
ATOM     39  HN  UNK N   1      27.387  13.714   4.734  1.00  0.00     0.162 HD
BRANCH  38  40
HETATM   40  C   UNK N   1      26.854  15.725   5.035  0.00  0.00     0.161 C 
BRANCH  40  41
HETATM   41  C   UNK N   1      27.184  16.196   3.591  0.00  0.00     0.008 C 
HETATM   42  C   UNK N   1      28.022  15.160   2.854  0.00  0.00     0.012 C 
HETATM   43  C   UNK N   1      26.029  16.558   2.694  0.00  0.00     0.012 C 
ENDBRANCH  40  41
BRANCH  40  44
HETATM   44  C   UNK N   1      27.665  16.337   6.150  0.00  0.00     0.135 C 
HETATM   45  N   UNK N   1      28.952  16.375   6.030  0.00  0.00    -0.367 N 
ATOM     46  HN  UNK N   1      29.368  16.126   5.133  1.00  0.00     0.161 HD
BRANCH  45  47
HETATM   47  C   UNK N   1      29.827  16.757   7.116  0.00  0.00     0.178 C 
BRANCH  47  48
HETATM   48  C   UNK N   1      31.163  17.125   6.545  0.00  0.00     0.026 A 
HETATM   49  C   UNK N   1      31.338  17.176   5.154  0.00  0.00     0.027 A 
HETATM   50  C   UNK N   1      32.613  17.394   4.633  0.00  0.00     0.003 A 
HETATM   51  C   UNK N   1      33.694  17.562   5.498  0.00  0.00     0.017 A 
HETATM   52  C   UNK N   1      33.479  17.514   6.878  0.00  0.00     0.088 A 
HETATM   53  N   UNK N   1      32.230  17.289   7.370  0.00  0.00    -0.368 N 
ATOM     54  HN  UNK N   1      32.092  17.242   8.379  1.00  0.00     0.165 HD
ENDBRANCH  47  48
ENDBRANCH  45  47
BRANCH  44  55
HETATM   55  O   UNK N   1      27.068  16.738   7.293  0.00  0.00    -0.348 OA
HETATM   56  H   UNK N   1      26.619  17.203   7.972  0.00  0.00     0.219 HD
ENDBRANCH  44  55
ENDBRANCH  40  44
ENDBRANCH  38  40
BRANCH  37  57
HETATM   57  O   UNK N   1      25.804  12.271   5.764  0.00  0.00    -0.348 OA
HETATM   58  H   UNK N   1      26.364  11.652   5.336  0.00  0.00     0.219 HD
ENDBRANCH  37  57
ENDBRANCH  36  37
BRANCH  36  59
HETATM   59  O   UNK N   1      24.120  13.248   7.483  0.00  0.00    -0.370 OA
BRANCH  59  60
HETATM   60  C   UNK N   1      24.591  13.303   8.791  0.00  0.00     0.207 C 
BRANCH  60  61
HETATM   61  C   UNK N   1      23.443  12.983   9.685  0.00  0.00    -0.035 A 
HETATM   62  C   UNK N   1      23.647  12.226  10.841  0.00  0.00     0.009 A 
HETATM   63  C   UNK N   1      22.563  11.892  11.658  0.00  0.00     0.001 A 
HETATM   64  C   UNK N   1      21.271  12.302  11.313  0.00  0.00     0.000 A 
HETATM   65  C   UNK N   1      21.062  13.056  10.155  0.00  0.00     0.001 A 
HETATM   66  C   UNK N   1      22.146  13.400   9.344  0.00  0.00     0.009 A 
ENDBRANCH  60  61
ENDBRANCH  59  60
ENDBRANCH  36  59
ENDBRANCH   1  36
BRANCH   1  67
HETATM   67  O   UNK N   1      22.374  13.864   5.786  0.00  0.00    -0.390 OA
HETATM   68  H   UNK N   1      21.851  13.313   5.182  0.00  0.00     0.210 HD
ENDBRANCH   1  67
TORSDOF 27
ENDMDL
MODEL 4
REMARK VINA RESULT:      -6.9      2.184      6.873
REMARK  27 active torsions:
REMARK  status: ('A' for Active; 'I' for Inactive)
REMARK    1  A    between atoms: C_31  and  C_23 
REMARK    2  A    between atoms: N_47  and  C_23 
REMARK    3  A    between atoms: C_32  and  C_24 
REMARK    4  A    between atoms: N_49  and  C_24 
REMARK    5  A    between atoms: C_29  and  C_25 
REMARK    6  A    between atoms: O_61  and  C_25 
REMARK    7  A    between atoms: C_30  and  C_26 
REMARK    8  A    between atoms: O_62  and  C_26 
REMARK    9  A    between atoms: C_33  and  C_27 
REMARK   10  A    between atoms: C_34  and  C_28 
REMARK   11  A    between atoms: C_39  and  C_33 
REMARK   12  A    between atoms: C_33  and  N_51 
REMARK   13  A    between atoms: C_40  and  C_34 
REMARK   14  A    between atoms: C_34  and  N_53 
REMARK   15  A    between atoms: C_36  and  C_35 
REMARK   16  A    between atoms: C_37  and  C_35 
REMARK   17  A    between atoms: C_35  and  O_55 
REMARK   18  A    between atoms: C_38  and  C_36 
REMARK   19  A    between atoms: C_36  and  O_56 
REMARK   20  A    between atoms: C_41  and  C_37 
REMARK   21  A    between atoms: C_37  and  O_61 
REMARK   22  A    between atoms: C_42  and  C_38 
REMARK   23  A    between atoms: C_38  and  O_62 
REMARK   24  A    between atoms: O_57  and  C_39 
REMARK   25  A    between atoms: O_58  and  C_40 
REMARK   26  A    between atoms: C_41  and  O_59 
REMARK   27  A    between atoms: C_42  and  O_60 
ROOT
HETATM    1  C   UNK N   1      23.704  16.804   5.597  0.00  0.00     0.186 C 
ENDROOT
BRANCH   1   2
HETATM    2  C   UNK N   1      24.049  16.551   4.103  0.00  0.00     0.186 C 
BRANCH   2   3
HETATM    3  C   UNK N   1      24.305  15.113   3.601  0.00  0.00     0.227 C 
BRANCH   3   4
HETATM    4  C   UNK N   1      25.363  14.941   2.510  0.00  0.00     0.144 C 
HETATM    5  N   UNK N   1      26.575  14.553   2.784  0.00  0.00    -0.360 N 
ATOM      6  HN  UNK N   1      27.224  14.435   2.006  1.00  0.00     0.162 HD
BRANCH   5   7
HETATM    7  C   UNK N   1      27.070  14.278   4.130  0.00  0.00     0.161 C 
BRANCH   7   8
HETATM    8  C   UNK N   1      27.775  12.921   4.212  0.00  0.00     0.008 C 
HETATM    9  C   UNK N   1      28.208  12.402   2.849  0.00  0.00     0.012 C 
HETATM   10  C   UNK N   1      26.900  11.889   4.898  0.00  0.00     0.012 C 
ENDBRANCH   7   8
BRANCH   7  11
HETATM   11  C   UNK N   1      27.993  15.364   4.634  0.00  0.00     0.135 C 
HETATM   12  N   UNK N   1      27.655  16.100   5.649  0.00  0.00    -0.367 N 
ATOM     13  HN  UNK N   1      26.772  15.901   6.119  1.00  0.00     0.161 HD
BRANCH  12  14
HETATM   14  C   UNK N   1      28.471  17.194   6.146  0.00  0.00     0.178 C 
BRANCH  14  15
HETATM   15  C   UNK N   1      27.975  18.509   5.625  0.00  0.00     0.026 A 
HETATM   16  C   UNK N   1      27.453  19.466   6.503  0.00  0.00     0.027 A 
HETATM   17  C   UNK N   1      26.883  20.629   5.983  0.00  0.00     0.003 A 
HETATM   18  C   UNK N   1      26.838  20.820   4.602  0.00  0.00     0.017 A 
HETATM   19  C   UNK N   1      27.377  19.848   3.758  0.00  0.00     0.088 A 
HETATM   20  N   UNK N   1      27.925  18.718   4.282  0.00  0.00    -0.368 N 
ATOM     21  HN  UNK N   1      28.305  18.011   3.653  1.00  0.00     0.165 HD
ENDBRANCH  14  15
ENDBRANCH  12  14
BRANCH  11  22
HETATM   22  O   UNK N   1      29.151  15.584   3.979  0.00  0.00    -0.348 OA
HETATM   23  H   UNK N   1      29.552  15.907   3.196  0.00  0.00     0.219 HD
ENDBRANCH  11  22
ENDBRANCH   7  11
ENDBRANCH   5   7
BRANCH   4  24
HETATM   24  O   UNK N   1      25.035  15.184   1.228  0.00  0.00    -0.348 OA
HETATM   25  H   UNK N   1      24.388  15.640   0.727  0.00  0.00     0.219 HD
ENDBRANCH   4  24
ENDBRANCH   3   4
BRANCH   3  26
HETATM   26  O   UNK N   1      23.195  14.245   3.461  0.00  0.00    -0.370 OA
BRANCH  26  27
HETATM   27  C   UNK N   1      23.425  12.991   4.056  0.00  0.00     0.207 C 
BRANCH  27  28
HETATM   28  C   UNK N   1      22.162  12.313   4.484  0.00  0.00    -0.035 A 
HETATM   29  C   UNK N   1      22.181  11.014   5.010  0.00  0.00     0.009 A 
HETATM   30  C   UNK N   1      20.987  10.405   5.411  0.00  0.00     0.001 A 
HETATM   31  C   UNK N   1      19.777  11.097   5.301  0.00  0.00     0.000 A 
HETATM   32  C   UNK N   1      19.758  12.396   4.786  0.00  0.00     0.001 A 
HETATM   33  C   UNK N   1      20.950  13.002   4.378  0.00  0.00     0.009 A 
ENDBRANCH  27  28
ENDBRANCH  26  27
ENDBRANCH   3  26
ENDBRANCH   2   3
BRANCH   2  34
HETATM   34  O   UNK N   1      25.201  17.299   3.811  0.00  0.00    -0.390 OA
HETATM   35  H   UNK N   1      25.619  17.982   3.265  0.00  0.00     0.210 HD
ENDBRANCH   2  34
ENDBRANCH   1   2
BRANCH   1  36
HETATM   36  C   UNK N   1      22.165  16.682   5.871  0.00  0.00     0.227 C 
BRANCH  36  37
HETATM   37  C   UNK N   1      21.485  18.041   5.921  0.00  0.00     0.144 C 
HETATM   38  N   UNK N   1      21.186  18.749   4.872  0.00  0.00    -0.360 N 
ATOM     39  HN  UNK N   1      20.705  19.627   5.070  1.00  0.00     0.162 HD
BRANCH  38  40
HETATM   40  C   UNK N   1      21.429  18.490   3.457  0.00  0.00     0.161 C 
BRANCH  40  41
HETATM   41  C   UNK N   1      21.876  19.723   2.623  0.00  0.00     0.008 C 
HETATM   42  C   UNK N   1      20.827  20.826   2.670  0.00  0.00     0.012 C 
HETATM   43  C   UNK N   1      23.202  20.350   2.962  0.00  0.00     0.012 C 
ENDBRANCH  40  41
BRANCH  40  44
HETATM   44  C   UNK N   1      20.374  17.602   2.843  0.00  0.00     0.135 C 
HETATM   45  N   UNK N   1      20.743  16.700   1.993  0.00  0.00    -0.367 N 
ATOM     46  HN  UNK N   1      21.738  16.519   1.871  1.00  0.00     0.161 HD
BRANCH  45  47
HETATM   47  C   UNK N   1      19.800  15.936   1.206  0.00  0.00     0.178 C 
BRANCH  47  48
HETATM   48  C   UNK N   1      20.395  14.590   0.925  0.00  0.00     0.026 A 
HETATM   49  C   UNK N   1      19.583  13.447   0.950  0.00  0.00     0.027 A 
HETATM   50  C   UNK N   1      20.168  12.189   0.814  0.00  0.00     0.003 A 
HETATM   51  C   UNK N   1      21.549  12.083   0.651  0.00  0.00     0.017 A 
HETATM   52  C   UNK N   1      22.325  13.245   0.621  0.00  0.00     0.088 A 
HETATM   53  N   UNK N   1      21.739  14.464   0.767  0.00  0.00    -0.368 N 
ATOM     54  HN  UNK N   1      22.321  15.302   0.758  1.00  0.00     0.165 HD
ENDBRANCH  47  48
ENDBRANCH  45  47
BRANCH  44  55
HETATM   55  O   UNK N   1      19.065  17.816   3.095  0.00  0.00    -0.348 OA
HETATM   56  H   UNK N   1      18.193  18.155   3.162  0.00  0.00     0.219 HD
ENDBRANCH  44  55
ENDBRANCH  40  44
ENDBRANCH  38  40
BRANCH  37  57
HETATM   57  O   UNK N   1      21.199  18.555   7.132  0.00  0.00    -0.348 OA
HETATM   58  H   UNK N   1      21.470  19.321   7.600  0.00  0.00     0.219 HD
ENDBRANCH  37  57
ENDBRANCH  36  37
BRANCH  36  59
HETATM   59  O   UNK N   1      22.001  16.093   7.147  0.00  0.00    -0.370 OA
BRANCH  59  60
HETATM   60  C   UNK N   1      20.928  15.213   7.246  0.00  0.00     0.207 C 
BRANCH  60  61
HETATM   61  C   UNK N   1      21.301  14.178   8.251  0.00  0.00    -0.035 A 
HETATM   62  C   UNK N   1      22.324  13.270   7.973  0.00  0.00     0.009 A 
HETATM   63  C   UNK N   1      22.647  12.274   8.901  0.00  0.00     0.001 A 
HETATM   64  C   UNK N   1      21.936  12.176  10.101  0.00  0.00     0.000 A 
HETATM   65  C   UNK N   1      20.908  13.080  10.381  0.00  0.00     0.001 A 
HETATM   66  C   UNK N   1      20.593  14.083   9.461  0.00  0.00     0.009 A 
ENDBRANCH  60  61
ENDBRANCH  59  60
ENDBRANCH  36  59
ENDBRANCH   1  36
BRANCH   1  67
HETATM   67  O   UNK N   1      24.429  15.979   6.461  0.00  0.00    -0.390 OA
HETATM   68  H   UNK N   1      25.235  15.439   6.426  0.00  0.00     0.210 HD
ENDBRANCH   1  67
TORSDOF 27
ENDMDL
MODEL 5
REMARK VINA RESULT:      -6.8      7.667     13.197
REMARK  27 active torsions:
REMARK  status: ('A' for Active; 'I' for Inactive)
REMARK    1  A    between atoms: C_31  and  C_23 
REMARK    2  A    between atoms: N_47  and  C_23 
REMARK    3  A    between atoms: C_32  and  C_24 
REMARK    4  A    between atoms: N_49  and  C_24 
REMARK    5  A    between atoms: C_29  and  C_25 
REMARK    6  A    between atoms: O_61  and  C_25 
REMARK    7  A    between atoms: C_30  and  C_26 
REMARK    8  A    between atoms: O_62  and  C_26 
REMARK    9  A    between atoms: C_33  and  C_27 
REMARK   10  A    between atoms: C_34  and  C_28 
REMARK   11  A    between atoms: C_39  and  C_33 
REMARK   12  A    between atoms: C_33  and  N_51 
REMARK   13  A    between atoms: C_40  and  C_34 
REMARK   14  A    between atoms: C_34  and  N_53 
REMARK   15  A    between atoms: C_36  and  C_35 
REMARK   16  A    between atoms: C_37  and  C_35 
REMARK   17  A    between atoms: C_35  and  O_55 
REMARK   18  A    between atoms: C_38  and  C_36 
REMARK   19  A    between atoms: C_36  and  O_56 
REMARK   20  A    between atoms: C_41  and  C_37 
REMARK   21  A    between atoms: C_37  and  O_61 
REMARK   22  A    between atoms: C_42  and  C_38 
REMARK   23  A    between atoms: C_38  and  O_62 
REMARK   24  A    between atoms: O_57  and  C_39 
REMARK   25  A    between atoms: O_58  and  C_40 
REMARK   26  A    between atoms: C_41  and  O_59 
REMARK   27  A    between atoms: C_42  and  O_60 
ROOT
HETATM    1  C   UNK N   1      34.797  16.191  10.044  0.00  0.00     0.186 C 
ENDROOT
BRANCH   1   2
HETATM    2  C   UNK N   1      35.914  15.212  10.502  0.00  0.00     0.186 C 
BRANCH   2   3
HETATM    3  C   UNK N   1      35.552  13.952  11.319  0.00  0.00     0.227 C 
BRANCH   3   4
HETATM    4  C   UNK N   1      35.067  12.735  10.531  0.00  0.00     0.144 C 
HETATM    5  N   UNK N   1      35.773  11.643  10.450  0.00  0.00    -0.360 N 
ATOM      6  HN  UNK N   1      35.379  10.860   9.929  1.00  0.00     0.162 HD
BRANCH   5   7
HETATM    7  C   UNK N   1      37.090  11.465  11.053  0.00  0.00     0.161 C 
BRANCH   7   8
HETATM    8  C   UNK N   1      37.198  10.135  11.805  0.00  0.00     0.008 C 
HETATM    9  C   UNK N   1      35.863   9.416  11.917  0.00  0.00     0.012 C 
HETATM   10  C   UNK N   1      37.791  10.334  13.188  0.00  0.00     0.012 C 
ENDBRANCH   7   8
BRANCH   7  11
HETATM   11  C   UNK N   1      38.203  11.567  10.036  0.00  0.00     0.135 C 
HETATM   12  N   UNK N   1      38.437  12.688   9.423  0.00  0.00    -0.367 N 
ATOM     13  HN  UNK N   1      37.878  13.504   9.673  1.00  0.00     0.161 HD
BRANCH  12  14
HETATM   14  C   UNK N   1      39.454  12.837   8.396  0.00  0.00     0.178 C 
BRANCH  14  15
HETATM   15  C   UNK N   1      38.828  13.055   7.053  0.00  0.00     0.026 A 
HETATM   16  C   UNK N   1      38.108  12.027   6.433  0.00  0.00     0.027 A 
HETATM   17  C   UNK N   1      37.642  12.210   5.129  0.00  0.00     0.003 A 
HETATM   18  C   UNK N   1      37.904  13.408   4.463  0.00  0.00     0.017 A 
HETATM   19  C   UNK N   1      38.618  14.414   5.117  0.00  0.00     0.088 A 
HETATM   20  N   UNK N   1      39.068  14.216   6.385  0.00  0.00    -0.368 N 
ATOM     21  HN  UNK N   1      39.597  14.956   6.847  1.00  0.00     0.165 HD
ENDBRANCH  14  15
ENDBRANCH  12  14
BRANCH  11  22
HETATM   22  O   UNK N   1      38.917  10.461   9.744  0.00  0.00    -0.348 OA
HETATM   23  H   UNK N   1      39.648   9.924   9.977  0.00  0.00     0.219 HD
ENDBRANCH  11  22
ENDBRANCH   7  11
ENDBRANCH   5   7
BRANCH   4  24
HETATM   24  O   UNK N   1      33.874  12.781   9.912  0.00  0.00    -0.348 OA
HETATM   25  H   UNK N   1      33.501  12.655   9.062  0.00  0.00     0.219 HD
ENDBRANCH   4  24
ENDBRANCH   3   4
BRANCH   3  26
HETATM   26  O   UNK N   1      34.895  14.126  12.562  0.00  0.00    -0.370 OA
BRANCH  26  27
HETATM   27  C   UNK N   1      35.754  13.894  13.652  0.00  0.00     0.207 C 
BRANCH  27  28
HETATM   28  C   UNK N   1      35.357  12.697  14.457  0.00  0.00    -0.035 A 
HETATM   29  C   UNK N   1      36.010  12.384  15.656  0.00  0.00     0.009 A 
HETATM   30  C   UNK N   1      35.614  11.263  16.395  0.00  0.00     0.001 A 
HETATM   31  C   UNK N   1      34.560  10.464  15.944  0.00  0.00     0.000 A 
HETATM   32  C   UNK N   1      33.902  10.782  14.752  0.00  0.00     0.001 A 
HETATM   33  C   UNK N   1      34.301  11.896  14.010  0.00  0.00     0.009 A 
ENDBRANCH  27  28
ENDBRANCH  26  27
ENDBRANCH   3  26
ENDBRANCH   2   3
BRANCH   2  34
HETATM   34  O   UNK N   1      36.824  15.954  11.274  0.00  0.00    -0.390 OA
HETATM   35  H   UNK N   1      36.970  16.692  11.885  0.00  0.00     0.210 HD
ENDBRANCH   2  34
ENDBRANCH   1   2
BRANCH   1  36
HETATM   36  C   UNK N   1      34.967  16.611   8.544  0.00  0.00     0.227 C 
BRANCH  36  37
HETATM   37  C   UNK N   1      34.235  17.904   8.227  0.00  0.00     0.144 C 
HETATM   38  N   UNK N   1      32.985  17.971   7.874  0.00  0.00    -0.360 N 
ATOM     39  HN  UNK N   1      32.631  18.916   7.723  1.00  0.00     0.162 HD
BRANCH  38  40
HETATM   40  C   UNK N   1      32.007  16.910   7.658  0.00  0.00     0.161 C 
BRANCH  40  41
HETATM   41  C   UNK N   1      31.917  16.375   6.202  0.00  0.00     0.008 C 
HETATM   42  C   UNK N   1      30.905  15.243   6.094  0.00  0.00     0.012 C 
HETATM   43  C   UNK N   1      31.599  17.366   5.113  0.00  0.00     0.012 C 
ENDBRANCH  40  41
BRANCH  40  44
HETATM   44  C   UNK N   1      30.700  17.177   8.363  0.00  0.00     0.135 C 
HETATM   45  N   UNK N   1      29.804  17.888   7.759  0.00  0.00    -0.367 N 
ATOM     46  HN  UNK N   1      29.947  18.123   6.778  1.00  0.00     0.161 HD
BRANCH  45  47
HETATM   47  C   UNK N   1      28.608  18.364   8.419  0.00  0.00     0.178 C 
BRANCH  47  48
HETATM   48  C   UNK N   1      27.865  19.254   7.471  0.00  0.00     0.026 A 
HETATM   49  C   UNK N   1      28.171  19.231   6.103  0.00  0.00     0.027 A 
HETATM   50  C   UNK N   1      27.565  20.153   5.250  0.00  0.00     0.003 A 
HETATM   51  C   UNK N   1      26.661  21.081   5.766  0.00  0.00     0.017 A 
HETATM   52  C   UNK N   1      26.372  21.067   7.133  0.00  0.00     0.088 A 
HETATM   53  N   UNK N   1      26.982  20.169   7.953  0.00  0.00    -0.368 N 
ATOM     54  HN  UNK N   1      26.772  20.182   8.951  1.00  0.00     0.165 HD
ENDBRANCH  47  48
ENDBRANCH  45  47
BRANCH  44  55
HETATM   55  O   UNK N   1      30.513  16.773   9.638  0.00  0.00    -0.348 OA
HETATM   56  H   UNK N   1      30.454  16.298  10.444  0.00  0.00     0.219 HD
ENDBRANCH  44  55
ENDBRANCH  40  44
ENDBRANCH  38  40
BRANCH  37  57
HETATM   57  O   UNK N   1      34.935  19.053   8.289  0.00  0.00    -0.348 OA
HETATM   58  H   UNK N   1      35.247  19.595   8.987  0.00  0.00     0.219 HD
ENDBRANCH  37  57
ENDBRANCH  36  37
BRANCH  36  59
HETATM   59  O   UNK N   1      34.380  15.601   7.746  0.00  0.00    -0.370 OA
BRANCH  59  60
HETATM   60  C   UNK N   1      35.288  14.725   7.157  0.00  0.00     0.207 C 
BRANCH  60  61
HETATM   61  C   UNK N   1      34.648  14.197   5.919  0.00  0.00    -0.035 A 
HETATM   62  C   UNK N   1      34.671  14.950   4.745  0.00  0.00     0.009 A 
HETATM   63  C   UNK N   1      34.036  14.471   3.594  0.00  0.00     0.001 A 
HETATM   64  C   UNK N   1      33.365  13.244   3.622  0.00  0.00     0.000 A 
HETATM   65  C   UNK N   1      33.337  12.489   4.798  0.00  0.00     0.001 A 
HETATM   66  C   UNK N   1      33.980  12.961   5.943  0.00  0.00     0.009 A 
ENDBRANCH  60  61
ENDBRANCH  59  60
ENDBRANCH  36  59
ENDBRANCH   1  36
BRANCH   1  67
HETATM   67  O   UNK N   1      33.515  15.686  10.277  0.00  0.00    -0.390 OA
HETATM   68  H   UNK N   1      32.656  16.024  10.577  0.00  0.00     0.210 HD
ENDBRANCH   1  67
TORSDOF 27
ENDMDL
MODEL 6
REMARK VINA RESULT:      -6.7      1.995      8.293
REMARK  27 active torsions:
REMARK  status: ('A' for Active; 'I' for Inactive)
REMARK    1  A    between atoms: C_31  and  C_23 
REMARK    2  A    between atoms: N_47  and  C_23 
REMARK    3  A    between atoms: C_32  and  C_24 
REMARK    4  A    between atoms: N_49  and  C_24 
REMARK    5  A    between atoms: C_29  and  C_25 
REMARK    6  A    between atoms: O_61  and  C_25 
REMARK    7  A    between atoms: C_30  and  C_26 
REMARK    8  A    between atoms: O_62  and  C_26 
REMARK    9  A    between atoms: C_33  and  C_27 
REMARK   10  A    between atoms: C_34  and  C_28 
REMARK   11  A    between atoms: C_39  and  C_33 
REMARK   12  A    between atoms: C_33  and  N_51 
REMARK   13  A    between atoms: C_40  and  C_34 
REMARK   14  A    between atoms: C_34  and  N_53 
REMARK   15  A    between atoms: C_36  and  C_35 
REMARK   16  A    between atoms: C_37  and  C_35 
REMARK   17  A    between atoms: C_35  and  O_55 
REMARK   18  A    between atoms: C_38  and  C_36 
REMARK   19  A    between atoms: C_36  and  O_56 
REMARK   20  A    between atoms: C_41  and  C_37 
REMARK   21  A    between atoms: C_37  and  O_61 
REMARK   22  A    between atoms: C_42  and  C_38 
REMARK   23  A    between atoms: C_38  and  O_62 
REMARK   24  A    between atoms: O_57  and  C_39 
REMARK   25  A    between atoms: O_58  and  C_40 
REMARK   26  A    between atoms: C_41  and  O_59 
REMARK   27  A    between atoms: C_42  and  O_60 
ROOT
HETATM    1  C   UNK N   1      25.422  15.219   5.935  0.00  0.00     0.186 C 
ENDROOT
BRANCH   1   2
HETATM    2  C   UNK N   1      25.972  13.766   5.980  0.00  0.00     0.186 C 
BRANCH   2   3
HETATM    3  C   UNK N   1      25.610  12.767   4.859  0.00  0.00     0.227 C 
BRANCH   3   4
HETATM    4  C   UNK N   1      25.158  11.374   5.297  0.00  0.00     0.144 C 
HETATM    5  N   UNK N   1      23.900  11.039   5.332  0.00  0.00    -0.360 N 
ATOM      6  HN  UNK N   1      23.670  10.084   5.609  1.00  0.00     0.162 HD
BRANCH   5   7
HETATM    7  C   UNK N   1      22.798  11.936   5.002  0.00  0.00     0.161 C 
BRANCH   7   8
HETATM    8  C   UNK N   1      21.794  11.281   4.048  0.00  0.00     0.008 C 
HETATM    9  C   UNK N   1      22.299   9.962   3.483  0.00  0.00     0.012 C 
HETATM   10  C   UNK N   1      21.425  12.217   2.913  0.00  0.00     0.012 C 
ENDBRANCH   7   8
BRANCH   7  11
HETATM   11  C   UNK N   1      22.079  12.436   6.234  0.00  0.00     0.135 C 
HETATM   12  N   UNK N   1      22.603  13.367   6.972  0.00  0.00    -0.367 N 
ATOM     13  HN  UNK N   1      23.489  13.778   6.678  1.00  0.00     0.161 HD
BRANCH  12  14
HETATM   14  C   UNK N   1      21.990  13.851   8.197  0.00  0.00     0.178 C 
BRANCH  14  15
HETATM   15  C   UNK N   1      22.499  13.093   9.385  0.00  0.00     0.026 A 
HETATM   16  C   UNK N   1      21.622  12.706  10.406  0.00  0.00     0.027 A 
HETATM   17  C   UNK N   1      22.138  12.112  11.559  0.00  0.00     0.003 A 
HETATM   18  C   UNK N   1      23.515  11.917  11.680  0.00  0.00     0.017 A 
HETATM   19  C   UNK N   1      24.356  12.308  10.638  0.00  0.00     0.088 A 
HETATM   20  N   UNK N   1      23.837  12.889   9.523  0.00  0.00    -0.368 N 
ATOM     21  HN  UNK N   1      24.465  13.179   8.773  1.00  0.00     0.165 HD
ENDBRANCH  14  15
ENDBRANCH  12  14
BRANCH  11  22
HETATM   22  O   UNK N   1      20.907  11.863   6.577  0.00  0.00    -0.348 OA
HETATM   23  H   UNK N   1      20.475  11.074   6.837  0.00  0.00     0.219 HD
ENDBRANCH  11  22
ENDBRANCH   7  11
ENDBRANCH   5   7
BRANCH   4  24
HETATM   24  O   UNK N   1      26.082  10.459   5.645  0.00  0.00    -0.348 OA
HETATM   25  H   UNK N   1      26.867  10.071   5.315  0.00  0.00     0.219 HD
ENDBRANCH   4  24
ENDBRANCH   3   4
BRANCH   3  26
HETATM   26  O   UNK N   1      26.398  12.768   3.682  0.00  0.00    -0.370 OA
BRANCH  26  27
HETATM   27  C   UNK N   1      25.990  11.776   2.771  0.00  0.00     0.207 C 
BRANCH  27  28
HETATM   28  C   UNK N   1      25.037  12.293   1.741  0.00  0.00    -0.035 A 
HETATM   29  C   UNK N   1      24.696  13.651   1.688  0.00  0.00     0.009 A 
HETATM   30  C   UNK N   1      23.809  14.111   0.709  0.00  0.00     0.001 A 
HETATM   31  C   UNK N   1      23.272  13.219  -0.225  0.00  0.00     0.000 A 
HETATM   32  C   UNK N   1      23.619  11.866  -0.178  0.00  0.00     0.001 A 
HETATM   33  C   UNK N   1      24.500  11.404   0.804  0.00  0.00     0.009 A 
ENDBRANCH  27  28
ENDBRANCH  26  27
ENDBRANCH   3  26
ENDBRANCH   2   3
BRANCH   2  34
HETATM   34  O   UNK N   1      25.542  13.199   7.191  0.00  0.00    -0.390 OA
HETATM   35  H   UNK N   1      25.325  12.395   7.689  0.00  0.00     0.210 HD
ENDBRANCH   2  34
ENDBRANCH   1   2
BRANCH   1  36
HETATM   36  C   UNK N   1      26.549  16.261   5.618  0.00  0.00     0.227 C 
BRANCH  36  37
HETATM   37  C   UNK N   1      26.666  16.539   4.128  0.00  0.00     0.144 C 
HETATM   38  N   UNK N   1      26.334  17.664   3.565  0.00  0.00    -0.360 N 
ATOM     39  HN  UNK N   1      26.499  17.705   2.558  1.00  0.00     0.162 HD
BRANCH  38  40
HETATM   40  C   UNK N   1      25.762  18.876   4.140  0.00  0.00     0.161 C 
BRANCH  40  41
HETATM   41  C   UNK N   1      26.643  19.585   5.207  0.00  0.00     0.008 C 
HETATM   42  C   UNK N   1      28.040  19.862   4.669  0.00  0.00     0.012 C 
HETATM   43  C   UNK N   1      26.126  20.871   5.795  0.00  0.00     0.012 C 
ENDBRANCH  40  41
BRANCH  40  44
HETATM   44  C   UNK N   1      24.296  18.726   4.463  0.00  0.00     0.135 C 
HETATM   45  N   UNK N   1      23.427  19.055   3.563  0.00  0.00    -0.367 N 
ATOM     46  HN  UNK N   1      23.754  19.266   2.621  1.00  0.00     0.161 HD
BRANCH  45  47
HETATM   47  C   UNK N   1      22.010  19.134   3.838  0.00  0.00     0.178 C 
BRANCH  47  48
HETATM   48  C   UNK N   1      21.310  18.076   3.041  0.00  0.00     0.026 A 
HETATM   49  C   UNK N   1      21.531  16.721   3.332  0.00  0.00     0.027 A 
HETATM   50  C   UNK N   1      20.976  15.745   2.505  0.00  0.00     0.003 A 
HETATM   51  C   UNK N   1      20.209  16.126   1.405  0.00  0.00     0.017 A 
HETATM   52  C   UNK N   1      20.002  17.485   1.153  0.00  0.00     0.088 A 
HETATM   53  N   UNK N   1      20.561  18.425   1.963  0.00  0.00    -0.368 N 
ATOM     54  HN  UNK N   1      20.413  19.413   1.757  1.00  0.00     0.165 HD
ENDBRANCH  47  48
ENDBRANCH  45  47
BRANCH  44  55
HETATM   55  O   UNK N   1      23.900  18.358   5.700  0.00  0.00    -0.348 OA
HETATM   56  H   UNK N   1      23.522  17.939   6.449  0.00  0.00     0.219 HD
ENDBRANCH  44  55
ENDBRANCH  40  44
ENDBRANCH  38  40
BRANCH  37  57
HETATM   57  O   UNK N   1      27.117  15.547   3.338  0.00  0.00    -0.348 OA
HETATM   58  H   UNK N   1      27.896  15.025   3.319  0.00  0.00     0.219 HD
ENDBRANCH  37  57
ENDBRANCH  36  37
BRANCH  36  59
HETATM   59  O   UNK N   1      27.781  15.701   6.029  0.00  0.00    -0.370 OA
BRANCH  59  60
HETATM   60  C   UNK N   1      28.888  16.519   5.823  0.00  0.00     0.207 C 
BRANCH  60  61
HETATM   61  C   UNK N   1      29.179  17.199   7.116  0.00  0.00    -0.035 A 
HETATM   62  C   UNK N   1      30.499  17.360   7.539  0.00  0.00     0.009 A 
HETATM   63  C   UNK N   1      30.770  17.963   8.773  0.00  0.00     0.001 A 
HETATM   64  C   UNK N   1      29.719  18.390   9.590  0.00  0.00     0.000 A 
HETATM   65  C   UNK N   1      28.396  18.226   9.172  0.00  0.00     0.001 A 
HETATM   66  C   UNK N   1      28.125  17.636   7.936  0.00  0.00     0.009 A 
ENDBRANCH  60  61
ENDBRANCH  59  60
ENDBRANCH  36  59
ENDBRANCH   1  36
BRANCH   1  67
HETATM   67  O   UNK N   1      24.352  15.359   5.047  0.00  0.00    -0.390 OA
HETATM   68  H   UNK N   1      23.646  14.800   4.684  0.00  0.00     0.210 HD
ENDBRANCH   1  67
TORSDOF 27
ENDMDL
MODEL 7
REMARK VINA RESULT:      -6.7      8.034     13.526
REMARK  27 active torsions:
REMARK  status: ('A' for Active; 'I' for Inactive)
REMARK    1  A    between atoms: C_31  and  C_23 
REMARK    2  A    between atoms: N_47  and  C_23 
REMARK    3  A    between atoms: C_32  and  C_24 
REMARK    4  A    between atoms: N_49  and  C_24 
REMARK    5  A    between atoms: C_29  and  C_25 
REMARK    6  A    between atoms: O_61  and  C_25 
REMARK    7  A    between atoms: C_30  and  C_26 
REMARK    8  A    between atoms: O_62  and  C_26 
REMARK    9  A    between atoms: C_33  and  C_27 
REMARK   10  A    between atoms: C_34  and  C_28 
REMARK   11  A    between atoms: C_39  and  C_33 
REMARK   12  A    between atoms: C_33  and  N_51 
REMARK   13  A    between atoms: C_40  and  C_34 
REMARK   14  A    between atoms: C_34  and  N_53 
REMARK   15  A    between atoms: C_36  and  C_35 
REMARK   16  A    between atoms: C_37  and  C_35 
REMARK   17  A    between atoms: C_35  and  O_55 
REMARK   18  A    between atoms: C_38  and  C_36 
REMARK   19  A    between atoms: C_36  and  O_56 
REMARK   20  A    between atoms: C_41  and  C_37 
REMARK   21  A    between atoms: C_37  and  O_61 
REMARK   22  A    between atoms: C_42  and  C_38 
REMARK   23  A    between atoms: C_38  and  O_62 
REMARK   24  A    between atoms: O_57  and  C_39 
REMARK   25  A    between atoms: O_58  and  C_40 
REMARK   26  A    between atoms: C_41  and  O_59 
REMARK   27  A    between atoms: C_42  and  O_60 
ROOT
HETATM    1  C   UNK N   1      35.042  16.476   9.942  0.00  0.00     0.186 C 
ENDROOT
BRANCH   1   2
HETATM    2  C   UNK N   1      36.048  15.299  10.080  0.00  0.00     0.186 C 
BRANCH   2   3
HETATM    3  C   UNK N   1      35.694  14.077  10.957  0.00  0.00     0.227 C 
BRANCH   3   4
HETATM    4  C   UNK N   1      35.401  12.766  10.227  0.00  0.00     0.144 C 
HETATM    5  N   UNK N   1      36.174  11.725  10.349  0.00  0.00    -0.360 N 
ATOM      6  HN  UNK N   1      35.906  10.873   9.855  1.00  0.00     0.162 HD
BRANCH   5   7
HETATM    7  C   UNK N   1      37.397  11.693  11.145  0.00  0.00     0.161 C 
BRANCH   7   8
HETATM    8  C   UNK N   1      37.672  10.298  11.713  0.00  0.00     0.008 C 
HETATM    9  C   UNK N   1      36.600   9.289  11.333  0.00  0.00     0.012 C 
HETATM   10  C   UNK N   1      37.823  10.341  13.223  0.00  0.00     0.012 C 
ENDBRANCH   7   8
BRANCH   7  11
HETATM   11  C   UNK N   1      38.600  12.171  10.364  0.00  0.00     0.135 C 
HETATM   12  N   UNK N   1      39.163  11.403   9.482  0.00  0.00    -0.367 N 
ATOM     13  HN  UNK N   1      38.751  10.487   9.302  1.00  0.00     0.161 HD
BRANCH  12  14
HETATM   14  C   UNK N   1      40.353  11.781   8.740  0.00  0.00     0.178 C 
BRANCH  14  15
HETATM   15  C   UNK N   1      39.988  12.443   7.446  0.00  0.00     0.026 A 
HETATM   16  C   UNK N   1      39.914  11.695   6.265  0.00  0.00     0.027 A 
HETATM   17  C   UNK N   1      39.697  12.353   5.053  0.00  0.00     0.003 A 
HETATM   18  C   UNK N   1      39.560  13.742   5.035  0.00  0.00     0.017 A 
HETATM   19  C   UNK N   1      39.630  14.453   6.234  0.00  0.00     0.088 A 
HETATM   20  N   UNK N   1      39.848  13.795   7.405  0.00  0.00    -0.368 N 
ATOM     21  HN  UNK N   1      39.907  14.329   8.272  1.00  0.00     0.165 HD
ENDBRANCH  14  15
ENDBRANCH  12  14
BRANCH  11  22
HETATM   22  O   UNK N   1      39.104  13.392  10.636  0.00  0.00    -0.348 OA
HETATM   23  H   UNK N   1      38.911  14.294  10.800  0.00  0.00     0.219 HD
ENDBRANCH  11  22
ENDBRANCH   7  11
ENDBRANCH   5   7
BRANCH   4  24
HETATM   24  O   UNK N   1      34.310  12.674   9.446  0.00  0.00    -0.348 OA
HETATM   25  H   UNK N   1      34.017  12.236   8.672  0.00  0.00     0.219 HD
ENDBRANCH   4  24
ENDBRANCH   3   4
BRANCH   3  26
HETATM   26  O   UNK N   1      34.886  14.287  12.101  0.00  0.00    -0.370 OA
BRANCH  26  27
HETATM   27  C   UNK N   1      35.604  14.102  13.297  0.00  0.00     0.207 C 
BRANCH  27  28
HETATM   28  C   UNK N   1      35.150  12.902  14.065  0.00  0.00    -0.035 A 
HETATM   29  C   UNK N   1      34.445  11.866  13.438  0.00  0.00     0.009 A 
HETATM   30  C   UNK N   1      34.038  10.750  14.177  0.00  0.00     0.001 A 
HETATM   31  C   UNK N   1      34.347  10.661  15.538  0.00  0.00     0.000 A 
HETATM   32  C   UNK N   1      35.058  11.689  16.162  0.00  0.00     0.001 A 
HETATM   33  C   UNK N   1      35.458  12.808  15.426  0.00  0.00     0.009 A 
ENDBRANCH  27  28
ENDBRANCH  26  27
ENDBRANCH   3  26
ENDBRANCH   2   3
BRANCH   2  34
HETATM   34  O   UNK N   1      37.244  15.834  10.585  0.00  0.00    -0.390 OA
HETATM   35  H   UNK N   1      37.799  16.617  10.721  0.00  0.00     0.210 HD
ENDBRANCH   2  34
ENDBRANCH   1   2
BRANCH   1  36
HETATM   36  C   UNK N   1      33.976  16.206   8.825  0.00  0.00     0.227 C 
BRANCH  36  37
HETATM   37  C   UNK N   1      32.641  15.766   9.404  0.00  0.00     0.144 C 
HETATM   38  N   UNK N   1      31.485  16.182   8.978  0.00  0.00    -0.360 N 
ATOM     39  HN  UNK N   1      30.680  15.772   9.451  1.00  0.00     0.162 HD
BRANCH  38  40
HETATM   40  C   UNK N   1      31.155  17.144   7.931  0.00  0.00     0.161 C 
BRANCH  40  41
HETATM   41  C   UNK N   1      30.156  18.261   8.346  0.00  0.00     0.008 C 
HETATM   42  C   UNK N   1      28.749  17.948   7.856  0.00  0.00     0.012 C 
HETATM   43  C   UNK N   1      30.056  18.597   9.811  0.00  0.00     0.012 C 
ENDBRANCH  40  41
BRANCH  40  44
HETATM   44  C   UNK N   1      30.917  16.485   6.595  0.00  0.00     0.135 C 
HETATM   45  N   UNK N   1      30.912  17.222   5.533  0.00  0.00    -0.367 N 
ATOM     46  HN  UNK N   1      31.207  18.194   5.611  1.00  0.00     0.161 HD
BRANCH  45  47
HETATM   47  C   UNK N   1      30.502  16.724   4.238  0.00  0.00     0.178 C 
BRANCH  47  48
HETATM   48  C   UNK N   1      31.598  15.861   3.692  0.00  0.00     0.026 A 
HETATM   49  C   UNK N   1      32.834  16.431   3.353  0.00  0.00     0.027 A 
HETATM   50  C   UNK N   1      33.801  15.644   2.729  0.00  0.00     0.003 A 
HETATM   51  C   UNK N   1      33.530  14.305   2.453  0.00  0.00     0.017 A 
HETATM   52  C   UNK N   1      32.291  13.769   2.814  0.00  0.00     0.088 A 
HETATM   53  N   UNK N   1      31.353  14.554   3.412  0.00  0.00    -0.368 N 
ATOM     54  HN  UNK N   1      30.448  14.152   3.655  1.00  0.00     0.165 HD
ENDBRANCH  47  48
ENDBRANCH  45  47
BRANCH  44  55
HETATM   55  O   UNK N   1      30.613  15.171   6.523  0.00  0.00    -0.348 OA
HETATM   56  H   UNK N   1      30.591  14.236   6.584  0.00  0.00     0.219 HD
ENDBRANCH  44  55
ENDBRANCH  40  44
ENDBRANCH  38  40
BRANCH  37  57
HETATM   57  O   UNK N   1      32.660  14.911  10.444  0.00  0.00    -0.348 OA
HETATM   58  H   UNK N   1      33.028  14.061  10.589  0.00  0.00     0.219 HD
ENDBRANCH  37  57
ENDBRANCH  36  37
BRANCH  36  59
HETATM   59  O   UNK N   1      34.449  15.138   8.028  0.00  0.00    -0.370 OA
BRANCH  59  60
HETATM   60  C   UNK N   1      34.439  15.387   6.658  0.00  0.00     0.207 C 
BRANCH  60  61
HETATM   61  C   UNK N   1      34.630  14.078   5.972  0.00  0.00    -0.035 A 
HETATM   62  C   UNK N   1      33.653  13.086   6.075  0.00  0.00     0.009 A 
HETATM   63  C   UNK N   1      33.852  11.844   5.464  0.00  0.00     0.001 A 
HETATM   64  C   UNK N   1      35.034  11.587   4.762  0.00  0.00     0.000 A 
HETATM   65  C   UNK N   1      36.015  12.577   4.661  0.00  0.00     0.001 A 
HETATM   66  C   UNK N   1      35.813  13.821   5.261  0.00  0.00     0.009 A 
ENDBRANCH  60  61
ENDBRANCH  59  60
ENDBRANCH  36  59
ENDBRANCH   1  36
BRANCH   1  67
HETATM   67  O   UNK N   1      34.422  16.795  11.153  0.00  0.00    -0.390 OA
HETATM   68  H   UNK N   1      33.604  17.226  11.446  0.00  0.00     0.210 HD
ENDBRANCH   1  67
TORSDOF 27
ENDMDL
MODEL 8
REMARK VINA RESULT:      -6.7      7.928     12.886
REMARK  27 active torsions:
REMARK  status: ('A' for Active; 'I' for Inactive)
REMARK    1  A    between atoms: C_31  and  C_23 
REMARK    2  A    between atoms: N_47  and  C_23 
REMARK    3  A    between atoms: C_32  and  C_24 
REMARK    4  A    between atoms: N_49  and  C_24 
REMARK    5  A    between atoms: C_29  and  C_25 
REMARK    6  A    between atoms: O_61  and  C_25 
REMARK    7  A    between atoms: C_30  and  C_26 
REMARK    8  A    between atoms: O_62  and  C_26 
REMARK    9  A    between atoms: C_33  and  C_27 
REMARK   10  A    between atoms: C_34  and  C_28 
REMARK   11  A    between atoms: C_39  and  C_33 
REMARK   12  A    between atoms: C_33  and  N_51 
REMARK   13  A    between atoms: C_40  and  C_34 
REMARK   14  A    between atoms: C_34  and  N_53 
REMARK   15  A    between atoms: C_36  and  C_35 
REMARK   16  A    between atoms: C_37  and  C_35 
REMARK   17  A    between atoms: C_35  and  O_55 
REMARK   18  A    between atoms: C_38  and  C_36 
REMARK   19  A    between atoms: C_36  and  O_56 
REMARK   20  A    between atoms: C_41  and  C_37 
REMARK   21  A    between atoms: C_37  and  O_61 
REMARK   22  A    between atoms: C_42  and  C_38 
REMARK   23  A    between atoms: C_38  and  O_62 
REMARK   24  A    between atoms: O_57  and  C_39 
REMARK   25  A    between atoms: O_58  and  C_40 
REMARK   26  A    between atoms: C_41  and  O_59 
REMARK   27  A    between atoms: C_42  and  O_60 
ROOT
HETATM    1  C   UNK N   1      34.658  15.064  11.619  0.00  0.00     0.186 C 
ENDROOT
BRANCH   1   2
HETATM    2  C   UNK N   1      33.678  14.553  10.526  0.00  0.00     0.186 C 
BRANCH   2   3
HETATM    3  C   UNK N   1      33.952  14.860   9.037  0.00  0.00     0.227 C 
BRANCH   3   4
HETATM    4  C   UNK N   1      32.784  14.672   8.068  0.00  0.00     0.144 C 
HETATM    5  N   UNK N   1      31.998  15.657   7.741  0.00  0.00    -0.360 N 
ATOM      6  HN  UNK N   1      31.253  15.468   7.069  1.00  0.00     0.162 HD
BRANCH   5   7
HETATM    7  C   UNK N   1      32.108  17.013   8.270  0.00  0.00     0.161 C 
BRANCH   7   8
HETATM    8  C   UNK N   1      32.922  17.922   7.345  0.00  0.00     0.008 C 
HETATM    9  C   UNK N   1      33.084  17.343   5.949  0.00  0.00     0.012 C 
HETATM   10  C   UNK N   1      34.287  18.224   7.936  0.00  0.00     0.012 C 
ENDBRANCH   7   8
BRANCH   7  11
HETATM   11  C   UNK N   1      30.756  17.635   8.536  0.00  0.00     0.135 C 
HETATM   12  N   UNK N   1      29.812  17.570   7.646  0.00  0.00    -0.367 N 
ATOM     13  HN  UNK N   1      29.993  17.056   6.784  1.00  0.00     0.161 HD
BRANCH  12  14
HETATM   14  C   UNK N   1      28.512  18.194   7.817  0.00  0.00     0.178 C 
BRANCH  14  15
HETATM   15  C   UNK N   1      28.105  18.928   6.576  0.00  0.00     0.026 A 
HETATM   16  C   UNK N   1      27.592  20.229   6.659  0.00  0.00     0.027 A 
HETATM   17  C   UNK N   1      27.103  20.844   5.506  0.00  0.00     0.003 A 
HETATM   18  C   UNK N   1      27.128  20.157   4.291  0.00  0.00     0.017 A 
HETATM   19  C   UNK N   1      27.655  18.865   4.246  0.00  0.00     0.088 A 
HETATM   20  N   UNK N   1      28.123  18.279   5.381  0.00  0.00    -0.368 N 
ATOM     21  HN  UNK N   1      28.496  17.331   5.334  1.00  0.00     0.165 HD
ENDBRANCH  14  15
ENDBRANCH  12  14
BRANCH  11  22
HETATM   22  O   UNK N   1      30.566  18.300   9.693  0.00  0.00    -0.348 OA
HETATM   23  H   UNK N   1      30.425  18.228  10.617  0.00  0.00     0.219 HD
ENDBRANCH  11  22
ENDBRANCH   7  11
ENDBRANCH   5   7
BRANCH   4  24
HETATM   24  O   UNK N   1      32.565  13.461   7.525  0.00  0.00    -0.348 OA
HETATM   25  H   UNK N   1      32.589  12.555   7.760  0.00  0.00     0.219 HD
ENDBRANCH   4  24
ENDBRANCH   3   4
BRANCH   3  26
HETATM   26  O   UNK N   1      35.208  14.490   8.497  0.00  0.00    -0.370 OA
BRANCH  26  27
HETATM   27  C   UNK N   1      35.352  14.906   7.160  0.00  0.00     0.207 C 
BRANCH  27  28
HETATM   28  C   UNK N   1      36.162  13.951   6.342  0.00  0.00    -0.035 A 
HETATM   29  C   UNK N   1      37.196  14.405   5.513  0.00  0.00     0.009 A 
HETATM   30  C   UNK N   1      37.944  13.491   4.764  0.00  0.00     0.001 A 
HETATM   31  C   UNK N   1      37.668  12.123   4.851  0.00  0.00     0.000 A 
HETATM   32  C   UNK N   1      36.642  11.668   5.684  0.00  0.00     0.001 A 
HETATM   33  C   UNK N   1      35.890  12.581   6.427  0.00  0.00     0.009 A 
ENDBRANCH  27  28
ENDBRANCH  26  27
ENDBRANCH   3  26
ENDBRANCH   2   3
BRANCH   2  34
HETATM   34  O   UNK N   1      32.411  15.078  10.828  0.00  0.00    -0.390 OA
HETATM   35  H   UNK N   1      31.890  15.737  11.312  0.00  0.00     0.210 HD
ENDBRANCH   2  34
ENDBRANCH   1   2
BRANCH   1  36
HETATM   36  C   UNK N   1      35.521  13.902  12.221  0.00  0.00     0.227 C 
BRANCH  36  37
HETATM   37  C   UNK N   1      36.120  14.274  13.567  0.00  0.00     0.144 C 
HETATM   38  N   UNK N   1      35.897  13.626  14.673  0.00  0.00    -0.360 N 
ATOM     39  HN  UNK N   1      36.396  13.984  15.488  1.00  0.00     0.162 HD
BRANCH  38  40
HETATM   40  C   UNK N   1      35.045  12.471  14.935  0.00  0.00     0.161 C 
BRANCH  40  41
HETATM   41  C   UNK N   1      34.764  12.179  16.435  0.00  0.00     0.008 C 
HETATM   42  C   UNK N   1      35.572  10.983  16.922  0.00  0.00     0.012 C 
HETATM   43  C   UNK N   1      34.987  13.300  17.417  0.00  0.00     0.012 C 
ENDBRANCH  40  41
BRANCH  40  44
HETATM   44  C   UNK N   1      35.395  11.287  14.068  0.00  0.00     0.135 C 
HETATM   45  N   UNK N   1      34.436  10.628  13.504  0.00  0.00    -0.367 N 
ATOM     46  HN  UNK N   1      33.491  11.008  13.543  1.00  0.00     0.161 HD
BRANCH  45  47
HETATM   47  C   UNK N   1      34.648   9.371  12.820  0.00  0.00     0.178 C 
BRANCH  47  48
HETATM   48  C   UNK N   1      34.406   9.580  11.356  0.00  0.00     0.026 A 
HETATM   49  C   UNK N   1      35.219   8.933  10.413  0.00  0.00     0.027 A 
HETATM   50  C   UNK N   1      35.068   9.232   9.060  0.00  0.00     0.003 A 
HETATM   51  C   UNK N   1      34.112  10.166   8.661  0.00  0.00     0.017 A 
HETATM   52  C   UNK N   1      33.313  10.783   9.628  0.00  0.00     0.088 A 
HETATM   53  N   UNK N   1      33.482  10.488  10.946  0.00  0.00    -0.368 N 
ATOM     54  HN  UNK N   1      32.902  10.959  11.641  1.00  0.00     0.165 HD
ENDBRANCH  47  48
ENDBRANCH  45  47
BRANCH  44  55
HETATM   55  O   UNK N   1      36.673  10.863  13.969  0.00  0.00    -0.348 OA
HETATM   56  H   UNK N   1      37.467  10.367  13.919  0.00  0.00     0.219 HD
ENDBRANCH  44  55
ENDBRANCH  40  44
ENDBRANCH  38  40
BRANCH  37  57
HETATM   57  O   UNK N   1      36.912  15.362  13.622  0.00  0.00    -0.348 OA
HETATM   58  H   UNK N   1      36.837  16.244  13.314  0.00  0.00     0.219 HD
ENDBRANCH  37  57
ENDBRANCH  36  37
BRANCH  36  59
HETATM   59  O   UNK N   1      36.602  13.669  11.340  0.00  0.00    -0.370 OA
BRANCH  59  60
HETATM   60  C   UNK N   1      36.671  12.373  10.835  0.00  0.00     0.207 C 
BRANCH  60  61
HETATM   61  C   UNK N   1      37.721  12.370   9.777  0.00  0.00    -0.035 A 
HETATM   62  C   UNK N   1      38.169  11.161   9.242  0.00  0.00     0.009 A 
HETATM   63  C   UNK N   1      39.183  11.157   8.278  0.00  0.00     0.001 A 
HETATM   64  C   UNK N   1      39.759  12.360   7.859  0.00  0.00     0.000 A 
HETATM   65  C   UNK N   1      39.315  13.572   8.396  0.00  0.00     0.001 A 
HETATM   66  C   UNK N   1      38.295  13.578   9.350  0.00  0.00     0.009 A 
ENDBRANCH  60  61
ENDBRANCH  59  60
ENDBRANCH  36  59
ENDBRANCH   1  36
BRANCH   1  67
HETATM   67  O   UNK N   1      35.474  16.103  11.163  0.00  0.00    -0.390 OA
HETATM   68  H   UNK N   1      35.405  16.848  10.544  0.00  0.00     0.210 HD
ENDBRANCH   1  67
TORSDOF 27
ENDMDL
MODEL 9
REMARK VINA RESULT:      -6.6      7.767     13.010
REMARK  27 active torsions:
REMARK  status: ('A' for Active; 'I' for Inactive)
REMARK    1  A    between atoms: C_31  and  C_23 
REMARK    2  A    between atoms: N_47  and  C_23 
REMARK    3  A    between atoms: C_32  and  C_24 
REMARK    4  A    between atoms: N_49  and  C_24 
REMARK    5  A    between atoms: C_29  and  C_25 
REMARK    6  A    between atoms: O_61  and  C_25 
REMARK    7  A    between atoms: C_30  and  C_26 
REMARK    8  A    between atoms: O_62  and  C_26 
REMARK    9  A    between atoms: C_33  and  C_27 
REMARK   10  A    between atoms: C_34  and  C_28 
REMARK   11  A    between atoms: C_39  and  C_33 
REMARK   12  A    between atoms: C_33  and  N_51 
REMARK   13  A    between atoms: C_40  and  C_34 
REMARK   14  A    between atoms: C_34  and  N_53 
REMARK   15  A    between atoms: C_36  and  C_35 
REMARK   16  A    between atoms: C_37  and  C_35 
REMARK   17  A    between atoms: C_35  and  O_55 
REMARK   18  A    between atoms: C_38  and  C_36 
REMARK   19  A    between atoms: C_36  and  O_56 
REMARK   20  A    between atoms: C_41  and  C_37 
REMARK   21  A    between atoms: C_37  and  O_61 
REMARK   22  A    between atoms: C_42  and  C_38 
REMARK   23  A    between atoms: C_38  and  O_62 
REMARK   24  A    between atoms: O_57  and  C_39 
REMARK   25  A    between atoms: O_58  and  C_40 
REMARK   26  A    between atoms: C_41  and  O_59 
REMARK   27  A    between atoms: C_42  and  O_60 
ROOT
HETATM    1  C   UNK N   1      35.283  16.312  10.155  0.00  0.00     0.186 C 
ENDROOT
BRANCH   1   2
HETATM    2  C   UNK N   1      36.121  15.005  10.236  0.00  0.00     0.186 C 
BRANCH   2   3
HETATM    3  C   UNK N   1      35.680  13.860  11.175  0.00  0.00     0.227 C 
BRANCH   3   4
HETATM    4  C   UNK N   1      35.165  12.583  10.510  0.00  0.00     0.144 C 
HETATM    5  N   UNK N   1      35.856  11.479  10.516  0.00  0.00    -0.360 N 
ATOM      6  HN  UNK N   1      35.442  10.657  10.077  1.00  0.00     0.162 HD
BRANCH   5   7
HETATM    7  C   UNK N   1      37.182  11.338  11.109  0.00  0.00     0.161 C 
BRANCH   7   8
HETATM    8  C   UNK N   1      37.310  10.045  11.919  0.00  0.00     0.008 C 
HETATM    9  C   UNK N   1      36.009   9.261  11.981  0.00  0.00     0.012 C 
HETATM   10  C   UNK N   1      37.807  10.326  13.326  0.00  0.00     0.012 C 
ENDBRANCH   7   8
BRANCH   7  11
HETATM   11  C   UNK N   1      38.281  11.403  10.074  0.00  0.00     0.135 C 
HETATM   12  N   UNK N   1      38.603  12.533   9.520  0.00  0.00    -0.367 N 
ATOM     13  HN  UNK N   1      38.123  13.378   9.831  1.00  0.00     0.161 HD
BRANCH  12  14
HETATM   14  C   UNK N   1      39.610  12.653   8.480  0.00  0.00     0.178 C 
BRANCH  14  15
HETATM   15  C   UNK N   1      38.986  13.047   7.177  0.00  0.00     0.026 A 
HETATM   16  C   UNK N   1      38.132  12.164   6.505  0.00  0.00     0.027 A 
HETATM   17  C   UNK N   1      37.664  12.501   5.234  0.00  0.00     0.003 A 
HETATM   18  C   UNK N   1      38.055  13.707   4.650  0.00  0.00     0.017 A 
HETATM   19  C   UNK N   1      38.901  14.566   5.354  0.00  0.00     0.088 A 
HETATM   20  N   UNK N   1      39.351  14.219   6.590  0.00  0.00    -0.368 N 
ATOM     21  HN  UNK N   1      39.977  14.852   7.088  1.00  0.00     0.165 HD
ENDBRANCH  14  15
ENDBRANCH  12  14
BRANCH  11  22
HETATM   22  O   UNK N   1      38.887  10.257   9.701  0.00  0.00    -0.348 OA
HETATM   23  H   UNK N   1      38.821   9.324   9.649  0.00  0.00     0.219 HD
ENDBRANCH  11  22
ENDBRANCH   7  11
ENDBRANCH   5   7
BRANCH   4  24
HETATM   24  O   UNK N   1      33.960  12.590   9.911  0.00  0.00    -0.348 OA
HETATM   25  H   UNK N   1      33.513  13.012   9.205  0.00  0.00     0.219 HD
ENDBRANCH   4  24
ENDBRANCH   3   4
BRANCH   3  26
HETATM   26  O   UNK N   1      34.996  14.199  12.368  0.00  0.00    -0.370 OA
BRANCH  26  27
HETATM   27  C   UNK N   1      35.808  14.041  13.506  0.00  0.00     0.207 C 
BRANCH  27  28
HETATM   28  C   UNK N   1      35.412  12.864  14.340  0.00  0.00    -0.035 A 
HETATM   29  C   UNK N   1      36.030  12.610  15.572  0.00  0.00     0.009 A 
HETATM   30  C   UNK N   1      35.636  11.506  16.337  0.00  0.00     0.001 A 
HETATM   31  C   UNK N   1      34.616  10.666  15.879  0.00  0.00     0.000 A 
HETATM   32  C   UNK N   1      33.993  10.924  14.655  0.00  0.00     0.001 A 
HETATM   33  C   UNK N   1      34.391  12.021  13.887  0.00  0.00     0.009 A 
ENDBRANCH  27  28
ENDBRANCH  26  27
ENDBRANCH   3  26
ENDBRANCH   2   3
BRANCH   2  34
HETATM   34  O   UNK N   1      37.422  15.371  10.617  0.00  0.00    -0.390 OA
HETATM   35  H   UNK N   1      38.011  15.698  11.315  0.00  0.00     0.210 HD
ENDBRANCH   2  34
ENDBRANCH   1   2
BRANCH   1  36
HETATM   36  C   UNK N   1      34.158  16.219   9.069  0.00  0.00     0.227 C 
BRANCH  36  37
HETATM   37  C   UNK N   1      32.807  15.874   9.673  0.00  0.00     0.144 C 
HETATM   38  N   UNK N   1      31.672  16.347   9.249  0.00  0.00    -0.360 N 
ATOM     39  HN  UNK N   1      30.850  15.997   9.742  1.00  0.00     0.162 HD
BRANCH  38  40
HETATM   40  C   UNK N   1      31.386  17.301   8.182  0.00  0.00     0.161 C 
BRANCH  40  41
HETATM   41  C   UNK N   1      30.242  18.309   8.481  0.00  0.00     0.008 C 
HETATM   42  C   UNK N   1      29.056  18.084   7.552  0.00  0.00     0.012 C 
HETATM   43  C   UNK N   1      29.706  18.358   9.888  0.00  0.00     0.012 C 
ENDBRANCH  40  41
BRANCH  40  44
HETATM   44  C   UNK N   1      31.383  16.656   6.818  0.00  0.00     0.135 C 
HETATM   45  N   UNK N   1      30.847  15.487   6.687  0.00  0.00    -0.367 N 
ATOM     46  HN  UNK N   1      30.320  15.100   7.468  1.00  0.00     0.161 HD
BRANCH  45  47
HETATM   47  C   UNK N   1      30.966  14.704   5.476  0.00  0.00     0.178 C 
BRANCH  47  48
HETATM   48  C   UNK N   1      29.740  14.928   4.644  0.00  0.00     0.026 A 
HETATM   49  C   UNK N   1      29.851  15.032   3.250  0.00  0.00     0.027 A 
HETATM   50  C   UNK N   1      28.726  15.366   2.497  0.00  0.00     0.003 A 
HETATM   51  C   UNK N   1      27.508  15.589   3.137  0.00  0.00     0.017 A 
HETATM   52  C   UNK N   1      27.433  15.466   4.527  0.00  0.00     0.088 A 
HETATM   53  N   UNK N   1      28.543  15.151   5.248  0.00  0.00    -0.368 N 
ATOM     54  HN  UNK N   1      28.476  15.081   6.263  1.00  0.00     0.165 HD
ENDBRANCH  47  48
ENDBRANCH  45  47
BRANCH  44  55
HETATM   55  O   UNK N   1      32.019  17.242   5.781  0.00  0.00    -0.348 OA
HETATM   56  H   UNK N   1      32.408  17.836   5.168  0.00  0.00     0.219 HD
ENDBRANCH  44  55
ENDBRANCH  40  44
ENDBRANCH  38  40
BRANCH  37  57
HETATM   57  O   UNK N   1      32.788  15.045  10.735  0.00  0.00    -0.348 OA
HETATM   58  H   UNK N   1      33.159  15.073  11.595  0.00  0.00     0.219 HD
ENDBRANCH  37  57
ENDBRANCH  36  37
BRANCH  36  59
HETATM   59  O   UNK N   1      34.496  15.165   8.189  0.00  0.00    -0.370 OA
BRANCH  59  60
HETATM   60  C   UNK N   1      34.905  15.573   6.923  0.00  0.00     0.207 C 
BRANCH  60  61
HETATM   61  C   UNK N   1      34.582  14.466   5.979  0.00  0.00    -0.035 A 
HETATM   62  C   UNK N   1      34.549  14.707   4.604  0.00  0.00     0.009 A 
HETATM   63  C   UNK N   1      34.207  13.677   3.722  0.00  0.00     0.001 A 
HETATM   64  C   UNK N   1      33.882  12.409   4.215  0.00  0.00     0.000 A 
HETATM   65  C   UNK N   1      33.910  12.165   5.590  0.00  0.00     0.001 A 
HETATM   66  C   UNK N   1      34.263  13.190   6.471  0.00  0.00     0.009 A 
ENDBRANCH  60  61
ENDBRANCH  59  60
ENDBRANCH  36  59
ENDBRANCH   1  36
BRANCH   1  67
HETATM   67  O   UNK N   1      34.749  16.682  11.393  0.00  0.00    -0.390 OA
HETATM   68  H   UNK N   1      35.062  16.781  12.306  0.00  0.00     0.210 HD
ENDBRANCH   1  67
TORSDOF 27
ENDMDL
