MODEL 1
REMARK VINA RESULT:      -5.9      0.000      0.000
REMARK  7 active torsions:
REMARK  status: ('A' for Active; 'I' for Inactive)
REMARK    1  A    between atoms: O_1  and  C_2 
REMARK    2  A    between atoms: C_3  and  C_2 
REMARK    3  A    between atoms: C_5  and  N_13 
REMARK    4  A    between atoms: C_7  and  O_8 
REMARK    5  A    between atoms: O_8  and  P_9 
REMARK    6  A    between atoms: P_9  and  O_10 
REMARK    7  A    between atoms: P_9  and  O_11 
ROOT
HETATM    1  C   UNK N   1      23.296  17.843   4.354  0.00  0.00     0.177 C 
HETATM    2  O   UNK N   1      23.006  17.321   5.623  0.00  0.00    -0.356 OA
HETATM    3  C   UNK N   1      21.916  18.070   6.114  0.00  0.00     0.235 C 
HETATM    4  C   UNK N   1      21.158  18.688   4.947  0.00  0.00     0.089 C 
HETATM    5  C   UNK N   1      21.973  18.295   3.755  0.00  0.00     0.169 C 
ENDROOT
BRANCH   3   6
HETATM    6  N   UNK N   1      21.127  17.248   7.051  0.00  0.00    -0.282 N 
HETATM    7  C   UNK N   1      21.183  15.901   6.849  0.00  0.00     0.104 A 
HETATM    8  C   UNK N   1      20.479  15.019   7.662  0.00  0.00     0.092 A 
HETATM    9  C   UNK N   1      19.706  15.532   8.692  0.00  0.00     0.250 A 
HETATM   10  O   UNK N   1      19.078  14.781   9.414  0.00  0.00    -0.268 OA
HETATM   11  N   UNK N   1      19.650  16.882   8.893  0.00  0.00    -0.275 N 
HETATM   12  C   UNK N   1      20.347  17.746   8.090  0.00  0.00     0.331 A 
HETATM   13  H   UNK N   1      19.099  17.240   9.626  0.00  0.00     0.173 HD
HETATM   14  O   UNK N   1      20.259  18.942   8.297  0.00  0.00    -0.246 OA
ENDBRANCH   3   6
BRANCH   1  15
HETATM   15  C   UNK N   1      24.345  18.944   4.488  0.00  0.00     0.198 C 
BRANCH  15  16
HETATM   16  O   UNK N   1      24.966  19.146   3.256  0.00  0.00    -0.398 OA
HETATM   17  H   UNK N   1      25.898  19.374   3.115  0.00  0.00     0.209 HD
ENDBRANCH  15  16
ENDBRANCH   1  15
BRANCH   5  18
HETATM   18  O   UNK N   1      22.107  19.381   2.881  0.00  0.00    -0.289 OA
BRANCH  18  19
HETATM   19  P   UNK N   1      20.512  20.041   2.681  0.00  0.00     0.391 P 
HETATM   20  O   UNK N   1      20.677  19.100   1.457  0.00  0.00    -0.632 OA
BRANCH  19  21
HETATM   21  O   UNK N   1      20.215  21.072   1.318  0.00  0.00    -0.307 OA
HETATM   22  H   UNK N   1      19.797  20.764   0.498  0.00  0.00     0.222 HD
ENDBRANCH  19  21
BRANCH  19  23
HETATM   23  O   UNK N   1      21.664  21.340   2.645  0.00  0.00    -0.307 OA
HETATM   24  H   UNK N   1      22.067  21.992   3.241  0.00  0.00     0.222 HD
ENDBRANCH  19  23
ENDBRANCH  18  19
ENDBRANCH   5  18
TORSDOF 7
ENDMDL
MODEL 2
REMARK VINA RESULT:      -5.8      3.259      6.767
REMARK  7 active torsions:
REMARK  status: ('A' for Active; 'I' for Inactive)
REMARK    1  A    between atoms: O_1  and  C_2 
REMARK    2  A    between atoms: C_3  and  C_2 
REMARK    3  A    between atoms: C_5  and  N_13 
REMARK    4  A    between atoms: C_7  and  O_8 
REMARK    5  A    between atoms: O_8  and  P_9 
REMARK    6  A    between atoms: P_9  and  O_10 
REMARK    7  A    between atoms: P_9  and  O_11 
ROOT
HETATM    1  C   UNK N   1      21.718  15.477   5.242  0.00  0.00     0.177 C 
HETATM    2  O   UNK N   1      21.872  16.227   4.068  0.00  0.00    -0.356 OA
HETATM    3  C   UNK N   1      20.569  16.579   3.654  0.00  0.00     0.235 C 
HETATM    4  C   UNK N   1      19.628  16.534   4.850  0.00  0.00     0.089 C 
HETATM    5  C   UNK N   1      20.499  16.037   5.960  0.00  0.00     0.169 C 
ENDROOT
BRANCH   3   6
HETATM    6  N   UNK N   1      20.610  17.843   2.895  0.00  0.00    -0.282 N 
HETATM    7  C   UNK N   1      20.996  18.945   3.599  0.00  0.00     0.104 A 
HETATM    8  C   UNK N   1      21.069  20.196   2.998  0.00  0.00     0.092 A 
HETATM    9  C   UNK N   1      20.737  20.314   1.657  0.00  0.00     0.250 A 
HETATM   10  O   UNK N   1      20.789  21.400   1.110  0.00  0.00    -0.268 OA
HETATM   11  N   UNK N   1      20.349  19.210   0.952  0.00  0.00    -0.275 N 
HETATM   12  C   UNK N   1      20.281  17.978   1.550  0.00  0.00     0.331 A 
HETATM   13  H   UNK N   1      20.115  19.300   0.001  0.00  0.00     0.173 HD
HETATM   14  O   UNK N   1      19.919  17.023   0.888  0.00  0.00    -0.246 OA
ENDBRANCH   3   6
BRANCH   1  15
HETATM   15  C   UNK N   1      21.625  13.996   4.887  0.00  0.00     0.198 C 
BRANCH  15  16
HETATM   16  O   UNK N   1      22.110  13.233   5.948  0.00  0.00    -0.398 OA
HETATM   17  H   UNK N   1      22.970  12.785   5.985  0.00  0.00     0.209 HD
ENDBRANCH  15  16
ENDBRANCH   1  15
BRANCH   5  18
HETATM   18  O   UNK N   1      19.817  15.074   6.717  0.00  0.00    -0.289 OA
BRANCH  18  19
HETATM   19  P   UNK N   1      20.315  15.314   8.365  0.00  0.00     0.391 P 
HETATM   20  O   UNK N   1      20.285  13.769   8.210  0.00  0.00    -0.632 OA
BRANCH  19  21
HETATM   21  O   UNK N   1      19.250  14.787   9.629  0.00  0.00    -0.307 OA
HETATM   22  H   UNK N   1      19.557  14.331  10.428  0.00  0.00     0.222 HD
ENDBRANCH  19  21
BRANCH  19  23
HETATM   23  O   UNK N   1      18.736  16.005   8.150  0.00  0.00    -0.307 OA
HETATM   24  H   UNK N   1      17.844  15.950   8.529  0.00  0.00     0.222 HD
ENDBRANCH  19  23
ENDBRANCH  18  19
ENDBRANCH   5  18
TORSDOF 7
ENDMDL
MODEL 3
REMARK VINA RESULT:      -5.8     16.492     17.623
REMARK  7 active torsions:
REMARK  status: ('A' for Active; 'I' for Inactive)
REMARK    1  A    between atoms: O_1  and  C_2 
REMARK    2  A    between atoms: C_3  and  C_2 
REMARK    3  A    between atoms: C_5  and  N_13 
REMARK    4  A    between atoms: C_7  and  O_8 
REMARK    5  A    between atoms: O_8  and  P_9 
REMARK    6  A    between atoms: P_9  and  O_10 
REMARK    7  A    between atoms: P_9  and  O_11 
ROOT
HETATM    1  C   UNK N   1      36.368  12.478  12.554  0.00  0.00     0.177 C 
HETATM    2  O   UNK N   1      36.580  12.400  13.938  0.00  0.00    -0.356 OA
HETATM    3  C   UNK N   1      36.735  13.730  14.385  0.00  0.00     0.235 C 
HETATM    4  C   UNK N   1      36.072  14.678  13.395  0.00  0.00     0.089 C 
HETATM    5  C   UNK N   1      35.607  13.770  12.301  0.00  0.00     0.169 C 
ENDROOT
BRANCH   3   6
HETATM    6  N   UNK N   1      36.303  13.838  15.791  0.00  0.00    -0.282 N 
HETATM    7  C   UNK N   1      35.371  12.928  16.196  0.00  0.00     0.104 A 
HETATM    8  C   UNK N   1      34.879  12.929  17.497  0.00  0.00     0.092 A 
HETATM    9  C   UNK N   1      35.350  13.879  18.389  0.00  0.00     0.250 A 
HETATM   10  O   UNK N   1      34.932  13.904  19.531  0.00  0.00    -0.268 OA
HETATM   11  N   UNK N   1      36.283  14.792  17.982  0.00  0.00    -0.275 N 
HETATM   12  C   UNK N   1      36.765  14.785  16.699  0.00  0.00     0.331 A 
HETATM   13  H   UNK N   1      36.613  15.465  18.620  0.00  0.00     0.173 HD
HETATM   14  O   UNK N   1      37.587  15.623  16.375  0.00  0.00    -0.246 OA
ENDBRANCH   3   6
BRANCH   1  15
HETATM   15  C   UNK N   1      37.708  12.374  11.831  0.00  0.00     0.198 C 
BRANCH  15  16
HETATM   16  O   UNK N   1      37.490  12.051  10.492  0.00  0.00    -0.398 OA
HETATM   17  H   UNK N   1      36.628  11.899  10.073  0.00  0.00     0.209 HD
ENDBRANCH  15  16
ENDBRANCH   1  15
BRANCH   5  18
HETATM   18  O   UNK N   1      35.886  14.336  11.050  0.00  0.00    -0.289 OA
BRANCH  18  19
HETATM   19  P   UNK N   1      35.423  16.008  11.162  0.00  0.00     0.391 P 
HETATM   20  O   UNK N   1      34.401  15.409  10.159  0.00  0.00    -0.632 OA
BRANCH  19  21
HETATM   21  O   UNK N   1      35.590  17.002   9.751  0.00  0.00    -0.307 OA
HETATM   22  H   UNK N   1      36.418  17.085   9.253  0.00  0.00     0.222 HD
ENDBRANCH  19  21
BRANCH  19  23
HETATM   23  O   UNK N   1      37.045  15.916  10.548  0.00  0.00    -0.307 OA
HETATM   24  H   UNK N   1      37.574  16.233   9.799  0.00  0.00     0.222 HD
ENDBRANCH  19  23
ENDBRANCH  18  19
ENDBRANCH   5  18
TORSDOF 7
ENDMDL
MODEL 4
REMARK VINA RESULT:      -5.7      8.970     11.431
REMARK  7 active torsions:
REMARK  status: ('A' for Active; 'I' for Inactive)
REMARK    1  A    between atoms: O_1  and  C_2 
REMARK    2  A    between atoms: C_3  and  C_2 
REMARK    3  A    between atoms: C_5  and  N_13 
REMARK    4  A    between atoms: C_7  and  O_8 
REMARK    5  A    between atoms: O_8  and  P_9 
REMARK    6  A    between atoms: P_9  and  O_10 
REMARK    7  A    between atoms: P_9  and  O_11 
ROOT
HETATM    1  C   UNK N   1      33.276  16.664   5.163  0.00  0.00     0.177 C 
HETATM    2  O   UNK N   1      31.893  16.506   4.998  0.00  0.00    -0.356 OA
HETATM    3  C   UNK N   1      31.316  16.766   6.260  0.00  0.00     0.235 C 
HETATM    4  C   UNK N   1      32.265  17.627   7.083  0.00  0.00     0.089 C 
HETATM    5  C   UNK N   1      33.470  17.755   6.206  0.00  0.00     0.169 C 
ENDROOT
BRANCH   3   6
HETATM    6  N   UNK N   1      29.944  17.278   6.086  0.00  0.00    -0.282 N 
HETATM    7  C   UNK N   1      29.613  17.669   4.823  0.00  0.00     0.104 A 
HETATM    8  C   UNK N   1      28.351  18.175   4.531  0.00  0.00     0.092 A 
HETATM    9  C   UNK N   1      27.421  18.282   5.553  0.00  0.00     0.250 A 
HETATM   10  O   UNK N   1      26.312  18.726   5.324  0.00  0.00    -0.268 OA
HETATM   11  N   UNK N   1      27.753  17.891   6.819  0.00  0.00    -0.275 N 
HETATM   12  C   UNK N   1      28.999  17.392   7.100  0.00  0.00     0.331 A 
HETATM   13  H   UNK N   1      27.089  17.970   7.541  0.00  0.00     0.173 HD
HETATM   14  O   UNK N   1      29.257  17.066   8.245  0.00  0.00    -0.246 OA
ENDBRANCH   3   6
BRANCH   1  15
HETATM   15  C   UNK N   1      33.899  15.319   5.524  0.00  0.00     0.198 C 
BRANCH  15  16
HETATM   16  O   UNK N   1      35.289  15.427   5.495  0.00  0.00    -0.398 OA
HETATM   17  H   UNK N   1      35.915  14.920   6.035  0.00  0.00     0.209 HD
ENDBRANCH  15  16
ENDBRANCH   1  15
BRANCH   5  18
HETATM   18  O   UNK N   1      34.638  17.592   6.962  0.00  0.00    -0.289 OA
BRANCH  18  19
HETATM   19  P   UNK N   1      34.172  17.795   8.624  0.00  0.00     0.391 P 
HETATM   20  O   UNK N   1      35.063  19.033   8.338  0.00  0.00    -0.632 OA
BRANCH  19  21
HETATM   21  O   UNK N   1      35.406  17.711   9.839  0.00  0.00    -0.307 OA
HETATM   22  H   UNK N   1      35.272  18.001  10.755  0.00  0.00     0.222 HD
ENDBRANCH  19  21
BRANCH  19  23
HETATM   23  O   UNK N   1      35.069  16.316   8.470  0.00  0.00    -0.307 OA
HETATM   24  H   UNK N   1      34.927  15.356   8.488  0.00  0.00     0.222 HD
ENDBRANCH  19  23
ENDBRANCH  18  19
ENDBRANCH   5  18
TORSDOF 7
ENDMDL
MODEL 5
REMARK VINA RESULT:      -5.7     11.350     13.138
REMARK  7 active torsions:
REMARK  status: ('A' for Active; 'I' for Inactive)
REMARK    1  A    between atoms: O_1  and  C_2 
REMARK    2  A    between atoms: C_3  and  C_2 
REMARK    3  A    between atoms: C_5  and  N_13 
REMARK    4  A    between atoms: C_7  and  O_8 
REMARK    5  A    between atoms: O_8  and  P_9 
REMARK    6  A    between atoms: P_9  and  O_10 
REMARK    7  A    between atoms: P_9  and  O_11 
ROOT
HETATM    1  C   UNK N   1      33.725  18.063   7.235  0.00  0.00     0.177 C 
HETATM    2  O   UNK N   1      34.364  17.480   6.132  0.00  0.00    -0.356 OA
HETATM    3  C   UNK N   1      34.022  16.111   6.159  0.00  0.00     0.235 C 
HETATM    4  C   UNK N   1      32.729  15.928   6.943  0.00  0.00     0.089 C 
HETATM    5  C   UNK N   1      32.420  17.307   7.433  0.00  0.00     0.169 C 
ENDROOT
BRANCH   3   6
HETATM    6  N   UNK N   1      34.047  15.561   4.791  0.00  0.00    -0.282 N 
HETATM    7  C   UNK N   1      34.780  14.424   4.624  0.00  0.00     0.104 A 
HETATM    8  C   UNK N   1      34.886  13.811   3.380  0.00  0.00     0.092 A 
HETATM    9  C   UNK N   1      34.233  14.378   2.297  0.00  0.00     0.250 A 
HETATM   10  O   UNK N   1      34.315  13.864   1.198  0.00  0.00    -0.268 OA
HETATM   11  N   UNK N   1      33.500  15.519   2.465  0.00  0.00    -0.275 N 
HETATM   12  C   UNK N   1      33.397  16.117   3.694  0.00  0.00     0.331 A 
HETATM   13  H   UNK N   1      33.039  15.917   1.693  0.00  0.00     0.173 HD
HETATM   14  O   UNK N   1      32.743  17.139   3.798  0.00  0.00    -0.246 OA
ENDBRANCH   3   6
BRANCH   1  15
HETATM   15  C   UNK N   1      34.665  18.038   8.436  0.00  0.00     0.198 C 
BRANCH  15  16
HETATM   16  O   UNK N   1      35.326  19.262   8.535  0.00  0.00    -0.398 OA
HETATM   17  H   UNK N   1      36.284  19.391   8.614  0.00  0.00     0.209 HD
ENDBRANCH  15  16
ENDBRANCH   1  15
BRANCH   5  18
HETATM   18  O   UNK N   1      32.007  17.265   8.771  0.00  0.00    -0.289 OA
BRANCH  18  19
HETATM   19  P   UNK N   1      30.274  17.403   8.747  0.00  0.00     0.391 P 
HETATM   20  O   UNK N   1      30.754  18.840   9.084  0.00  0.00    -0.632 OA
BRANCH  19  21
HETATM   21  O   UNK N   1      29.460  17.778  10.232  0.00  0.00    -0.307 OA
HETATM   22  H   UNK N   1      29.671  17.351  11.077  0.00  0.00     0.222 HD
ENDBRANCH  19  21
BRANCH  19  23
HETATM   23  O   UNK N   1      30.729  16.274   9.986  0.00  0.00    -0.307 OA
HETATM   24  H   UNK N   1      31.492  16.050  10.542  0.00  0.00     0.222 HD
ENDBRANCH  19  23
ENDBRANCH  18  19
ENDBRANCH   5  18
TORSDOF 7
ENDMDL
MODEL 6
REMARK VINA RESULT:      -5.6      8.182     10.534
REMARK  7 active torsions:
REMARK  status: ('A' for Active; 'I' for Inactive)
REMARK    1  A    between atoms: O_1  and  C_2 
REMARK    2  A    between atoms: C_3  and  C_2 
REMARK    3  A    between atoms: C_5  and  N_13 
REMARK    4  A    between atoms: C_7  and  O_8 
REMARK    5  A    between atoms: O_8  and  P_9 
REMARK    6  A    between atoms: P_9  and  O_10 
REMARK    7  A    between atoms: P_9  and  O_11 
ROOT
HETATM    1  C   UNK N   1      29.534  18.126   8.336  0.00  0.00     0.177 C 
HETATM    2  O   UNK N   1      30.783  17.497   8.445  0.00  0.00    -0.356 OA
HETATM    3  C   UNK N   1      30.742  16.389   7.572  0.00  0.00     0.235 C 
HETATM    4  C   UNK N   1      29.686  16.627   6.500  0.00  0.00     0.089 C 
HETATM    5  C   UNK N   1      29.073  17.932   6.899  0.00  0.00     0.169 C 
ENDROOT
BRANCH   3   6
HETATM    6  N   UNK N   1      32.102  16.073   7.100  0.00  0.00    -0.282 N 
HETATM    7  C   UNK N   1      32.882  17.146   6.781  0.00  0.00     0.104 A 
HETATM    8  C   UNK N   1      34.182  16.980   6.318  0.00  0.00     0.092 A 
HETATM    9  C   UNK N   1      34.684  15.695   6.179  0.00  0.00     0.250 A 
HETATM   10  O   UNK N   1      35.817  15.524   5.772  0.00  0.00    -0.268 OA
HETATM   11  N   UNK N   1      33.902  14.621   6.497  0.00  0.00    -0.275 N 
HETATM   12  C   UNK N   1      32.621  14.791   6.955  0.00  0.00     0.331 A 
HETATM   13  H   UNK N   1      34.263  13.711   6.396  0.00  0.00     0.173 HD
HETATM   14  O   UNK N   1      31.954  13.806   7.216  0.00  0.00    -0.246 OA
ENDBRANCH   3   6
BRANCH   1  15
HETATM   15  C   UNK N   1      28.589  17.559   9.391  0.00  0.00     0.198 C 
BRANCH  15  16
HETATM   16  O   UNK N   1      27.420  18.318   9.424  0.00  0.00    -0.398 OA
HETATM   17  H   UNK N   1      26.603  18.091   9.896  0.00  0.00     0.209 HD
ENDBRANCH  15  16
ENDBRANCH   1  15
BRANCH   5  18
HETATM   18  O   UNK N   1      27.679  17.869   6.774  0.00  0.00    -0.289 OA
BRANCH  18  19
HETATM   19  P   UNK N   1      27.252  19.021   5.543  0.00  0.00     0.391 P 
HETATM   20  O   UNK N   1      27.307  19.871   6.841  0.00  0.00    -0.632 OA
BRANCH  19  21
HETATM   21  O   UNK N   1      25.687  19.765   5.622  0.00  0.00    -0.307 OA
HETATM   22  H   UNK N   1      25.548  20.684   5.899  0.00  0.00     0.222 HD
ENDBRANCH  19  21
BRANCH  19  23
HETATM   23  O   UNK N   1      26.012  17.808   5.630  0.00  0.00    -0.307 OA
HETATM   24  H   UNK N   1      25.051  17.720   5.520  0.00  0.00     0.222 HD
ENDBRANCH  19  23
ENDBRANCH  18  19
ENDBRANCH   5  18
TORSDOF 7
ENDMDL
MODEL 7
REMARK VINA RESULT:      -5.6      9.738     11.758
REMARK  7 active torsions:
REMARK  status: ('A' for Active; 'I' for Inactive)
REMARK    1  A    between atoms: O_1  and  C_2 
REMARK    2  A    between atoms: C_3  and  C_2 
REMARK    3  A    between atoms: C_5  and  N_13 
REMARK    4  A    between atoms: C_7  and  O_8 
REMARK    5  A    between atoms: O_8  and  P_9 
REMARK    6  A    between atoms: P_9  and  O_10 
REMARK    7  A    between atoms: P_9  and  O_11 
ROOT
HETATM    1  C   UNK N   1      32.718  16.415   4.800  0.00  0.00     0.177 C 
HETATM    2  O   UNK N   1      33.708  16.659   5.762  0.00  0.00    -0.356 OA
HETATM    3  C   UNK N   1      33.065  17.331   6.824  0.00  0.00     0.235 C 
HETATM    4  C   UNK N   1      31.574  17.023   6.789  0.00  0.00     0.089 C 
HETATM    5  C   UNK N   1      31.419  16.188   5.558  0.00  0.00     0.169 C 
ENDROOT
BRANCH   3   6
HETATM    6  N   UNK N   1      33.767  17.052   8.090  0.00  0.00    -0.282 N 
HETATM    7  C   UNK N   1      33.507  15.839   8.656  0.00  0.00     0.104 A 
HETATM    8  C   UNK N   1      34.102  15.460   9.854  0.00  0.00     0.092 A 
HETATM    9  C   UNK N   1      34.972  16.341  10.477  0.00  0.00     0.250 A 
HETATM   10  O   UNK N   1      35.503  16.033  11.528  0.00  0.00    -0.268 OA
HETATM   11  N   UNK N   1      35.232  17.556   9.910  0.00  0.00    -0.275 N 
HETATM   12  C   UNK N   1      34.643  17.924   8.728  0.00  0.00     0.331 A 
HETATM   13  H   UNK N   1      35.850  18.178  10.357  0.00  0.00     0.173 HD
HETATM   14  O   UNK N   1      34.893  19.021   8.263  0.00  0.00    -0.246 OA
ENDBRANCH   3   6
BRANCH   1  15
HETATM   15  C   UNK N   1      32.683  17.573   3.806  0.00  0.00     0.198 C 
BRANCH  15  16
HETATM   16  O   UNK N   1      31.842  17.247   2.742  0.00  0.00    -0.398 OA
HETATM   17  H   UNK N   1      31.403  17.875   2.146  0.00  0.00     0.209 HD
ENDBRANCH  15  16
ENDBRANCH   1  15
BRANCH   5  18
HETATM   18  O   UNK N   1      30.285  16.591   4.839  0.00  0.00    -0.289 OA
BRANCH  18  19
HETATM   19  P   UNK N   1      29.276  17.445   5.968  0.00  0.00     0.391 P 
HETATM   20  O   UNK N   1      28.532  16.099   5.753  0.00  0.00    -0.632 OA
BRANCH  19  21
HETATM   21  O   UNK N   1      27.689  17.921   5.452  0.00  0.00    -0.307 OA
HETATM   22  H   UNK N   1      27.266  18.749   5.729  0.00  0.00     0.222 HD
ENDBRANCH  19  21
BRANCH  19  23
HETATM   23  O   UNK N   1      29.370  18.362   4.495  0.00  0.00    -0.307 OA
HETATM   24  H   UNK N   1      28.792  18.698   3.792  0.00  0.00     0.222 HD
ENDBRANCH  19  23
ENDBRANCH  18  19
ENDBRANCH   5  18
TORSDOF 7
ENDMDL
MODEL 8
REMARK VINA RESULT:      -5.6     16.521     17.648
REMARK  7 active torsions:
REMARK  status: ('A' for Active; 'I' for Inactive)
REMARK    1  A    between atoms: O_1  and  C_2 
REMARK    2  A    between atoms: C_3  and  C_2 
REMARK    3  A    between atoms: C_5  and  N_13 
REMARK    4  A    between atoms: C_7  and  O_8 
REMARK    5  A    between atoms: O_8  and  P_9 
REMARK    6  A    between atoms: P_9  and  O_10 
REMARK    7  A    between atoms: P_9  and  O_11 
ROOT
HETATM    1  C   UNK N   1      34.970  12.448  12.737  0.00  0.00     0.177 C 
HETATM    2  O   UNK N   1      34.967  11.892  14.024  0.00  0.00    -0.356 OA
HETATM    3  C   UNK N   1      36.052  12.481  14.708  0.00  0.00     0.235 C 
HETATM    4  C   UNK N   1      36.404  13.809  14.051  0.00  0.00     0.089 C 
HETATM    5  C   UNK N   1      35.477  13.875  12.879  0.00  0.00     0.169 C 
ENDROOT
BRANCH   3   6
HETATM    6  N   UNK N   1      35.773  12.515  16.155  0.00  0.00    -0.282 N 
HETATM    7  C   UNK N   1      35.506  13.745  16.678  0.00  0.00     0.104 A 
HETATM    8  C   UNK N   1      35.232  13.910  18.031  0.00  0.00     0.092 A 
HETATM    9  C   UNK N   1      35.237  12.795  18.855  0.00  0.00     0.250 A 
HETATM   10  O   UNK N   1      35.005  12.915  20.043  0.00  0.00    -0.268 OA
HETATM   11  N   UNK N   1      35.506  11.563  18.331  0.00  0.00    -0.275 N 
HETATM   12  C   UNK N   1      35.773  11.406  16.995  0.00  0.00     0.331 A 
HETATM   13  H   UNK N   1      35.508  10.775  18.921  0.00  0.00     0.173 HD
HETATM   14  O   UNK N   1      36.019  10.292  16.572  0.00  0.00    -0.246 OA
ENDBRANCH   3   6
BRANCH   1  15
HETATM   15  C   UNK N   1      35.799  11.565  11.808  0.00  0.00     0.198 C 
BRANCH  15  16
HETATM   16  O   UNK N   1      35.433  11.811  10.485  0.00  0.00    -0.398 OA
HETATM   17  H   UNK N   1      35.036  11.171   9.873  0.00  0.00     0.209 HD
ENDBRANCH  15  16
ENDBRANCH   1  15
BRANCH   5  18
HETATM   18  O   UNK N   1      36.162  14.330  11.745  0.00  0.00    -0.289 OA
BRANCH  18  19
HETATM   19  P   UNK N   1      35.348  15.780  11.238  0.00  0.00     0.391 P 
HETATM   20  O   UNK N   1      34.754  14.682  10.316  0.00  0.00    -0.632 OA
BRANCH  19  21
HETATM   21  O   UNK N   1      35.648  16.373   9.636  0.00  0.00    -0.307 OA
HETATM   22  H   UNK N   1      36.533  16.411   9.239  0.00  0.00     0.222 HD
ENDBRANCH  19  21
BRANCH  19  23
HETATM   23  O   UNK N   1      37.054  15.975  10.977  0.00  0.00    -0.307 OA
HETATM   24  H   UNK N   1      37.765  16.610  11.158  0.00  0.00     0.222 HD
ENDBRANCH  19  23
ENDBRANCH  18  19
ENDBRANCH   5  18
TORSDOF 7
ENDMDL
MODEL 9
REMARK VINA RESULT:      -5.6     13.500     14.889
REMARK  7 active torsions:
REMARK  status: ('A' for Active; 'I' for Inactive)
REMARK    1  A    between atoms: O_1  and  C_2 
REMARK    2  A    between atoms: C_3  and  C_2 
REMARK    3  A    between atoms: C_5  and  N_13 
REMARK    4  A    between atoms: C_7  and  O_8 
REMARK    5  A    between atoms: O_8  and  P_9 
REMARK    6  A    between atoms: P_9  and  O_10 
REMARK    7  A    between atoms: P_9  and  O_11 
ROOT
HETATM    1  C   UNK N   1      29.290  23.792  -5.540  0.00  0.00     0.177 C 
HETATM    2  O   UNK N   1      28.394  24.848  -5.760  0.00  0.00    -0.356 OA
HETATM    3  C   UNK N   1      27.575  24.912  -4.612  0.00  0.00     0.235 C 
HETATM    4  C   UNK N   1      28.301  24.272  -3.436  0.00  0.00     0.089 C 
HETATM    5  C   UNK N   1      29.567  23.759  -4.044  0.00  0.00     0.169 C 
ENDROOT
BRANCH   3   6
HETATM    6  N   UNK N   1      27.094  26.293  -4.418  0.00  0.00    -0.282 N 
HETATM    7  C   UNK N   1      27.964  27.142  -3.801  0.00  0.00     0.104 A 
HETATM    8  C   UNK N   1      27.626  28.468  -3.555  0.00  0.00     0.092 A 
HETATM    9  C   UNK N   1      26.377  28.923  -3.946  0.00  0.00     0.250 A 
HETATM   10  O   UNK N   1      26.056  30.078  -3.738  0.00  0.00    -0.268 OA
HETATM   11  N   UNK N   1      25.505  28.072  -4.564  0.00  0.00    -0.275 N 
HETATM   12  C   UNK N   1      25.844  26.765  -4.805  0.00  0.00     0.331 A 
HETATM   13  H   UNK N   1      24.619  28.400  -4.839  0.00  0.00     0.173 HD
HETATM   14  O   UNK N   1      25.033  26.038  -5.347  0.00  0.00    -0.246 OA
ENDBRANCH   3   6
BRANCH   1  15
HETATM   15  C   UNK N   1      28.702  22.504  -6.108  0.00  0.00     0.198 C 
BRANCH  15  16
HETATM   16  O   UNK N   1      29.732  21.604  -6.380  0.00  0.00    -0.398 OA
HETATM   17  H   UNK N   1      29.709  20.889  -7.036  0.00  0.00     0.209 HD
ENDBRANCH  15  16
ENDBRANCH   1  15
BRANCH   5  18
HETATM   18  O   UNK N   1      29.848  22.473  -3.566  0.00  0.00    -0.289 OA
BRANCH  18  19
HETATM   19  P   UNK N   1      31.573  22.398  -3.365  0.00  0.00     0.391 P 
HETATM   20  O   UNK N   1      31.192  20.962  -3.814  0.00  0.00    -0.632 OA
BRANCH  19  21
HETATM   21  O   UNK N   1      32.211  21.386  -2.110  0.00  0.00    -0.307 OA
HETATM   22  H   UNK N   1      31.722  20.640  -1.727  0.00  0.00     0.222 HD
ENDBRANCH  19  21
BRANCH  19  23
HETATM   23  O   UNK N   1      30.849  22.802  -1.839  0.00  0.00    -0.307 OA
HETATM   24  H   UNK N   1      30.902  23.483  -1.149  0.00  0.00     0.222 HD
ENDBRANCH  19  23
ENDBRANCH  18  19
ENDBRANCH   5  18
TORSDOF 7
ENDMDL
