MODEL 1
REMARK VINA RESULT:      -8.2      0.000      0.000
REMARK  6 active torsions:
REMARK  status: ('A' for Active; 'I' for Inactive)
REMARK    1  A    between atoms: C_3  and  N_2 
REMARK       I    between atoms: N_2  and  C_22 
REMARK    2  A    between atoms: C_6  and  C_9 
REMARK    3  A    between atoms: C_12  and  C_13 
REMARK    4  A    between atoms: C_13  and  N_14 
REMARK    5  A    between atoms: C_22  and  O_24 
REMARK    6  A    between atoms: O_24  and  C_25 
ROOT
HETATM    1  C   UNK N   1      34.978  16.269   8.556  0.00  0.00     0.089 C 
HETATM    2  C   UNK N   1      34.522  17.739   8.351  0.00  0.00     0.026 C 
HETATM    3  C   UNK N   1      33.198  17.808   7.585  0.00  0.00     0.011 C 
HETATM    4  C   UNK N   1      33.383  17.141   6.225  0.00  0.00     0.019 C 
HETATM    5  C   UNK N   1      34.529  16.115   6.126  0.00  0.00     0.011 C 
HETATM    6  C   UNK N   1      34.586  15.322   7.417  0.00  0.00     0.026 C 
ENDROOT
BRANCH   4   7
HETATM    7  C   UNK N   1      32.154  16.707   5.496  0.00  0.00    -0.054 A 
HETATM    8  C   UNK N   1      31.342  15.752   6.111  0.00  0.00     0.008 A 
HETATM    9  C   UNK N   1      29.988  15.690   5.802  0.00  0.00     0.009 A 
HETATM   10  C   UNK N   1      29.441  16.593   4.887  0.00  0.00    -0.030 A 
HETATM   11  C   UNK N   1      30.267  17.479   4.189  0.00  0.00     0.009 A 
HETATM   12  C   UNK N   1      31.623  17.534   4.492  0.00  0.00     0.008 A 
BRANCH  10  13
HETATM   13  C   UNK N   1      28.009  16.972   5.082  0.00  0.00     0.311 C 
BRANCH  13  14
HETATM   14  N   UNK N   1      27.882  18.452   5.057  0.00  0.00     0.092 N 
HETATM   15  C   UNK N   1      26.747  18.829   4.218  0.00  0.00     0.272 C 
HETATM   16  C   UNK N   1      26.690  20.358   4.070  0.00  0.00     0.030 C 
HETATM   17  C   UNK N   1      26.613  21.041   5.438  0.00  0.00     0.003 C 
HETATM   18  C   UNK N   1      27.729  20.542   6.342  0.00  0.00     0.030 C 
HETATM   19  C   UNK N   1      27.642  19.027   6.397  0.00  0.00     0.272 C 
ENDBRANCH  13  14
ENDBRANCH  10  13
ENDBRANCH   4   7
BRANCH   1  20
HETATM   20  N   UNK N   1      34.554  15.783   9.850  0.00  0.00    -0.327 N 
HETATM   21  C   UNK N   1      33.295  15.087   9.920  0.00  0.00     0.155 C 
HETATM   22  C   UNK N   1      35.366  15.821  10.947  0.00  0.00     0.368 C 
HETATM   23  O   UNK N   1      36.432  16.423  10.917  0.00  0.00    -0.238 OA
BRANCH  22  24
HETATM   24  O   UNK N   1      35.045  15.077  12.032  0.00  0.00    -0.261 OA
BRANCH  24  25
HETATM   25  C   UNK N   1      35.868  14.107  12.509  0.00  0.00     0.081 A 
HETATM   26  C   UNK N   1      36.147  14.071  13.876  0.00  0.00     0.039 A 
HETATM   27  C   UNK N   1      36.889  13.017  14.417  0.00  0.00     0.026 A 
HETATM   28  C   UNK N   1      37.364  11.995  13.590  0.00  0.00     0.034 A 
HETATM   29 Cl   UNK N   1      38.257  10.656  14.275  0.00  0.00    -0.084 Cl
HETATM   30  C   UNK N   1      37.112  12.032  12.218  0.00  0.00     0.026 A 
HETATM   31  C   UNK N   1      36.362  13.078  11.679  0.00  0.00     0.039 A 
ENDBRANCH  24  25
ENDBRANCH  22  24
ENDBRANCH   1  20
TORSDOF 6
ENDMDL
MODEL 2
REMARK VINA RESULT:      -7.9      4.307     10.790
REMARK  6 active torsions:
REMARK  status: ('A' for Active; 'I' for Inactive)
REMARK    1  A    between atoms: C_3  and  N_2 
REMARK       I    between atoms: N_2  and  C_22 
REMARK    2  A    between atoms: C_6  and  C_9 
REMARK    3  A    between atoms: C_12  and  C_13 
REMARK    4  A    between atoms: C_13  and  N_14 
REMARK    5  A    between atoms: C_22  and  O_24 
REMARK    6  A    between atoms: O_24  and  C_25 
ROOT
HETATM    1  C   UNK N   1      33.008  17.223   6.689  0.00  0.00     0.089 C 
HETATM    2  C   UNK N   1      34.015  16.102   6.321  0.00  0.00     0.026 C 
HETATM    3  C   UNK N   1      34.310  15.203   7.526  0.00  0.00     0.011 C 
HETATM    4  C   UNK N   1      34.891  16.059   8.647  0.00  0.00     0.019 C 
HETATM    5  C   UNK N   1      34.550  17.561   8.596  0.00  0.00     0.011 C 
HETATM    6  C   UNK N   1      33.113  17.719   8.135  0.00  0.00     0.026 C 
ENDROOT
BRANCH   4   7
HETATM    7  C   UNK N   1      34.849  15.503  10.032  0.00  0.00    -0.054 A 
HETATM    8  C   UNK N   1      34.488  14.163  10.179  0.00  0.00     0.008 A 
HETATM    9  C   UNK N   1      34.922  13.445  11.288  0.00  0.00     0.009 A 
HETATM   10  C   UNK N   1      35.732  14.064  12.244  0.00  0.00    -0.030 A 
HETATM   11  C   UNK N   1      36.007  15.431  12.158  0.00  0.00     0.009 A 
HETATM   12  C   UNK N   1      35.564  16.151  11.054  0.00  0.00     0.008 A 
BRANCH  10  13
HETATM   13  C   UNK N   1      36.703  13.195  12.974  0.00  0.00     0.311 C 
BRANCH  13  14
HETATM   14  N   UNK N   1      36.021  12.550  14.126  0.00  0.00     0.092 N 
HETATM   15  C   UNK N   1      36.945  11.633  14.787  0.00  0.00     0.272 C 
HETATM   16  C   UNK N   1      36.212  10.854  15.890  0.00  0.00     0.030 C 
HETATM   17  C   UNK N   1      35.566  11.807  16.899  0.00  0.00     0.003 C 
HETATM   18  C   UNK N   1      34.706  12.834  16.182  0.00  0.00     0.030 C 
HETATM   19  C   UNK N   1      35.572  13.524  15.142  0.00  0.00     0.272 C 
ENDBRANCH  13  14
ENDBRANCH  10  13
ENDBRANCH   4   7
BRANCH   1  20
HETATM   20  N   UNK N   1      31.662  16.829   6.338  0.00  0.00    -0.327 N 
HETATM   21  C   UNK N   1      30.929  16.038   7.293  0.00  0.00     0.155 C 
HETATM   22  C   UNK N   1      31.025  17.308   5.229  0.00  0.00     0.368 C 
HETATM   23  O   UNK N   1      31.632  17.967   4.394  0.00  0.00    -0.238 OA
BRANCH  22  24
HETATM   24  O   UNK N   1      29.683  17.161   5.123  0.00  0.00    -0.261 OA
BRANCH  24  25
HETATM   25  C   UNK N   1      28.822  18.172   5.411  0.00  0.00     0.081 A 
HETATM   26  C   UNK N   1      28.546  18.461   6.749  0.00  0.00     0.039 A 
HETATM   27  C   UNK N   1      27.763  19.570   7.082  0.00  0.00     0.026 A 
HETATM   28  C   UNK N   1      27.244  20.393   6.078  0.00  0.00     0.034 A 
HETATM   29 Cl   UNK N   1      26.299  21.802   6.499  0.00  0.00    -0.084 Cl
HETATM   30  C   UNK N   1      27.494  20.099   4.737  0.00  0.00     0.026 A 
HETATM   31  C   UNK N   1      28.284  18.999   4.403  0.00  0.00     0.039 A 
ENDBRANCH  24  25
ENDBRANCH  22  24
ENDBRANCH   1  20
TORSDOF 6
ENDMDL
MODEL 3
REMARK VINA RESULT:      -7.9      3.957     10.748
REMARK  6 active torsions:
REMARK  status: ('A' for Active; 'I' for Inactive)
REMARK    1  A    between atoms: C_3  and  N_2 
REMARK       I    between atoms: N_2  and  C_22 
REMARK    2  A    between atoms: C_6  and  C_9 
REMARK    3  A    between atoms: C_12  and  C_13 
REMARK    4  A    between atoms: C_13  and  N_14 
REMARK    5  A    between atoms: C_22  and  O_24 
REMARK    6  A    between atoms: O_24  and  C_25 
ROOT
HETATM    1  C   UNK N   1      35.629  15.721  10.638  0.00  0.00     0.089 C 
HETATM    2  C   UNK N   1      36.648  14.848   9.858  0.00  0.00     0.026 C 
HETATM    3  C   UNK N   1      36.497  13.367  10.214  0.00  0.00     0.011 C 
HETATM    4  C   UNK N   1      36.724  13.195  11.713  0.00  0.00     0.019 C 
HETATM    5  C   UNK N   1      36.488  14.447  12.580  0.00  0.00     0.011 C 
HETATM    6  C   UNK N   1      35.286  15.196  12.036  0.00  0.00     0.026 C 
ENDROOT
BRANCH   4   7
HETATM    7  C   UNK N   1      36.213  11.946  12.350  0.00  0.00    -0.054 A 
HETATM    8  C   UNK N   1      37.051  11.292  13.254  0.00  0.00     0.008 A 
HETATM    9  C   UNK N   1      36.506  10.489  14.251  0.00  0.00     0.009 A 
HETATM   10  C   UNK N   1      35.120  10.351  14.352  0.00  0.00    -0.030 A 
HETATM   11  C   UNK N   1      34.282  10.915  13.386  0.00  0.00     0.009 A 
HETATM   12  C   UNK N   1      34.828  11.709  12.385  0.00  0.00     0.008 A 
BRANCH  10  13
HETATM   13  C   UNK N   1      34.560  10.113  15.717  0.00  0.00     0.311 C 
BRANCH  13  14
HETATM   14  N   UNK N   1      35.170  11.071  16.675  0.00  0.00     0.092 N 
HETATM   15  C   UNK N   1      34.583  12.394  16.480  0.00  0.00     0.272 C 
HETATM   16  C   UNK N   1      35.304  13.423  17.365  0.00  0.00     0.030 C 
HETATM   17  C   UNK N   1      35.255  13.011  18.839  0.00  0.00     0.003 C 
HETATM   18  C   UNK N   1      35.752  11.585  19.007  0.00  0.00     0.030 C 
HETATM   19  C   UNK N   1      34.937  10.695  18.085  0.00  0.00     0.272 C 
ENDBRANCH  13  14
ENDBRANCH  10  13
ENDBRANCH   4   7
BRANCH   1  20
HETATM   20  N   UNK N   1      34.451  15.963   9.835  0.00  0.00    -0.327 N 
HETATM   21  C   UNK N   1      33.432  14.945   9.824  0.00  0.00     0.155 C 
HETATM   22  C   UNK N   1      34.210  17.164   9.232  0.00  0.00     0.368 C 
HETATM   23  O   UNK N   1      35.069  18.038   9.213  0.00  0.00    -0.238 OA
BRANCH  22  24
HETATM   24  O   UNK N   1      32.967  17.433   8.770  0.00  0.00    -0.261 OA
BRANCH  24  25
HETATM   25  C   UNK N   1      32.664  17.386   7.446  0.00  0.00     0.081 A 
HETATM   26  C   UNK N   1      33.688  17.566   6.514  0.00  0.00     0.039 A 
HETATM   27  C   UNK N   1      33.434  17.403   5.149  0.00  0.00     0.026 A 
HETATM   28  C   UNK N   1      32.151  17.066   4.708  0.00  0.00     0.034 A 
HETATM   29 Cl   UNK N   1      31.846  16.822   3.002  0.00  0.00    -0.084 Cl
HETATM   30  C   UNK N   1      31.115  16.907   5.628  0.00  0.00     0.026 A 
HETATM   31  C   UNK N   1      31.369  17.059   6.991  0.00  0.00     0.039 A 
ENDBRANCH  24  25
ENDBRANCH  22  24
ENDBRANCH   1  20
TORSDOF 6
ENDMDL
MODEL 4
REMARK VINA RESULT:      -7.6      2.198      3.072
REMARK  6 active torsions:
REMARK  status: ('A' for Active; 'I' for Inactive)
REMARK    1  A    between atoms: C_3  and  N_2 
REMARK       I    between atoms: N_2  and  C_22 
REMARK    2  A    between atoms: C_6  and  C_9 
REMARK    3  A    between atoms: C_12  and  C_13 
REMARK    4  A    between atoms: C_13  and  N_14 
REMARK    5  A    between atoms: C_22  and  O_24 
REMARK    6  A    between atoms: O_24  and  C_25 
ROOT
HETATM    1  C   UNK N   1      34.843  16.183   8.719  0.00  0.00     0.089 C 
HETATM    2  C   UNK N   1      34.533  17.704   8.696  0.00  0.00     0.026 C 
HETATM    3  C   UNK N   1      33.286  18.004   7.860  0.00  0.00     0.011 C 
HETATM    4  C   UNK N   1      33.522  17.514   6.435  0.00  0.00     0.019 C 
HETATM    5  C   UNK N   1      34.579  16.405   6.267  0.00  0.00     0.011 C 
HETATM    6  C   UNK N   1      34.464  15.442   7.433  0.00  0.00     0.026 C 
ENDROOT
BRANCH   4   7
HETATM    7  C   UNK N   1      32.322  17.304   5.570  0.00  0.00    -0.054 A 
HETATM    8  C   UNK N   1      32.493  17.425   4.190  0.00  0.00     0.008 A 
HETATM    9  C   UNK N   1      31.636  16.754   3.323  0.00  0.00     0.009 A 
HETATM   10  C   UNK N   1      30.616  15.950   3.838  0.00  0.00    -0.030 A 
HETATM   11  C   UNK N   1      30.374  15.911   5.214  0.00  0.00     0.009 A 
HETATM   12  C   UNK N   1      31.225  16.589   6.079  0.00  0.00     0.008 A 
BRANCH  10  13
HETATM   13  C   UNK N   1      30.202  14.772   3.017  0.00  0.00     0.311 C 
BRANCH  13  14
HETATM   14  N   UNK N   1      28.721  14.648   3.043  0.00  0.00     0.092 N 
HETATM   15  C   UNK N   1      28.120  15.910   2.619  0.00  0.00     0.272 C 
HETATM   16  C   UNK N   1      26.593  15.841   2.776  0.00  0.00     0.030 C 
HETATM   17  C   UNK N   1      26.011  14.663   1.991  0.00  0.00     0.003 C 
HETATM   18  C   UNK N   1      26.734  13.376   2.353  0.00  0.00     0.030 C 
HETATM   19  C   UNK N   1      28.221  13.599   2.131  0.00  0.00     0.272 C 
ENDBRANCH  13  14
ENDBRANCH  10  13
ENDBRANCH   4   7
BRANCH   1  20
HETATM   20  N   UNK N   1      34.276  15.569   9.898  0.00  0.00    -0.327 N 
HETATM   21  C   UNK N   1      33.007  14.903   9.758  0.00  0.00     0.155 C 
HETATM   22  C   UNK N   1      34.967  15.463  11.072  0.00  0.00     0.368 C 
HETATM   23  O   UNK N   1      36.040  16.036  11.221  0.00  0.00    -0.238 OA
BRANCH  22  24
HETATM   24  O   UNK N   1      34.521  14.612  12.026  0.00  0.00    -0.261 OA
BRANCH  24  25
HETATM   25  C   UNK N   1      35.334  13.692  12.607  0.00  0.00     0.081 A 
HETATM   26  C   UNK N   1      35.839  12.649  11.827  0.00  0.00     0.039 A 
HETATM   27  C   UNK N   1      36.773  11.758  12.362  0.00  0.00     0.026 A 
HETATM   28  C   UNK N   1      37.202  11.899  13.686  0.00  0.00     0.034 A 
HETATM   29 Cl   UNK N   1      38.401  10.807  14.340  0.00  0.00    -0.084 Cl
HETATM   30  C   UNK N   1      36.686  12.922  14.482  0.00  0.00     0.026 A 
HETATM   31  C   UNK N   1      35.762  13.819  13.946  0.00  0.00     0.039 A 
ENDBRANCH  24  25
ENDBRANCH  22  24
ENDBRANCH   1  20
TORSDOF 6
ENDMDL
MODEL 5
REMARK VINA RESULT:      -7.5      5.238     12.331
REMARK  6 active torsions:
REMARK  status: ('A' for Active; 'I' for Inactive)
REMARK    1  A    between atoms: C_3  and  N_2 
REMARK       I    between atoms: N_2  and  C_22 
REMARK    2  A    between atoms: C_6  and  C_9 
REMARK    3  A    between atoms: C_12  and  C_13 
REMARK    4  A    between atoms: C_13  and  N_14 
REMARK    5  A    between atoms: C_22  and  O_24 
REMARK    6  A    between atoms: O_24  and  C_25 
ROOT
HETATM    1  C   UNK N   1      36.561  14.068  12.183  0.00  0.00     0.089 C 
HETATM    2  C   UNK N   1      37.196  12.652  12.196  0.00  0.00     0.026 C 
HETATM    3  C   UNK N   1      36.506  11.743  13.216  0.00  0.00     0.011 C 
HETATM    4  C   UNK N   1      36.638  12.369  14.601  0.00  0.00     0.019 C 
HETATM    5  C   UNK N   1      36.870  13.893  14.634  0.00  0.00     0.011 C 
HETATM    6  C   UNK N   1      36.034  14.536  13.544  0.00  0.00     0.026 C 
ENDROOT
BRANCH   4   7
HETATM    7  C   UNK N   1      35.696  11.905  15.661  0.00  0.00    -0.054 A 
HETATM    8  C   UNK N   1      35.236  10.589  15.585  0.00  0.00     0.008 A 
HETATM    9  C   UNK N   1      34.825   9.929  16.738  0.00  0.00     0.009 A 
HETATM   10  C   UNK N   1      34.888  10.581  17.972  0.00  0.00    -0.030 A 
HETATM   11  C   UNK N   1      35.245  11.931  18.040  0.00  0.00     0.009 A 
HETATM   12  C   UNK N   1      35.646  12.593  16.886  0.00  0.00     0.008 A 
BRANCH  10  13
HETATM   13  C   UNK N   1      35.121   9.730  19.177  0.00  0.00     0.311 C 
BRANCH  13  14
HETATM   14  N   UNK N   1      33.861   9.620  19.957  0.00  0.00     0.092 N 
HETATM   15  C   UNK N   1      33.287   8.290  19.769  0.00  0.00     0.272 C 
HETATM   16  C   UNK N   1      31.914   8.211  20.453  0.00  0.00     0.030 C 
HETATM   17  C   UNK N   1      32.019   8.559  21.941  0.00  0.00     0.003 C 
HETATM   18  C   UNK N   1      32.733   9.889  22.124  0.00  0.00     0.030 C 
HETATM   19  C   UNK N   1      34.070   9.803  21.408  0.00  0.00     0.272 C 
ENDBRANCH  13  14
ENDBRANCH  10  13
ENDBRANCH   4   7
BRANCH   1  20
HETATM   20  N   UNK N   1      35.564  14.167  11.141  0.00  0.00    -0.327 N 
HETATM   21  C   UNK N   1      34.927  12.948  10.712  0.00  0.00     0.155 C 
HETATM   22  C   UNK N   1      35.104  15.367  10.680  0.00  0.00     0.368 C 
HETATM   23  O   UNK N   1      35.641  16.415  11.018  0.00  0.00    -0.238 OA
BRANCH  22  24
HETATM   24  O   UNK N   1      33.964  15.400   9.949  0.00  0.00    -0.261 OA
BRANCH  24  25
HETATM   25  C   UNK N   1      33.902  16.017   8.741  0.00  0.00     0.081 A 
HETATM   26  C   UNK N   1      34.397  15.353   7.617  0.00  0.00     0.039 A 
HETATM   27  C   UNK N   1      34.237  15.906   6.344  0.00  0.00     0.026 A 
HETATM   28  C   UNK N   1      33.587  17.134   6.187  0.00  0.00     0.034 A 
HETATM   29 Cl   UNK N   1      33.353  17.804   4.588  0.00  0.00    -0.084 Cl
HETATM   30  C   UNK N   1      33.109  17.819   7.304  0.00  0.00     0.026 A 
HETATM   31  C   UNK N   1      33.258  17.262   8.575  0.00  0.00     0.039 A 
ENDBRANCH  24  25
ENDBRANCH  22  24
ENDBRANCH   1  20
TORSDOF 6
ENDMDL
MODEL 6
REMARK VINA RESULT:      -7.5     13.834     16.707
REMARK  6 active torsions:
REMARK  status: ('A' for Active; 'I' for Inactive)
REMARK    1  A    between atoms: C_3  and  N_2 
REMARK       I    between atoms: N_2  and  C_22 
REMARK    2  A    between atoms: C_6  and  C_9 
REMARK    3  A    between atoms: C_12  and  C_13 
REMARK    4  A    between atoms: C_13  and  N_14 
REMARK    5  A    between atoms: C_22  and  O_24 
REMARK    6  A    between atoms: O_24  and  C_25 
ROOT
HETATM    1  C   UNK N   1      28.320  23.414  -4.214  0.00  0.00     0.089 C 
HETATM    2  C   UNK N   1      28.099  23.428  -5.750  0.00  0.00     0.026 C 
HETATM    3  C   UNK N   1      27.834  24.847  -6.260  0.00  0.00     0.011 C 
HETATM    4  C   UNK N   1      26.592  25.396  -5.564  0.00  0.00     0.019 C 
HETATM    5  C   UNK N   1      26.236  24.751  -4.210  0.00  0.00     0.011 C 
HETATM    6  C   UNK N   1      27.519  24.474  -3.450  0.00  0.00     0.026 C 
ENDROOT
BRANCH   4   7
HETATM    7  C   UNK N   1      26.395  26.876  -5.569  0.00  0.00    -0.054 A 
HETATM    8  C   UNK N   1      25.723  27.441  -4.484  0.00  0.00     0.008 A 
HETATM    9  C   UNK N   1      25.954  28.768  -4.140  0.00  0.00     0.009 A 
HETATM   10  C   UNK N   1      26.870  29.528  -4.872  0.00  0.00    -0.030 A 
HETATM   11  C   UNK N   1      27.464  29.001  -6.022  0.00  0.00     0.009 A 
HETATM   12  C   UNK N   1      27.225  27.677  -6.372  0.00  0.00     0.008 A 
BRANCH  10  13
HETATM   13  C   UNK N   1      27.595  30.609  -4.139  0.00  0.00     0.311 C 
BRANCH  13  14
HETATM   14  N   UNK N   1      28.251  30.036  -2.935  0.00  0.00     0.092 N 
HETATM   15  C   UNK N   1      29.701  30.076  -3.107  0.00  0.00     0.272 C 
HETATM   16  C   UNK N   1      30.388  29.358  -1.934  0.00  0.00     0.030 C 
HETATM   17  C   UNK N   1      29.975  29.974  -0.595  0.00  0.00     0.003 C 
HETATM   18  C   UNK N   1      28.460  30.039  -0.486  0.00  0.00     0.030 C 
HETATM   19  C   UNK N   1      27.938  30.786  -1.702  0.00  0.00     0.272 C 
ENDBRANCH  13  14
ENDBRANCH  10  13
ENDBRANCH   4   7
BRANCH   1  20
HETATM   20  N   UNK N   1      29.732  23.461  -3.905  0.00  0.00    -0.327 N 
HETATM   21  C   UNK N   1      30.297  24.741  -3.564  0.00  0.00     0.155 C 
HETATM   22  C   UNK N   1      30.490  22.333  -3.774  0.00  0.00     0.368 C 
HETATM   23  O   UNK N   1      30.036  21.235  -4.076  0.00  0.00    -0.238 OA
BRANCH  22  24
HETATM   24  O   UNK N   1      31.704  22.418  -3.181  0.00  0.00    -0.261 OA
BRANCH  24  25
HETATM   25  C   UNK N   1      32.839  22.001  -3.801  0.00  0.00     0.081 A 
HETATM   26  C   UNK N   1      33.318  22.729  -4.892  0.00  0.00     0.039 A 
HETATM   27  C   UNK N   1      34.546  22.400  -5.474  0.00  0.00     0.026 A 
HETATM   28  C   UNK N   1      35.299  21.334  -4.972  0.00  0.00     0.034 A 
HETATM   29 Cl   UNK N   1      36.853  20.950  -5.677  0.00  0.00    -0.084 Cl
HETATM   30  C   UNK N   1      34.819  20.585  -3.898  0.00  0.00     0.026 A 
HETATM   31  C   UNK N   1      33.599  20.919  -3.309  0.00  0.00     0.039 A 
ENDBRANCH  24  25
ENDBRANCH  22  24
ENDBRANCH   1  20
TORSDOF 6
ENDMDL
MODEL 7
REMARK VINA RESULT:      -7.4     14.169     17.283
REMARK  6 active torsions:
REMARK  status: ('A' for Active; 'I' for Inactive)
REMARK    1  A    between atoms: C_3  and  N_2 
REMARK       I    between atoms: N_2  and  C_22 
REMARK    2  A    between atoms: C_6  and  C_9 
REMARK    3  A    between atoms: C_12  and  C_13 
REMARK    4  A    between atoms: C_13  and  N_14 
REMARK    5  A    between atoms: C_22  and  O_24 
REMARK    6  A    between atoms: O_24  and  C_25 
ROOT
HETATM    1  C   UNK N   1      28.599  28.043  -4.338  0.00  0.00     0.089 C 
HETATM    2  C   UNK N   1      27.351  27.807  -3.445  0.00  0.00     0.026 C 
HETATM    3  C   UNK N   1      26.502  26.648  -3.974  0.00  0.00     0.011 C 
HETATM    4  C   UNK N   1      26.054  26.975  -5.395  0.00  0.00     0.019 C 
HETATM    5  C   UNK N   1      26.925  27.989  -6.161  0.00  0.00     0.011 C 
HETATM    6  C   UNK N   1      28.381  27.735  -5.823  0.00  0.00     0.026 C 
ENDROOT
BRANCH   4   7
HETATM    7  C   UNK N   1      25.597  25.841  -6.252  0.00  0.00    -0.054 A 
HETATM    8  C   UNK N   1      25.654  26.015  -7.636  0.00  0.00     0.008 A 
HETATM    9  C   UNK N   1      25.770  24.908  -8.470  0.00  0.00     0.009 A 
HETATM   10  C   UNK N   1      25.844  23.626  -7.919  0.00  0.00    -0.030 A 
HETATM   11  C   UNK N   1      25.679  23.439  -6.544  0.00  0.00     0.009 A 
HETATM   12  C   UNK N   1      25.553  24.544  -5.712  0.00  0.00     0.008 A 
BRANCH  10  13
HETATM   13  C   UNK N   1      26.625  22.605  -8.680  0.00  0.00     0.311 C 
BRANCH  13  14
HETATM   14  N   UNK N   1      27.554  21.904  -7.757  0.00  0.00     0.092 N 
HETATM   15  C   UNK N   1      28.131  20.746  -8.434  0.00  0.00     0.272 C 
HETATM   16  C   UNK N   1      28.983  19.932  -7.447  0.00  0.00     0.030 C 
HETATM   17  C   UNK N   1      30.075  20.801  -6.816  0.00  0.00     0.003 C 
HETATM   18  C   UNK N   1      29.470  22.065  -6.226  0.00  0.00     0.030 C 
HETATM   19  C   UNK N   1      28.678  22.759  -7.321  0.00  0.00     0.272 C 
ENDBRANCH  13  14
ENDBRANCH  10  13
ENDBRANCH   4   7
BRANCH   1  20
HETATM   20  N   UNK N   1      29.747  27.355  -3.793  0.00  0.00    -0.327 N 
HETATM   21  C   UNK N   1      30.602  28.090  -2.897  0.00  0.00     0.155 C 
HETATM   22  C   UNK N   1      29.950  26.016  -3.971  0.00  0.00     0.368 C 
HETATM   23  O   UNK N   1      29.247  25.374  -4.742  0.00  0.00    -0.238 OA
BRANCH  22  24
HETATM   24  O   UNK N   1      30.849  25.375  -3.188  0.00  0.00    -0.261 OA
BRANCH  24  25
HETATM   25  C   UNK N   1      31.287  24.121  -3.473  0.00  0.00     0.081 A 
HETATM   26  C   UNK N   1      32.273  23.956  -4.448  0.00  0.00     0.039 A 
HETATM   27  C   UNK N   1      32.832  22.696  -4.679  0.00  0.00     0.026 A 
HETATM   28  C   UNK N   1      32.402  21.590  -3.940  0.00  0.00     0.034 A 
HETATM   29 Cl   UNK N   1      33.133  20.022  -4.202  0.00  0.00    -0.084 Cl
HETATM   30  C   UNK N   1      31.401  21.737  -2.979  0.00  0.00     0.026 A 
HETATM   31  C   UNK N   1      30.850  22.996  -2.741  0.00  0.00     0.039 A 
ENDBRANCH  24  25
ENDBRANCH  22  24
ENDBRANCH   1  20
TORSDOF 6
ENDMDL
MODEL 8
REMARK VINA RESULT:      -7.4      1.945      2.713
REMARK  6 active torsions:
REMARK  status: ('A' for Active; 'I' for Inactive)
REMARK    1  A    between atoms: C_3  and  N_2 
REMARK       I    between atoms: N_2  and  C_22 
REMARK    2  A    between atoms: C_6  and  C_9 
REMARK    3  A    between atoms: C_12  and  C_13 
REMARK    4  A    between atoms: C_13  and  N_14 
REMARK    5  A    between atoms: C_22  and  O_24 
REMARK    6  A    between atoms: O_24  and  C_25 
ROOT
HETATM    1  C   UNK N   1      34.887  13.508   9.556  0.00  0.00     0.089 C 
HETATM    2  C   UNK N   1      35.772  14.044   8.398  0.00  0.00     0.026 C 
HETATM    3  C   UNK N   1      35.182  15.319   7.793  0.00  0.00     0.011 C 
HETATM    4  C   UNK N   1      33.785  15.011   7.262  0.00  0.00     0.019 C 
HETATM    5  C   UNK N   1      33.074  13.799   7.895  0.00  0.00     0.011 C 
HETATM    6  C   UNK N   1      33.388  13.770   9.379  0.00  0.00     0.026 C 
ENDROOT
BRANCH   4   7
HETATM    7  C   UNK N   1      32.865  16.164   7.029  0.00  0.00    -0.054 A 
HETATM    8  C   UNK N   1      32.239  16.249   5.784  0.00  0.00     0.008 A 
HETATM    9  C   UNK N   1      31.027  16.919   5.661  0.00  0.00     0.009 A 
HETATM   10  C   UNK N   1      30.432  17.494   6.788  0.00  0.00    -0.030 A 
HETATM   11  C   UNK N   1      31.105  17.505   8.013  0.00  0.00     0.009 A 
HETATM   12  C   UNK N   1      32.321  16.843   8.133  0.00  0.00     0.008 A 
BRANCH  10  13
HETATM   13  C   UNK N   1      28.940  17.567   6.804  0.00  0.00     0.311 C 
BRANCH  13  14
HETATM   14  N   UNK N   1      28.498  18.799   6.101  0.00  0.00     0.092 N 
HETATM   15  C   UNK N   1      27.678  18.435   4.949  0.00  0.00     0.272 C 
HETATM   16  C   UNK N   1      27.333  19.690   4.133  0.00  0.00     0.030 C 
HETATM   17  C   UNK N   1      26.627  20.734   5.002  0.00  0.00     0.003 C 
HETATM   18  C   UNK N   1      27.435  21.010   6.260  0.00  0.00     0.030 C 
HETATM   19  C   UNK N   1      27.679  19.682   6.957  0.00  0.00     0.272 C 
ENDBRANCH  13  14
ENDBRANCH  10  13
ENDBRANCH   4   7
BRANCH   1  20
HETATM   20  N   UNK N   1      35.383  13.978  10.830  0.00  0.00    -0.327 N 
HETATM   21  C   UNK N   1      34.870  15.231  11.323  0.00  0.00     0.155 C 
HETATM   22  C   UNK N   1      36.177  13.212  11.634  0.00  0.00     0.368 C 
HETATM   23  O   UNK N   1      36.639  12.152  11.230  0.00  0.00    -0.238 OA
BRANCH  22  24
HETATM   24  O   UNK N   1      36.344  13.568  12.930  0.00  0.00    -0.261 OA
BRANCH  24  25
HETATM   25  C   UNK N   1      35.952  12.765  13.954  0.00  0.00     0.081 A 
HETATM   26  C   UNK N   1      34.626  12.329  13.999  0.00  0.00     0.039 A 
HETATM   27  C   UNK N   1      34.221  11.406  14.967  0.00  0.00     0.026 A 
HETATM   28  C   UNK N   1      35.139  10.920  15.903  0.00  0.00     0.034 A 
HETATM   29 Cl   UNK N   1      34.638   9.735  17.088  0.00  0.00    -0.084 Cl
HETATM   30  C   UNK N   1      36.460  11.367  15.883  0.00  0.00     0.026 A 
HETATM   31  C   UNK N   1      36.869  12.280  14.910  0.00  0.00     0.039 A 
ENDBRANCH  24  25
ENDBRANCH  22  24
ENDBRANCH   1  20
TORSDOF 6
ENDMDL
MODEL 9
REMARK VINA RESULT:      -7.4      2.436      4.024
REMARK  6 active torsions:
REMARK  status: ('A' for Active; 'I' for Inactive)
REMARK    1  A    between atoms: C_3  and  N_2 
REMARK       I    between atoms: N_2  and  C_22 
REMARK    2  A    between atoms: C_6  and  C_9 
REMARK    3  A    between atoms: C_12  and  C_13 
REMARK    4  A    between atoms: C_13  and  N_14 
REMARK    5  A    between atoms: C_22  and  O_24 
REMARK    6  A    between atoms: O_24  and  C_25 
ROOT
HETATM    1  C   UNK N   1      34.825  16.148   8.628  0.00  0.00     0.089 C 
HETATM    2  C   UNK N   1      34.541  17.674   8.629  0.00  0.00     0.026 C 
HETATM    3  C   UNK N   1      33.303  18.009   7.794  0.00  0.00     0.011 C 
HETATM    4  C   UNK N   1      33.535  17.538   6.361  0.00  0.00     0.019 C 
HETATM    5  C   UNK N   1      34.573  16.414   6.179  0.00  0.00     0.011 C 
HETATM    6  C   UNK N   1      34.436  15.434   7.329  0.00  0.00     0.026 C 
ENDROOT
BRANCH   4   7
HETATM    7  C   UNK N   1      32.335  17.364   5.490  0.00  0.00    -0.054 A 
HETATM    8  C   UNK N   1      32.525  17.433   4.109  0.00  0.00     0.008 A 
HETATM    9  C   UNK N   1      31.643  16.781   3.253  0.00  0.00     0.009 A 
HETATM   10  C   UNK N   1      30.578  16.047   3.781  0.00  0.00    -0.030 A 
HETATM   11  C   UNK N   1      30.320  16.063   5.154  0.00  0.00     0.009 A 
HETATM   12  C   UNK N   1      31.196  16.723   6.008  0.00  0.00     0.008 A 
BRANCH  10  13
HETATM   13  C   UNK N   1      30.111  14.867   2.991  0.00  0.00     0.311 C 
BRANCH  13  14
HETATM   14  N   UNK N   1      30.220  13.641   3.823  0.00  0.00     0.092 N 
HETATM   15  C   UNK N   1      29.105  12.748   3.520  0.00  0.00     0.272 C 
HETATM   16  C   UNK N   1      29.126  11.542   4.473  0.00  0.00     0.030 C 
HETATM   17  C   UNK N   1      30.463  10.801   4.393  0.00  0.00     0.003 C 
HETATM   18  C   UNK N   1      31.618  11.770   4.586  0.00  0.00     0.030 C 
HETATM   19  C   UNK N   1      31.464  12.887   3.569  0.00  0.00     0.272 C 
ENDBRANCH  13  14
ENDBRANCH  10  13
ENDBRANCH   4   7
BRANCH   1  20
HETATM   20  N   UNK N   1      34.243  15.524   9.796  0.00  0.00    -0.327 N 
HETATM   21  C   UNK N   1      32.977  14.856   9.633  0.00  0.00     0.155 C 
HETATM   22  C   UNK N   1      34.916  15.413  10.978  0.00  0.00     0.368 C 
HETATM   23  O   UNK N   1      35.985  15.988  11.146  0.00  0.00    -0.238 OA
BRANCH  22  24
HETATM   24  O   UNK N   1      34.460  14.555  11.920  0.00  0.00    -0.261 OA
BRANCH  24  25
HETATM   25  C   UNK N   1      35.275  13.659  12.535  0.00  0.00     0.081 A 
HETATM   26  C   UNK N   1      35.763  12.577  11.800  0.00  0.00     0.039 A 
HETATM   27  C   UNK N   1      36.699  11.706  12.364  0.00  0.00     0.026 A 
HETATM   28  C   UNK N   1      37.147  11.908  13.673  0.00  0.00     0.034 A 
HETATM   29 Cl   UNK N   1      38.348  10.840  14.364  0.00  0.00    -0.084 Cl
HETATM   30  C   UNK N   1      36.648  12.972  14.426  0.00  0.00     0.026 A 
HETATM   31  C   UNK N   1      35.722  13.847  13.859  0.00  0.00     0.039 A 
ENDBRANCH  24  25
ENDBRANCH  22  24
ENDBRANCH   1  20
TORSDOF 6
ENDMDL
