MODEL 1
REMARK VINA RESULT:      -7.3      0.000      0.000
REMARK  15 active torsions:
REMARK  status: ('A' for Active; 'I' for Inactive)
REMARK    1  A    between atoms: C_4  and  C_1 
REMARK    2  A    between atoms: O_30  and  C_1 
REMARK    3  A    between atoms: P_33  and  C_3 
REMARK    4  A    between atoms: P_34  and  C_3 
REMARK    5  A    between atoms: C_6  and  O_20 
REMARK    6  A    between atoms: C_7  and  O_21 
REMARK    7  A    between atoms: O_22  and  C_9 
REMARK    8  A    between atoms: C_10  and  N_19 
REMARK       I    between atoms: N_12  and  C_11 
REMARK    9  A    between atoms: P_33  and  O_23 
REMARK   10  A    between atoms: P_34  and  O_25 
REMARK   11  A    between atoms: P_35  and  O_27 
REMARK   12  A    between atoms: P_35  and  O_28 
REMARK   13  A    between atoms: P_33  and  O_30 
REMARK   14  A    between atoms: P_34  and  O_32 
REMARK   15  A    between atoms: P_35  and  O_32 
ROOT
HETATM    1  C   UNK N   1      22.879  14.915   6.397  0.00  0.00     0.179 C 
HETATM    2  C   UNK N   1      22.198  13.648   5.821  0.00  0.00     0.182 C 
HETATM    3  C   UNK N   1      22.337  12.654   6.994  0.00  0.00     0.198 C 
HETATM    4  C   UNK N   1      22.809  13.574   8.113  0.00  0.00     0.262 C 
HETATM    5  O   UNK N   1      23.677  14.488   7.477  0.00  0.00    -0.353 OA
ENDROOT
BRANCH   1   6
HETATM    6  C   UNK N   1      23.570  15.990   5.520  0.00  0.00     0.213 C 
BRANCH   6   7
HETATM    7  O   UNK N   1      23.080  17.314   5.416  0.00  0.00    -0.316 OA
BRANCH   7   8
HETATM    8  P   UNK N   1      21.485  17.450   6.098  0.00  0.00     0.249 P 
HETATM    9  O   UNK N   1      21.345  18.885   6.676  0.00  0.00    -0.653 OA
BRANCH   8  10
HETATM   10  C   UNK N   1      21.086  18.714   4.761  0.00  0.00     0.250 C 
BRANCH  10  11
HETATM   11  P   UNK N   1      20.556  18.228   3.041  0.00  0.00     0.258 P 
HETATM   12  O   UNK N   1      20.923  19.277   1.957  0.00  0.00    -0.653 OA
BRANCH  11  13
HETATM   13  O   UNK N   1      18.843  17.969   2.924  0.00  0.00    -0.328 OA
HETATM   14  H   UNK N   1      18.042  18.240   3.399  0.00  0.00     0.220 HD
ENDBRANCH  11  13
BRANCH  11  15
HETATM   15  O   UNK N   1      21.439  16.780   2.607  0.00  0.00    -0.218 OA
BRANCH  15  16
HETATM   16  P   UNK N   1      20.601  15.932   1.339  0.00  0.00     0.398 P 
HETATM   17  O   UNK N   1      21.568  14.911   0.682  0.00  0.00    -0.631 OA
BRANCH  16  18
HETATM   18  O   UNK N   1      20.168  17.054   0.087  0.00  0.00    -0.307 OA
HETATM   19  H   UNK N   1      19.648  16.869  -0.711  0.00  0.00     0.222 HD
ENDBRANCH  16  18
BRANCH  16  20
HETATM   20  O   UNK N   1      19.196  15.089   1.911  0.00  0.00    -0.307 OA
HETATM   21  H   UNK N   1      18.498  15.057   2.584  0.00  0.00     0.222 HD
ENDBRANCH  16  20
ENDBRANCH  15  16
ENDBRANCH  11  15
ENDBRANCH  10  11
ENDBRANCH   8  10
BRANCH   8  22
HETATM   22  O   UNK N   1      20.227  16.913   5.035  0.00  0.00    -0.329 OA
HETATM   23  H   UNK N   1      19.306  17.189   5.160  0.00  0.00     0.220 HD
ENDBRANCH   8  22
ENDBRANCH   7   8
ENDBRANCH   6   7
ENDBRANCH   1   6
BRANCH   2  24
HETATM   24  O   UNK N   1      20.866  13.925   5.496  0.00  0.00    -0.390 OA
HETATM   25  H   UNK N   1      20.353  14.074   4.686  0.00  0.00     0.210 HD
ENDBRANCH   2  24
BRANCH   3  26
HETATM   26  O   UNK N   1      21.140  11.998   7.296  0.00  0.00    -0.388 OA
HETATM   27  H   UNK N   1      20.689  12.124   8.146  0.00  0.00     0.210 HD
ENDBRANCH   3  26
BRANCH   4  28
HETATM   28  N   UNK N   1      23.409  12.970   9.306  0.00  0.00    -0.297 N 
HETATM   29  C   UNK N   1      24.723  13.008   9.662  0.00  0.00     0.188 A 
HETATM   30  N   UNK N   1      24.900  12.597  10.950  0.00  0.00    -0.346 N 
HETATM   31  C   UNK N   1      23.655  12.305  11.379  0.00  0.00     0.130 A 
ATOM     32  HN  UNK N   1      25.774  12.527  11.471  1.00  0.00     0.167 HD
HETATM   33  C   UNK N   1      22.774  12.504  10.383  0.00  0.00     0.157 A 
HETATM   34  C   UNK N   1      23.212  11.924  12.634  0.00  0.00     0.186 A 
HETATM   35  N   UNK N   1      21.442  12.308  10.540  0.00  0.00    -0.174 N 
HETATM   36  C   UNK N   1      20.994  11.876  11.754  0.00  0.00     0.679 A 
HETATM   37  H   UNK N   1      20.815  12.473   9.799  0.00  0.00     0.186 HD
HETATM   38  N   UNK N   1      19.748  11.642  11.924  0.00  0.00    -0.234 N 
HETATM   39  N   UNK N   1      21.870  11.704  12.799  0.00  0.00    -0.168 N 
HETATM   40  H   UNK N   1      19.126  11.699  11.163  0.00  0.00     0.174 HD
ATOM     41  HN  UNK N   1      19.397  11.397  12.850  1.00  0.00     0.174 HD
ATOM     42  HN  UNK N   1      21.517  11.409  13.708  1.00  0.00     0.186 HD
BRANCH  34  43
HETATM   43  O   UNK N   1      24.056  11.805  13.672  0.00  0.00    -0.344 OA
HETATM   44  H   UNK N   1      24.894  11.403  13.556  0.00  0.00     0.219 HD
ENDBRANCH  34  43
ENDBRANCH   4  28
TORSDOF 15
ENDMDL
MODEL 2
REMARK VINA RESULT:      -7.2      4.609      8.041
REMARK  15 active torsions:
REMARK  status: ('A' for Active; 'I' for Inactive)
REMARK    1  A    between atoms: C_4  and  C_1 
REMARK    2  A    between atoms: O_30  and  C_1 
REMARK    3  A    between atoms: P_33  and  C_3 
REMARK    4  A    between atoms: P_34  and  C_3 
REMARK    5  A    between atoms: C_6  and  O_20 
REMARK    6  A    between atoms: C_7  and  O_21 
REMARK    7  A    between atoms: O_22  and  C_9 
REMARK    8  A    between atoms: C_10  and  N_19 
REMARK       I    between atoms: N_12  and  C_11 
REMARK    9  A    between atoms: P_33  and  O_23 
REMARK   10  A    between atoms: P_34  and  O_25 
REMARK   11  A    between atoms: P_35  and  O_27 
REMARK   12  A    between atoms: P_35  and  O_28 
REMARK   13  A    between atoms: P_33  and  O_30 
REMARK   14  A    between atoms: P_34  and  O_32 
REMARK   15  A    between atoms: P_35  and  O_32 
ROOT
HETATM    1  C   UNK N   1      24.849  15.799   5.456  0.00  0.00     0.179 C 
HETATM    2  C   UNK N   1      26.132  16.666   5.406  0.00  0.00     0.182 C 
HETATM    3  C   UNK N   1      25.584  18.011   4.882  0.00  0.00     0.198 C 
HETATM    4  C   UNK N   1      24.081  17.783   4.984  0.00  0.00     0.262 C 
HETATM    5  O   UNK N   1      23.903  16.430   4.623  0.00  0.00    -0.353 OA
ENDROOT
BRANCH   1   6
HETATM    6  C   UNK N   1      24.850  14.255   5.312  0.00  0.00     0.213 C 
BRANCH   6   7
HETATM    7  O   UNK N   1      23.748  13.456   5.697  0.00  0.00    -0.316 OA
BRANCH   7   8
HETATM    8  P   UNK N   1      24.119  12.508   7.108  0.00  0.00     0.249 P 
HETATM    9  O   UNK N   1      25.071  13.351   8.000  0.00  0.00    -0.653 OA
BRANCH   8  10
HETATM   10  C   UNK N   1      23.185  13.779   8.135  0.00  0.00     0.250 C 
BRANCH  10  11
HETATM   11  P   UNK N   1      21.525  14.460   7.628  0.00  0.00     0.258 P 
HETATM   12  O   UNK N   1      20.381  13.411   7.674  0.00  0.00    -0.653 OA
BRANCH  11  13
HETATM   13  O   UNK N   1      21.540  15.109   6.017  0.00  0.00    -0.328 OA
HETATM   14  H   UNK N   1      20.952  15.630   5.447  0.00  0.00     0.220 HD
ENDBRANCH  11  13
BRANCH  11  15
HETATM   15  O   UNK N   1      21.080  15.688   8.793  0.00  0.00    -0.218 OA
BRANCH  15  16
HETATM   16  P   UNK N   1      20.023  16.855   8.051  0.00  0.00     0.398 P 
HETATM   17  O   UNK N   1      20.868  17.850   7.212  0.00  0.00    -0.631 OA
BRANCH  16  18
HETATM   18  O   UNK N   1      19.255  17.802   9.286  0.00  0.00    -0.307 OA
HETATM   19  H   UNK N   1      18.352  17.699   9.626  0.00  0.00     0.222 HD
ENDBRANCH  16  18
BRANCH  16  20
HETATM   20  O   UNK N   1      18.833  16.121   7.022  0.00  0.00    -0.307 OA
HETATM   21  H   UNK N   1      18.119  15.468   6.960  0.00  0.00     0.222 HD
ENDBRANCH  16  20
ENDBRANCH  15  16
ENDBRANCH  11  15
ENDBRANCH  10  11
ENDBRANCH   8  10
BRANCH   8  22
HETATM   22  O   UNK N   1      22.722  11.835   7.880  0.00  0.00    -0.329 OA
HETATM   23  H   UNK N   1      21.855  11.833   7.445  0.00  0.00     0.220 HD
ENDBRANCH   8  22
ENDBRANCH   7   8
ENDBRANCH   6   7
ENDBRANCH   1   6
BRANCH   2  24
HETATM   24  O   UNK N   1      26.694  16.766   6.683  0.00  0.00    -0.390 OA
HETATM   25  H   UNK N   1      27.578  16.691   7.073  0.00  0.00     0.210 HD
ENDBRANCH   2  24
BRANCH   3  26
HETATM   26  O   UNK N   1      26.021  19.106   5.634  0.00  0.00    -0.388 OA
HETATM   27  H   UNK N   1      25.455  19.879   5.788  0.00  0.00     0.210 HD
ENDBRANCH   3  26
BRANCH   4  28
HETATM   28  N   UNK N   1      23.188  18.681   4.246  0.00  0.00    -0.297 N 
HETATM   29  C   UNK N   1      23.547  19.801   3.561  0.00  0.00     0.188 A 
HETATM   30  N   UNK N   1      22.532  20.244   2.765  0.00  0.00    -0.346 N 
HETATM   31  C   UNK N   1      21.534  19.362   2.980  0.00  0.00     0.130 A 
ATOM     32  HN  UNK N   1      22.528  21.056   2.149  1.00  0.00     0.167 HD
HETATM   33  C   UNK N   1      21.925  18.447   3.886  0.00  0.00     0.157 A 
HETATM   34  C   UNK N   1      20.292  19.258   2.378  0.00  0.00     0.186 A 
HETATM   35  N   UNK N   1      21.126  17.425   4.278  0.00  0.00    -0.174 N 
HETATM   36  C   UNK N   1      19.876  17.342   3.738  0.00  0.00     0.679 A 
HETATM   37  H   UNK N   1      21.439  16.761   4.934  0.00  0.00     0.186 HD
HETATM   38  N   UNK N   1      19.082  16.413   4.116  0.00  0.00    -0.234 N 
HETATM   39  N   UNK N   1      19.469  18.241   2.781  0.00  0.00    -0.168 N 
HETATM   40  H   UNK N   1      19.342  15.807   4.847  0.00  0.00     0.174 HD
ATOM     41  HN  UNK N   1      18.178  16.298   3.659  1.00  0.00     0.174 HD
ATOM     42  HN  UNK N   1      18.543  18.148   2.365  1.00  0.00     0.186 HD
BRANCH  34  43
HETATM   43  O   UNK N   1      19.909  20.102   1.406  0.00  0.00    -0.344 OA
HETATM   44  H   UNK N   1      20.398  20.882   1.237  0.00  0.00     0.219 HD
ENDBRANCH  34  43
ENDBRANCH   4  28
TORSDOF 15
ENDMDL
MODEL 3
REMARK VINA RESULT:      -7.1      9.145     12.881
REMARK  15 active torsions:
REMARK  status: ('A' for Active; 'I' for Inactive)
REMARK    1  A    between atoms: C_4  and  C_1 
REMARK    2  A    between atoms: O_30  and  C_1 
REMARK    3  A    between atoms: P_33  and  C_3 
REMARK    4  A    between atoms: P_34  and  C_3 
REMARK    5  A    between atoms: C_6  and  O_20 
REMARK    6  A    between atoms: C_7  and  O_21 
REMARK    7  A    between atoms: O_22  and  C_9 
REMARK    8  A    between atoms: C_10  and  N_19 
REMARK       I    between atoms: N_12  and  C_11 
REMARK    9  A    between atoms: P_33  and  O_23 
REMARK   10  A    between atoms: P_34  and  O_25 
REMARK   11  A    between atoms: P_35  and  O_27 
REMARK   12  A    between atoms: P_35  and  O_28 
REMARK   13  A    between atoms: P_33  and  O_30 
REMARK   14  A    between atoms: P_34  and  O_32 
REMARK   15  A    between atoms: P_35  and  O_32 
ROOT
HETATM    1  C   UNK N   1      29.915  16.978   7.347  0.00  0.00     0.179 C 
HETATM    2  C   UNK N   1      29.527  17.844   8.573  0.00  0.00     0.182 C 
HETATM    3  C   UNK N   1      28.558  18.867   7.942  0.00  0.00     0.198 C 
HETATM    4  C   UNK N   1      28.341  18.263   6.560  0.00  0.00     0.262 C 
HETATM    5  O   UNK N   1      29.601  17.737   6.202  0.00  0.00    -0.353 OA
ENDROOT
BRANCH   1   6
HETATM    6  C   UNK N   1      31.263  16.222   7.224  0.00  0.00     0.213 C 
BRANCH   6   7
HETATM    7  O   UNK N   1      32.190  16.145   8.291  0.00  0.00    -0.316 OA
BRANCH   7   8
HETATM    8  P   UNK N   1      33.488  17.285   8.080  0.00  0.00     0.249 P 
HETATM    9  O   UNK N   1      34.175  17.471   9.460  0.00  0.00    -0.653 OA
BRANCH   8  10
HETATM   10  C   UNK N   1      34.695  15.891   8.462  0.00  0.00     0.250 C 
BRANCH  10  11
HETATM   11  P   UNK N   1      34.578  14.854  10.008  0.00  0.00     0.258 P 
HETATM   12  O   UNK N   1      34.546  13.327   9.731  0.00  0.00    -0.653 OA
BRANCH  11  13
HETATM   13  O   UNK N   1      33.161  15.219  10.945  0.00  0.00    -0.328 OA
HETATM   14  H   UNK N   1      32.680  14.839  11.697  0.00  0.00     0.220 HD
ENDBRANCH  11  13
BRANCH  11  15
HETATM   15  O   UNK N   1      36.033  15.131  10.940  0.00  0.00    -0.218 OA
BRANCH  15  16
HETATM   16  P   UNK N   1      36.077  14.052  12.305  0.00  0.00     0.398 P 
HETATM   17  O   UNK N   1      36.923  12.803  11.942  0.00  0.00    -0.631 OA
BRANCH  16  18
HETATM   18  O   UNK N   1      34.475  13.467  12.626  0.00  0.00    -0.307 OA
HETATM   19  H   UNK N   1      33.928  12.910  12.050  0.00  0.00     0.222 HD
ENDBRANCH  16  18
BRANCH  16  20
HETATM   20  O   UNK N   1      36.747  14.794  13.724  0.00  0.00    -0.307 OA
HETATM   21  H   UNK N   1      36.556  15.229  14.569  0.00  0.00     0.222 HD
ENDBRANCH  16  20
ENDBRANCH  15  16
ENDBRANCH  11  15
ENDBRANCH  10  11
ENDBRANCH   8  10
BRANCH   8  22
HETATM   22  O   UNK N   1      34.522  16.920   6.739  0.00  0.00    -0.329 OA
HETATM   23  H   UNK N   1      35.222  17.530   6.458  0.00  0.00     0.220 HD
ENDBRANCH   8  22
ENDBRANCH   7   8
ENDBRANCH   6   7
ENDBRANCH   1   6
BRANCH   2  24
HETATM   24  O   UNK N   1      28.920  17.048   9.549  0.00  0.00    -0.390 OA
HETATM   25  H   UNK N   1      28.215  16.382   9.581  0.00  0.00     0.210 HD
ENDBRANCH   2  24
BRANCH   3  26
HETATM   26  O   UNK N   1      27.371  19.010   8.667  0.00  0.00    -0.388 OA
HETATM   27  H   UNK N   1      26.708  19.679   8.434  0.00  0.00     0.210 HD
ENDBRANCH   3  26
BRANCH   4  28
HETATM   28  N   UNK N   1      27.771  19.111   5.511  0.00  0.00    -0.297 N 
HETATM   29  C   UNK N   1      28.460  19.874   4.617  0.00  0.00     0.188 A 
HETATM   30  N   UNK N   1      27.652  20.314   3.611  0.00  0.00    -0.346 N 
HETATM   31  C   UNK N   1      26.442  19.800   3.910  0.00  0.00     0.130 A 
ATOM     32  HN  UNK N   1      27.905  20.899   2.815  1.00  0.00     0.167 HD
HETATM   33  C   UNK N   1      26.514  19.105   5.060  0.00  0.00     0.157 A 
HETATM   34  C   UNK N   1      25.255  19.842   3.197  0.00  0.00     0.186 A 
HETATM   35  N   UNK N   1      25.446  18.460   5.589  0.00  0.00    -0.174 N 
HETATM   36  C   UNK N   1      24.255  18.542   4.929  0.00  0.00     0.679 A 
HETATM   37  H   UNK N   1      25.528  17.949   6.426  0.00  0.00     0.186 HD
HETATM   38  N   UNK N   1      23.217  17.978   5.423  0.00  0.00    -0.234 N 
HETATM   39  N   UNK N   1      24.165  19.210   3.733  0.00  0.00    -0.168 N 
HETATM   40  H   UNK N   1      23.260  17.555   6.311  0.00  0.00     0.174 HD
ATOM     41  HN  UNK N   1      22.345  17.967   4.896  1.00  0.00     0.174 HD
ATOM     42  HN  UNK N   1      23.274  19.237   3.237  1.00  0.00     0.186 HD
BRANCH  34  43
HETATM   43  O   UNK N   1      25.174  20.450   2.002  0.00  0.00    -0.344 OA
HETATM   44  H   UNK N   1      24.350  20.758   1.683  0.00  0.00     0.219 HD
ENDBRANCH  34  43
ENDBRANCH   4  28
TORSDOF 15
ENDMDL
MODEL 4
REMARK VINA RESULT:      -7.1      8.988     12.265
REMARK  15 active torsions:
REMARK  status: ('A' for Active; 'I' for Inactive)
REMARK    1  A    between atoms: C_4  and  C_1 
REMARK    2  A    between atoms: O_30  and  C_1 
REMARK    3  A    between atoms: P_33  and  C_3 
REMARK    4  A    between atoms: P_34  and  C_3 
REMARK    5  A    between atoms: C_6  and  O_20 
REMARK    6  A    between atoms: C_7  and  O_21 
REMARK    7  A    between atoms: O_22  and  C_9 
REMARK    8  A    between atoms: C_10  and  N_19 
REMARK       I    between atoms: N_12  and  C_11 
REMARK    9  A    between atoms: P_33  and  O_23 
REMARK   10  A    between atoms: P_34  and  O_25 
REMARK   11  A    between atoms: P_35  and  O_27 
REMARK   12  A    between atoms: P_35  and  O_28 
REMARK   13  A    between atoms: P_33  and  O_30 
REMARK   14  A    between atoms: P_34  and  O_32 
REMARK   15  A    between atoms: P_35  and  O_32 
ROOT
HETATM    1  C   UNK N   1      30.777  17.952   8.419  0.00  0.00     0.179 C 
HETATM    2  C   UNK N   1      29.719  18.867   9.087  0.00  0.00     0.182 C 
HETATM    3  C   UNK N   1      28.409  18.344   8.461  0.00  0.00     0.198 C 
HETATM    4  C   UNK N   1      28.891  17.071   7.775  0.00  0.00     0.262 C 
HETATM    5  O   UNK N   1      30.169  17.402   7.273  0.00  0.00    -0.353 OA
ENDROOT
BRANCH   1   6
HETATM    6  C   UNK N   1      32.249  18.376   8.181  0.00  0.00     0.213 C 
BRANCH   6   7
HETATM    7  O   UNK N   1      33.295  17.434   8.035  0.00  0.00    -0.316 OA
BRANCH   7   8
HETATM    8  P   UNK N   1      33.583  17.066   6.359  0.00  0.00     0.249 P 
HETATM    9  O   UNK N   1      34.941  16.319   6.270  0.00  0.00    -0.653 OA
BRANCH   8  10
HETATM   10  C   UNK N   1      33.415  15.242   6.791  0.00  0.00     0.250 C 
BRANCH  10  11
HETATM   11  P   UNK N   1      33.686  14.587   8.516  0.00  0.00     0.258 P 
HETATM   12  O   UNK N   1      33.455  13.057   8.644  0.00  0.00    -0.653 OA
BRANCH  11  13
HETATM   13  O   UNK N   1      32.648  15.347   9.683  0.00  0.00    -0.328 OA
HETATM   14  H   UNK N   1      31.709  15.330   9.928  0.00  0.00     0.220 HD
ENDBRANCH  11  13
BRANCH  11  15
HETATM   15  O   UNK N   1      35.370  14.841   8.918  0.00  0.00    -0.218 OA
BRANCH  15  16
HETATM   16  P   UNK N   1      35.498  15.659  10.449  0.00  0.00     0.398 P 
HETATM   17  O   UNK N   1      34.799  14.807  11.543  0.00  0.00    -0.631 OA
BRANCH  16  18
HETATM   18  O   UNK N   1      34.621  17.155  10.376  0.00  0.00    -0.307 OA
HETATM   19  H   UNK N   1      34.994  18.050  10.331  0.00  0.00     0.222 HD
ENDBRANCH  16  18
BRANCH  16  20
HETATM   20  O   UNK N   1      37.143  15.941  10.923  0.00  0.00    -0.307 OA
HETATM   21  H   UNK N   1      37.922  15.580  11.374  0.00  0.00     0.222 HD
ENDBRANCH  16  20
ENDBRANCH  15  16
ENDBRANCH  11  15
ENDBRANCH  10  11
ENDBRANCH   8  10
BRANCH   8  22
HETATM   22  O   UNK N   1      32.232  16.322   5.570  0.00  0.00    -0.329 OA
HETATM   23  H   UNK N   1      32.159  16.301   4.603  0.00  0.00     0.220 HD
ENDBRANCH   8  22
ENDBRANCH   7   8
ENDBRANCH   6   7
ENDBRANCH   1   6
BRANCH   2  24
HETATM   24  O   UNK N   1      29.760  18.713  10.476  0.00  0.00    -0.390 OA
HETATM   25  H   UNK N   1      30.205  18.128  11.109  0.00  0.00     0.210 HD
ENDBRANCH   2  24
BRANCH   3  26
HETATM   26  O   UNK N   1      27.410  18.106   9.409  0.00  0.00    -0.388 OA
HETATM   27  H   UNK N   1      26.525  17.801   9.154  0.00  0.00     0.210 HD
ENDBRANCH   3  26
BRANCH   4  28
HETATM   28  N   UNK N   1      28.032  16.460   6.757  0.00  0.00    -0.297 N 
HETATM   29  C   UNK N   1      26.728  16.098   6.905  0.00  0.00     0.188 A 
HETATM   30  N   UNK N   1      26.149  15.821   5.702  0.00  0.00    -0.346 N 
HETATM   31  C   UNK N   1      27.137  16.023   4.806  0.00  0.00     0.130 A 
ATOM     32  HN  UNK N   1      25.189  15.528   5.521  1.00  0.00     0.167 HD
HETATM   33  C   UNK N   1      28.265  16.378   5.446  0.00  0.00     0.157 A 
HETATM   34  C   UNK N   1      27.106  15.980   3.422  0.00  0.00     0.186 A 
HETATM   35  N   UNK N   1      29.415  16.665   4.788  0.00  0.00    -0.174 N 
HETATM   36  C   UNK N   1      29.418  16.569   3.427  0.00  0.00     0.679 A 
HETATM   37  H   UNK N   1      30.225  16.934   5.279  0.00  0.00     0.186 HD
HETATM   38  N   UNK N   1      30.499  16.794   2.779  0.00  0.00    -0.234 N 
HETATM   39  N   UNK N   1      28.268  16.248   2.748  0.00  0.00    -0.168 N 
HETATM   40  H   UNK N   1      31.340  16.959   3.262  0.00  0.00     0.174 HD
ATOM     41  HN  UNK N   1      30.488  16.803   1.759  1.00  0.00     0.174 HD
ATOM     42  HN  UNK N   1      28.279  16.209   1.730  1.00  0.00     0.186 HD
BRANCH  34  43
HETATM   43  O   UNK N   1      25.973  15.717   2.751  0.00  0.00    -0.344 OA
HETATM   44  H   UNK N   1      25.705  16.266   2.042  0.00  0.00     0.219 HD
ENDBRANCH  34  43
ENDBRANCH   4  28
TORSDOF 15
ENDMDL
MODEL 5
REMARK VINA RESULT:      -7.0      5.268      8.272
REMARK  15 active torsions:
REMARK  status: ('A' for Active; 'I' for Inactive)
REMARK    1  A    between atoms: C_4  and  C_1 
REMARK    2  A    between atoms: O_30  and  C_1 
REMARK    3  A    between atoms: P_33  and  C_3 
REMARK    4  A    between atoms: P_34  and  C_3 
REMARK    5  A    between atoms: C_6  and  O_20 
REMARK    6  A    between atoms: C_7  and  O_21 
REMARK    7  A    between atoms: O_22  and  C_9 
REMARK    8  A    between atoms: C_10  and  N_19 
REMARK       I    between atoms: N_12  and  C_11 
REMARK    9  A    between atoms: P_33  and  O_23 
REMARK   10  A    between atoms: P_34  and  O_25 
REMARK   11  A    between atoms: P_35  and  O_27 
REMARK   12  A    between atoms: P_35  and  O_28 
REMARK   13  A    between atoms: P_33  and  O_30 
REMARK   14  A    between atoms: P_34  and  O_32 
REMARK   15  A    between atoms: P_35  and  O_32 
ROOT
HETATM    1  C   UNK N   1      24.478  15.890   5.120  0.00  0.00     0.179 C 
HETATM    2  C   UNK N   1      25.866  16.546   5.328  0.00  0.00     0.182 C 
HETATM    3  C   UNK N   1      25.600  17.999   4.880  0.00  0.00     0.198 C 
HETATM    4  C   UNK N   1      24.081  18.003   4.760  0.00  0.00     0.262 C 
HETATM    5  O   UNK N   1      23.764  16.729   4.240  0.00  0.00    -0.353 OA
ENDROOT
BRANCH   1   6
HETATM    6  C   UNK N   1      24.278  14.383   4.817  0.00  0.00     0.213 C 
BRANCH   6   7
HETATM    7  O   UNK N   1      23.044  13.724   5.030  0.00  0.00    -0.316 OA
BRANCH   7   8
HETATM    8  P   UNK N   1      22.088  13.692   3.576  0.00  0.00     0.249 P 
HETATM    9  O   UNK N   1      21.411  12.297   3.491  0.00  0.00    -0.653 OA
BRANCH   8  10
HETATM   10  C   UNK N   1      20.552  13.585   4.658  0.00  0.00     0.250 C 
BRANCH  10  11
HETATM   11  P   UNK N   1      20.050  14.945   5.832  0.00  0.00     0.258 P 
HETATM   12  O   UNK N   1      18.681  15.591   5.487  0.00  0.00    -0.653 OA
BRANCH  11  13
HETATM   13  O   UNK N   1      21.211  16.236   5.884  0.00  0.00    -0.328 OA
HETATM   14  H   UNK N   1      21.728  16.710   6.554  0.00  0.00     0.220 HD
ENDBRANCH  11  13
BRANCH  11  15
HETATM   15  O   UNK N   1      19.843  14.226   7.414  0.00  0.00    -0.218 OA
BRANCH  15  16
HETATM   16  P   UNK N   1      21.065  14.822   8.501  0.00  0.00     0.398 P 
HETATM   17  O   UNK N   1      20.887  14.149   9.888  0.00  0.00    -0.631 OA
BRANCH  16  18
HETATM   18  O   UNK N   1      20.825  16.521   8.760  0.00  0.00    -0.307 OA
HETATM   19  H   UNK N   1      21.182  17.251   8.229  0.00  0.00     0.222 HD
ENDBRANCH  16  18
BRANCH  16  20
HETATM   20  O   UNK N   1      22.675  14.517   7.929  0.00  0.00    -0.307 OA
HETATM   21  H   UNK N   1      23.217  14.140   7.219  0.00  0.00     0.222 HD
ENDBRANCH  16  20
ENDBRANCH  15  16
ENDBRANCH  11  15
ENDBRANCH  10  11
ENDBRANCH   8  10
BRANCH   8  22
HETATM   22  O   UNK N   1      21.055  15.071   3.394  0.00  0.00    -0.329 OA
HETATM   23  H   UNK N   1      20.921  15.702   4.118  0.00  0.00     0.220 HD
ENDBRANCH   8  22
ENDBRANCH   7   8
ENDBRANCH   6   7
ENDBRANCH   1   6
BRANCH   2  24
HETATM   24  O   UNK N   1      26.245  16.450   6.671  0.00  0.00    -0.390 OA
HETATM   25  H   UNK N   1      26.263  15.760   7.352  0.00  0.00     0.210 HD
ENDBRANCH   2  24
BRANCH   3  26
HETATM   26  O   UNK N   1      26.077  18.945   5.792  0.00  0.00    -0.388 OA
HETATM   27  H   UNK N   1      25.643  19.805   5.910  0.00  0.00     0.210 HD
ENDBRANCH   3  26
BRANCH   4  28
HETATM   28  N   UNK N   1      23.444  19.087   4.008  0.00  0.00    -0.297 N 
HETATM   29  C   UNK N   1      24.059  20.185   3.487  0.00  0.00     0.188 A 
HETATM   30  N   UNK N   1      23.242  20.847   2.619  0.00  0.00    -0.346 N 
HETATM   31  C   UNK N   1      22.103  20.123   2.619  0.00  0.00     0.130 A 
ATOM     32  HN  UNK N   1      23.444  21.695   2.090  1.00  0.00     0.167 HD
HETATM   33  C   UNK N   1      22.222  19.090   3.471  0.00  0.00     0.157 A 
HETATM   34  C   UNK N   1      20.955  20.268   1.859  0.00  0.00     0.186 A 
HETATM   35  N   UNK N   1      21.233  18.182   3.657  0.00  0.00    -0.174 N 
HETATM   36  C   UNK N   1      20.072  18.345   2.959  0.00  0.00     0.679 A 
HETATM   37  H   UNK N   1      21.349  17.427   4.278  0.00  0.00     0.186 HD
HETATM   38  N   UNK N   1      19.103  17.529   3.142  0.00  0.00    -0.234 N 
HETATM   39  N   UNK N   1      19.941  19.369   2.053  0.00  0.00    -0.168 N 
HETATM   40  H   UNK N   1      19.166  16.834   3.837  0.00  0.00     0.174 HD
ATOM     41  HN  UNK N   1      18.265  17.597   2.566  1.00  0.00     0.174 HD
ATOM     42  HN  UNK N   1      19.078  19.460   1.518  1.00  0.00     0.186 HD
BRANCH  34  43
HETATM   43  O   UNK N   1      20.842  21.236   0.934  0.00  0.00    -0.344 OA
HETATM   44  H   UNK N   1      20.702  21.018   0.035  0.00  0.00     0.219 HD
ENDBRANCH  34  43
ENDBRANCH   4  28
TORSDOF 15
ENDMDL
MODEL 6
REMARK VINA RESULT:      -6.9      9.338     13.226
REMARK  15 active torsions:
REMARK  status: ('A' for Active; 'I' for Inactive)
REMARK    1  A    between atoms: C_4  and  C_1 
REMARK    2  A    between atoms: O_30  and  C_1 
REMARK    3  A    between atoms: P_33  and  C_3 
REMARK    4  A    between atoms: P_34  and  C_3 
REMARK    5  A    between atoms: C_6  and  O_20 
REMARK    6  A    between atoms: C_7  and  O_21 
REMARK    7  A    between atoms: O_22  and  C_9 
REMARK    8  A    between atoms: C_10  and  N_19 
REMARK       I    between atoms: N_12  and  C_11 
REMARK    9  A    between atoms: P_33  and  O_23 
REMARK   10  A    between atoms: P_34  and  O_25 
REMARK   11  A    between atoms: P_35  and  O_27 
REMARK   12  A    between atoms: P_35  and  O_28 
REMARK   13  A    between atoms: P_33  and  O_30 
REMARK   14  A    between atoms: P_34  and  O_32 
REMARK   15  A    between atoms: P_35  and  O_32 
ROOT
HETATM    1  C   UNK N   1      30.477  17.257   8.151  0.00  0.00     0.179 C 
HETATM    2  C   UNK N   1      29.783  18.407   8.924  0.00  0.00     0.182 C 
HETATM    3  C   UNK N   1      28.330  18.299   8.414  0.00  0.00     0.198 C 
HETATM    4  C   UNK N   1      28.371  16.970   7.670  0.00  0.00     0.262 C 
HETATM    5  O   UNK N   1      29.643  16.946   7.058  0.00  0.00    -0.353 OA
ENDROOT
BRANCH   1   6
HETATM    6  C   UNK N   1      31.983  17.257   7.784  0.00  0.00     0.213 C 
BRANCH   6   7
HETATM    7  O   UNK N   1      33.000  17.081   8.753  0.00  0.00    -0.316 OA
BRANCH   7   8
HETATM    8  P   UNK N   1      33.101  15.421   9.265  0.00  0.00     0.249 P 
HETATM    9  O   UNK N   1      34.191  14.731   8.401  0.00  0.00    -0.653 OA
BRANCH   8  10
HETATM   10  C   UNK N   1      34.837  15.784   9.896  0.00  0.00     0.250 C 
BRANCH  10  11
HETATM   11  P   UNK N   1      35.817  14.562  10.908  0.00  0.00     0.258 P 
HETATM   12  O   UNK N   1      37.260  14.334  10.383  0.00  0.00    -0.653 OA
BRANCH  11  13
HETATM   13  O   UNK N   1      35.059  13.000  10.975  0.00  0.00    -0.328 OA
HETATM   14  H   UNK N   1      34.451  12.522  11.560  0.00  0.00     0.220 HD
ENDBRANCH  11  13
BRANCH  11  15
HETATM   15  O   UNK N   1      36.003  15.235  12.513  0.00  0.00    -0.218 OA
BRANCH  15  16
HETATM   16  P   UNK N   1      36.323  13.963  13.657  0.00  0.00     0.398 P 
HETATM   17  O   UNK N   1      34.977  13.354  14.132  0.00  0.00    -0.631 OA
BRANCH  16  18
HETATM   18  O   UNK N   1      37.068  14.638  15.072  0.00  0.00    -0.307 OA
HETATM   19  H   UNK N   1      36.790  15.430  15.559  0.00  0.00     0.222 HD
ENDBRANCH  16  18
BRANCH  16  20
HETATM   20  O   UNK N   1      37.310  12.699  12.995  0.00  0.00    -0.307 OA
HETATM   21  H   UNK N   1      37.321  11.862  12.506  0.00  0.00     0.222 HD
ENDBRANCH  16  20
ENDBRANCH  15  16
ENDBRANCH  11  15
ENDBRANCH  10  11
ENDBRANCH   8  10
BRANCH   8  22
HETATM   22  O   UNK N   1      33.233  15.231  10.982  0.00  0.00    -0.329 OA
HETATM   23  H   UNK N   1      33.810  14.558  11.374  0.00  0.00     0.220 HD
ENDBRANCH   8  22
ENDBRANCH   7   8
ENDBRANCH   6   7
ENDBRANCH   1   6
BRANCH   2  24
HETATM   24  O   UNK N   1      29.895  18.194  10.302  0.00  0.00    -0.390 OA
HETATM   25  H   UNK N   1      30.543  17.798  10.905  0.00  0.00     0.210 HD
ENDBRANCH   2  24
BRANCH   3  26
HETATM   26  O   UNK N   1      27.388  18.317   9.447  0.00  0.00    -0.388 OA
HETATM   27  H   UNK N   1      26.436  18.260   9.271  0.00  0.00     0.210 HD
ENDBRANCH   3  26
BRANCH   4  28
HETATM   28  N   UNK N   1      27.291  16.666   6.727  0.00  0.00    -0.297 N 
HETATM   29  C   UNK N   1      26.295  15.754   6.900  0.00  0.00     0.188 A 
HETATM   30  N   UNK N   1      25.308  15.914   5.972  0.00  0.00    -0.346 N 
HETATM   31  C   UNK N   1      25.726  16.954   5.221  0.00  0.00     0.130 A 
ATOM     32  HN  UNK N   1      24.451  15.372   5.869  1.00  0.00     0.167 HD
HETATM   33  C   UNK N   1      26.923  17.380   5.662  0.00  0.00     0.157 A 
HETATM   34  C   UNK N   1      25.089  17.619   4.187  0.00  0.00     0.186 A 
HETATM   35  N   UNK N   1      27.572  18.431   5.103  0.00  0.00    -0.174 N 
HETATM   36  C   UNK N   1      26.985  19.060   4.044  0.00  0.00     0.679 A 
HETATM   37  H   UNK N   1      28.443  18.731   5.451  0.00  0.00     0.186 HD
HETATM   38  N   UNK N   1      27.590  20.029   3.468  0.00  0.00    -0.234 N 
HETATM   39  N   UNK N   1      25.744  18.669   3.602  0.00  0.00    -0.168 N 
HETATM   40  H   UNK N   1      28.506  20.270   3.736  0.00  0.00     0.174 HD
ATOM     41  HN  UNK N   1      27.122  20.554   2.729  1.00  0.00     0.174 HD
ATOM     42  HN  UNK N   1      25.306  19.168   2.828  1.00  0.00     0.186 HD
BRANCH  34  43
HETATM   43  O   UNK N   1      23.854  17.275   3.785  0.00  0.00    -0.344 OA
HETATM   44  H   UNK N   1      23.568  16.385   3.846  0.00  0.00     0.219 HD
ENDBRANCH  34  43
ENDBRANCH   4  28
TORSDOF 15
ENDMDL
MODEL 7
REMARK VINA RESULT:      -6.8      9.504     13.238
REMARK  15 active torsions:
REMARK  status: ('A' for Active; 'I' for Inactive)
REMARK    1  A    between atoms: C_4  and  C_1 
REMARK    2  A    between atoms: O_30  and  C_1 
REMARK    3  A    between atoms: P_33  and  C_3 
REMARK    4  A    between atoms: P_34  and  C_3 
REMARK    5  A    between atoms: C_6  and  O_20 
REMARK    6  A    between atoms: C_7  and  O_21 
REMARK    7  A    between atoms: O_22  and  C_9 
REMARK    8  A    between atoms: C_10  and  N_19 
REMARK       I    between atoms: N_12  and  C_11 
REMARK    9  A    between atoms: P_33  and  O_23 
REMARK   10  A    between atoms: P_34  and  O_25 
REMARK   11  A    between atoms: P_35  and  O_27 
REMARK   12  A    between atoms: P_35  and  O_28 
REMARK   13  A    between atoms: P_33  and  O_30 
REMARK   14  A    between atoms: P_34  and  O_32 
REMARK   15  A    between atoms: P_35  and  O_32 
ROOT
HETATM    1  C   UNK N   1      30.971  17.503   8.674  0.00  0.00     0.179 C 
HETATM    2  C   UNK N   1      30.066  18.706   9.040  0.00  0.00     0.182 C 
HETATM    3  C   UNK N   1      28.796  18.408   8.214  0.00  0.00     0.198 C 
HETATM    4  C   UNK N   1      29.068  16.983   7.748  0.00  0.00     0.262 C 
HETATM    5  O   UNK N   1      30.454  16.957   7.481  0.00  0.00    -0.353 OA
ENDROOT
BRANCH   1   6
HETATM    6  C   UNK N   1      32.521  17.557   8.694  0.00  0.00     0.213 C 
BRANCH   6   7
HETATM    7  O   UNK N   1      33.323  16.424   8.423  0.00  0.00    -0.316 OA
BRANCH   7   8
HETATM    8  P   UNK N   1      32.802  15.046   9.350  0.00  0.00     0.249 P 
HETATM    9  O   UNK N   1      33.338  13.775   8.638  0.00  0.00    -0.653 OA
BRANCH   8  10
HETATM   10  C   UNK N   1      34.608  14.714   9.761  0.00  0.00     0.250 C 
BRANCH  10  11
HETATM   11  P   UNK N   1      35.625  15.858  10.828  0.00  0.00     0.258 P 
HETATM   12  O   UNK N   1      35.224  17.352  10.696  0.00  0.00    -0.653 OA
BRANCH  11  13
HETATM   13  O   UNK N   1      37.322  15.764  10.470  0.00  0.00    -0.328 OA
HETATM   14  H   UNK N   1      37.940  16.134   9.820  0.00  0.00     0.220 HD
ENDBRANCH  11  13
BRANCH  11  15
HETATM   15  O   UNK N   1      35.314  15.435  12.498  0.00  0.00    -0.218 OA
BRANCH  15  16
HETATM   16  P   UNK N   1      35.824  13.799  12.801  0.00  0.00     0.398 P 
HETATM   17  O   UNK N   1      36.084  13.618  14.321  0.00  0.00    -0.631 OA
BRANCH  16  18
HETATM   18  O   UNK N   1      37.349  13.519  12.020  0.00  0.00    -0.307 OA
HETATM   19  H   UNK N   1      37.697  12.671  11.702  0.00  0.00     0.222 HD
ENDBRANCH  16  18
BRANCH  16  20
HETATM   20  O   UNK N   1      34.654  12.626  12.286  0.00  0.00    -0.307 OA
HETATM   21  H   UNK N   1      33.772  12.252  12.438  0.00  0.00     0.222 HD
ENDBRANCH  16  20
ENDBRANCH  15  16
ENDBRANCH  11  15
ENDBRANCH  10  11
ENDBRANCH   8  10
BRANCH   8  22
HETATM   22  O   UNK N   1      33.129  15.186  11.045  0.00  0.00    -0.329 OA
HETATM   23  H   UNK N   1      33.743  15.853  11.389  0.00  0.00     0.220 HD
ENDBRANCH   8  22
ENDBRANCH   7   8
ENDBRANCH   6   7
ENDBRANCH   1   6
BRANCH   2  24
HETATM   24  O   UNK N   1      29.829  18.727  10.418  0.00  0.00    -0.390 OA
HETATM   25  H   UNK N   1      30.155  18.251  11.198  0.00  0.00     0.210 HD
ENDBRANCH   2  24
BRANCH   3  26
HETATM   26  O   UNK N   1      27.621  18.520   8.965  0.00  0.00    -0.388 OA
HETATM   27  H   UNK N   1      26.747  18.365   8.573  0.00  0.00     0.210 HD
ENDBRANCH   3  26
BRANCH   4  28
HETATM   28  N   UNK N   1      28.275  16.450   6.637  0.00  0.00    -0.297 N 
HETATM   29  C   UNK N   1      26.948  16.146   6.658  0.00  0.00     0.188 A 
HETATM   30  N   UNK N   1      26.465  15.940   5.400  0.00  0.00    -0.346 N 
HETATM   31  C   UNK N   1      27.535  16.127   4.600  0.00  0.00     0.130 A 
ATOM     32  HN  UNK N   1      25.513  15.699   5.125  1.00  0.00     0.167 HD
HETATM   33  C   UNK N   1      28.618  16.405   5.348  0.00  0.00     0.157 A 
HETATM   34  C   UNK N   1      27.624  16.135   3.218  0.00  0.00     0.186 A 
HETATM   35  N   UNK N   1      29.832  16.661   4.803  0.00  0.00    -0.174 N 
HETATM   36  C   UNK N   1      29.950  16.614   3.444  0.00  0.00     0.679 A 
HETATM   37  H   UNK N   1      30.607  16.873   5.372  0.00  0.00     0.186 HD
HETATM   38  N   UNK N   1      31.092  16.810   2.900  0.00  0.00    -0.234 N 
HETATM   39  N   UNK N   1      28.850  16.372   2.658  0.00  0.00    -0.168 N 
HETATM   40  H   UNK N   1      31.894  16.918   3.460  0.00  0.00     0.174 HD
ATOM     41  HN  UNK N   1      31.170  16.856   1.885  1.00  0.00     0.174 HD
ATOM     42  HN  UNK N   1      28.948  16.370   1.643  1.00  0.00     0.186 HD
BRANCH  34  43
HETATM   43  O   UNK N   1      26.542  15.951   2.443  0.00  0.00    -0.344 OA
HETATM   44  H   UNK N   1      26.103  16.684   2.061  0.00  0.00     0.219 HD
ENDBRANCH  34  43
ENDBRANCH   4  28
TORSDOF 15
ENDMDL
MODEL 8
REMARK VINA RESULT:      -6.8      4.826      8.068
REMARK  15 active torsions:
REMARK  status: ('A' for Active; 'I' for Inactive)
REMARK    1  A    between atoms: C_4  and  C_1 
REMARK    2  A    between atoms: O_30  and  C_1 
REMARK    3  A    between atoms: P_33  and  C_3 
REMARK    4  A    between atoms: P_34  and  C_3 
REMARK    5  A    between atoms: C_6  and  O_20 
REMARK    6  A    between atoms: C_7  and  O_21 
REMARK    7  A    between atoms: O_22  and  C_9 
REMARK    8  A    between atoms: C_10  and  N_19 
REMARK       I    between atoms: N_12  and  C_11 
REMARK    9  A    between atoms: P_33  and  O_23 
REMARK   10  A    between atoms: P_34  and  O_25 
REMARK   11  A    between atoms: P_35  and  O_27 
REMARK   12  A    between atoms: P_35  and  O_28 
REMARK   13  A    between atoms: P_33  and  O_30 
REMARK   14  A    between atoms: P_34  and  O_32 
REMARK   15  A    between atoms: P_35  and  O_32 
ROOT
HETATM    1  C   UNK N   1      24.262  15.856   5.189  0.00  0.00     0.179 C 
HETATM    2  C   UNK N   1      25.683  16.441   5.389  0.00  0.00     0.182 C 
HETATM    3  C   UNK N   1      25.494  17.897   4.912  0.00  0.00     0.198 C 
HETATM    4  C   UNK N   1      23.978  17.978   4.787  0.00  0.00     0.262 C 
HETATM    5  O   UNK N   1      23.595  16.713   4.291  0.00  0.00    -0.353 OA
ENDROOT
BRANCH   1   6
HETATM    6  C   UNK N   1      23.984  14.355   4.915  0.00  0.00     0.213 C 
BRANCH   6   7
HETATM    7  O   UNK N   1      22.790  13.718   5.327  0.00  0.00    -0.316 OA
BRANCH   7   8
HETATM    8  P   UNK N   1      23.105  12.516   6.546  0.00  0.00     0.249 P 
HETATM    9  O   UNK N   1      24.151  13.111   7.529  0.00  0.00    -0.653 OA
BRANCH   8  10
HETATM   10  C   UNK N   1      22.315  13.671   7.805  0.00  0.00     0.250 C 
BRANCH  10  11
HETATM   11  P   UNK N   1      20.653  14.472   7.533  0.00  0.00     0.258 P 
HETATM   12  O   UNK N   1      20.744  15.930   7.006  0.00  0.00    -0.653 OA
BRANCH  11  13
HETATM   13  O   UNK N   1      19.698  14.525   8.983  0.00  0.00    -0.328 OA
HETATM   14  H   UNK N   1      18.769  14.409   9.235  0.00  0.00     0.220 HD
ENDBRANCH  11  13
BRANCH  11  15
HETATM   15  O   UNK N   1      19.833  13.571   6.276  0.00  0.00    -0.218 OA
BRANCH  15  16
HETATM   16  P   UNK N   1      19.317  14.650   5.012  0.00  0.00     0.398 P 
HETATM   17  O   UNK N   1      18.602  13.833   3.903  0.00  0.00    -0.631 OA
BRANCH  16  18
HETATM   18  O   UNK N   1      20.711  15.359   4.259  0.00  0.00    -0.307 OA
HETATM   19  H   UNK N   1      20.720  16.046   3.574  0.00  0.00     0.222 HD
ENDBRANCH  16  18
BRANCH  16  20
HETATM   20  O   UNK N   1      18.242  15.886   5.584  0.00  0.00    -0.307 OA
HETATM   21  H   UNK N   1      18.154  16.688   6.122  0.00  0.00     0.222 HD
ENDBRANCH  16  20
ENDBRANCH  15  16
ENDBRANCH  11  15
ENDBRANCH  10  11
ENDBRANCH   8  10
BRANCH   8  22
HETATM   22  O   UNK N   1      21.671  11.845   7.248  0.00  0.00    -0.329 OA
HETATM   23  H   UNK N   1      21.084  12.377   7.808  0.00  0.00     0.220 HD
ENDBRANCH   8  22
ENDBRANCH   7   8
ENDBRANCH   6   7
ENDBRANCH   1   6
BRANCH   2  24
HETATM   24  O   UNK N   1      26.054  16.352   6.734  0.00  0.00    -0.390 OA
HETATM   25  H   UNK N   1      25.841  16.817   7.558  0.00  0.00     0.210 HD
ENDBRANCH   2  24
BRANCH   3  26
HETATM   26  O   UNK N   1      26.018  18.835   5.807  0.00  0.00    -0.388 OA
HETATM   27  H   UNK N   1      26.801  18.645   6.347  0.00  0.00     0.210 HD
ENDBRANCH   3  26
BRANCH   4  28
HETATM   28  N   UNK N   1      23.400  19.080   4.013  0.00  0.00    -0.297 N 
HETATM   29  C   UNK N   1      24.067  20.152   3.502  0.00  0.00     0.188 A 
HETATM   30  N   UNK N   1      23.297  20.837   2.609  0.00  0.00    -0.346 N 
HETATM   31  C   UNK N   1      22.133  20.155   2.584  0.00  0.00     0.130 A 
ATOM     32  HN  UNK N   1      23.544  21.673   2.081  1.00  0.00     0.167 HD
HETATM   33  C   UNK N   1      22.193  19.123   3.445  0.00  0.00     0.157 A 
HETATM   34  C   UNK N   1      21.012  20.336   1.793  0.00  0.00     0.186 A 
HETATM   35  N   UNK N   1      21.167  18.253   3.610  0.00  0.00    -0.174 N 
HETATM   36  C   UNK N   1      20.031  18.453   2.881  0.00  0.00     0.679 A 
HETATM   37  H   UNK N   1      21.240  17.499   4.238  0.00  0.00     0.186 HD
HETATM   38  N   UNK N   1      19.029  17.673   3.043  0.00  0.00    -0.234 N 
HETATM   39  N   UNK N   1      19.961  19.475   1.966  0.00  0.00    -0.168 N 
HETATM   40  H   UNK N   1      19.049  16.981   3.743  0.00  0.00     0.174 HD
ATOM     41  HN  UNK N   1      18.209  17.768   2.445  1.00  0.00     0.174 HD
ATOM     42  HN  UNK N   1      19.116  19.593   1.408  1.00  0.00     0.186 HD
BRANCH  34  43
HETATM   43  O   UNK N   1      20.957  21.301   0.860  0.00  0.00    -0.344 OA
HETATM   44  H   UNK N   1      21.745  21.689   0.534  0.00  0.00     0.219 HD
ENDBRANCH  34  43
ENDBRANCH   4  28
TORSDOF 15
ENDMDL
MODEL 9
REMARK VINA RESULT:      -6.8      6.896      8.655
REMARK  15 active torsions:
REMARK  status: ('A' for Active; 'I' for Inactive)
REMARK    1  A    between atoms: C_4  and  C_1 
REMARK    2  A    between atoms: O_30  and  C_1 
REMARK    3  A    between atoms: P_33  and  C_3 
REMARK    4  A    between atoms: P_34  and  C_3 
REMARK    5  A    between atoms: C_6  and  O_20 
REMARK    6  A    between atoms: C_7  and  O_21 
REMARK    7  A    between atoms: O_22  and  C_9 
REMARK    8  A    between atoms: C_10  and  N_19 
REMARK       I    between atoms: N_12  and  C_11 
REMARK    9  A    between atoms: P_33  and  O_23 
REMARK   10  A    between atoms: P_34  and  O_25 
REMARK   11  A    between atoms: P_35  and  O_27 
REMARK   12  A    between atoms: P_35  and  O_28 
REMARK   13  A    between atoms: P_33  and  O_30 
REMARK   14  A    between atoms: P_34  and  O_32 
REMARK   15  A    between atoms: P_35  and  O_32 
ROOT
HETATM    1  C   UNK N   1      28.677  17.477   7.229  0.00  0.00     0.179 C 
HETATM    2  C   UNK N   1      28.323  17.548   8.736  0.00  0.00     0.182 C 
HETATM    3  C   UNK N   1      29.722  17.598   9.386  0.00  0.00     0.198 C 
HETATM    4  C   UNK N   1      30.611  17.826   8.170  0.00  0.00     0.262 C 
HETATM    5  O   UNK N   1      30.018  17.052   7.149  0.00  0.00    -0.353 OA
ENDROOT
BRANCH   1   6
HETATM    6  C   UNK N   1      27.765  16.815   6.164  0.00  0.00     0.213 C 
BRANCH   6   7
HETATM    7  O   UNK N   1      26.839  17.555   5.392  0.00  0.00    -0.316 OA
BRANCH   7   8
HETATM    8  P   UNK N   1      27.437  19.153   5.051  0.00  0.00     0.249 P 
HETATM    9  O   UNK N   1      26.864  19.584   3.674  0.00  0.00    -0.653 OA
BRANCH   8  10
HETATM   10  C   UNK N   1      25.668  19.781   5.188  0.00  0.00     0.250 C 
BRANCH  10  11
HETATM   11  P   UNK N   1      24.223  18.897   4.408  0.00  0.00     0.258 P 
HETATM   12  O   UNK N   1      23.205  18.339   5.439  0.00  0.00    -0.653 OA
BRANCH  11  13
HETATM   13  O   UNK N   1      24.721  17.555   3.424  0.00  0.00    -0.328 OA
HETATM   14  H   UNK N   1      24.353  16.709   3.125  0.00  0.00     0.220 HD
ENDBRANCH  11  13
BRANCH  11  15
HETATM   15  O   UNK N   1      23.335  20.071   3.462  0.00  0.00    -0.218 OA
BRANCH  15  16
HETATM   16  P   UNK N   1      21.736  19.473   3.123  0.00  0.00     0.398 P 
HETATM   17  O   UNK N   1      21.301  19.950   1.711  0.00  0.00    -0.631 OA
BRANCH  16  18
HETATM   18  O   UNK N   1      20.610  20.183   4.236  0.00  0.00    -0.307 OA
HETATM   19  H   UNK N   1      20.202  19.759   5.007  0.00  0.00     0.222 HD
ENDBRANCH  16  18
BRANCH  16  20
HETATM   20  O   UNK N   1      21.641  17.741   3.186  0.00  0.00    -0.307 OA
HETATM   21  H   UNK N   1      21.257  16.975   3.638  0.00  0.00     0.222 HD
ENDBRANCH  16  20
ENDBRANCH  15  16
ENDBRANCH  11  15
ENDBRANCH  10  11
ENDBRANCH   8  10
BRANCH   8  22
HETATM   22  O   UNK N   1      27.231  20.266   6.363  0.00  0.00    -0.329 OA
HETATM   23  H   UNK N   1      27.513  20.044   7.264  0.00  0.00     0.220 HD
ENDBRANCH   8  22
ENDBRANCH   7   8
ENDBRANCH   6   7
ENDBRANCH   1   6
BRANCH   2  24
HETATM   24  O   UNK N   1      27.558  18.690   8.996  0.00  0.00    -0.390 OA
HETATM   25  H   UNK N   1      26.769  19.111   8.623  0.00  0.00     0.210 HD
ENDBRANCH   2  24
BRANCH   3  26
HETATM   26  O   UNK N   1      29.840  18.610  10.344  0.00  0.00    -0.388 OA
HETATM   27  H   UNK N   1      29.161  19.295  10.451  0.00  0.00     0.210 HD
ENDBRANCH   3  26
BRANCH   4  28
HETATM   28  N   UNK N   1      32.048  17.572   8.300  0.00  0.00    -0.297 N 
HETATM   29  C   UNK N   1      33.034  18.508   8.392  0.00  0.00     0.188 A 
HETATM   30  N   UNK N   1      34.215  17.948   8.779  0.00  0.00    -0.346 N 
HETATM   31  C   UNK N   1      33.930  16.638   8.924  0.00  0.00     0.130 A 
ATOM     32  HN  UNK N   1      35.111  18.414   8.925  1.00  0.00     0.167 HD
HETATM   33  C   UNK N   1      32.641  16.417   8.611  0.00  0.00     0.157 A 
HETATM   34  C   UNK N   1      34.721  15.600   9.386  0.00  0.00     0.186 A 
HETATM   35  N   UNK N   1      32.074  15.188   8.688  0.00  0.00    -0.174 N 
HETATM   36  C   UNK N   1      32.856  14.143   9.084  0.00  0.00     0.679 A 
HETATM   37  H   UNK N   1      31.124  15.055   8.464  0.00  0.00     0.186 HD
HETATM   38  N   UNK N   1      32.362  12.963   9.129  0.00  0.00    -0.234 N 
HETATM   39  N   UNK N   1      34.164  14.351   9.449  0.00  0.00    -0.168 N 
HETATM   40  H   UNK N   1      31.446  12.798   8.807  0.00  0.00     0.174 HD
ATOM     41  HN  UNK N   1      32.917  12.193   9.500  1.00  0.00     0.174 HD
ATOM     42  HN  UNK N   1      34.727  13.564   9.771  1.00  0.00     0.186 HD
BRANCH  34  43
HETATM   43  O   UNK N   1      35.984  15.806   9.793  0.00  0.00    -0.344 OA
HETATM   44  H   UNK N   1      36.156  16.204  10.622  0.00  0.00     0.219 HD
ENDBRANCH  34  43
ENDBRANCH   4  28
TORSDOF 15
ENDMDL
