MODEL 1
REMARK VINA RESULT:      -4.6      0.000      0.000
REMARK  0 active torsions:
REMARK  status: ('A' for Active; 'I' for Inactive)
ROOT
HETATM    1  O   UNK N   1      20.345  19.786   9.903  0.00  0.00    -0.247 OA
HETATM    2  C   UNK N   1      19.303  19.164  10.007  0.00  0.00     0.326 A 
HETATM    3  N   UNK N   1      18.397  19.507  10.977  0.00  0.00    -0.319 N 
HETATM    4  C   UNK N   1      17.230  18.826  11.109  0.00  0.00     0.098 A 
HETATM    5  C   UNK N   1      16.939  17.766  10.255  0.00  0.00     0.091 A 
HETATM    6  C   UNK N   1      17.863  17.423   9.272  0.00  0.00     0.250 A 
HETATM    7  O   UNK N   1      17.629  16.500   8.516  0.00  0.00    -0.268 OA
HETATM    8  N   UNK N   1      19.036  18.125   9.157  0.00  0.00    -0.276 N 
HETATM    9  H   UNK N   1      18.597  20.256  11.584  0.00  0.00     0.170 HD
HETATM   10  H   UNK N   1      19.687  17.881   8.461  0.00  0.00     0.173 HD
ENDROOT
TORSDOF 0
ENDMDL
MODEL 2
REMARK VINA RESULT:      -4.4      7.883      8.326
REMARK  0 active torsions:
REMARK  status: ('A' for Active; 'I' for Inactive)
ROOT
HETATM    1  O   UNK N   1      23.516  11.841  13.710  0.00  0.00    -0.247 OA
HETATM    2  C   UNK N   1      23.254  12.018  12.534  0.00  0.00     0.326 A 
HETATM    3  N   UNK N   1      21.963  11.887  12.094  0.00  0.00    -0.319 N 
HETATM    4  C   UNK N   1      21.652  12.081  10.786  0.00  0.00     0.098 A 
HETATM    5  C   UNK N   1      22.648  12.416   9.874  0.00  0.00     0.091 A 
HETATM    6  C   UNK N   1      23.958  12.548  10.327  0.00  0.00     0.250 A 
HETATM    7  O   UNK N   1      24.842  12.841   9.547  0.00  0.00    -0.268 OA
HETATM    8  N   UNK N   1      24.248  12.348  11.652  0.00  0.00    -0.276 N 
HETATM    9  H   UNK N   1      21.254  11.650  12.734  0.00  0.00     0.170 HD
HETATM   10  H   UNK N   1      25.175  12.441  11.970  0.00  0.00     0.173 HD
ENDROOT
TORSDOF 0
ENDMDL
MODEL 3
REMARK VINA RESULT:      -4.3      7.992      8.510
REMARK  0 active torsions:
REMARK  status: ('A' for Active; 'I' for Inactive)
ROOT
HETATM    1  O   UNK N   1      21.101  20.998  -0.028  0.00  0.00    -0.247 OA
HETATM    2  C   UNK N   1      20.835  20.411   1.006  0.00  0.00     0.326 A 
HETATM    3  N   UNK N   1      20.882  21.079   2.202  0.00  0.00    -0.319 N 
HETATM    4  C   UNK N   1      20.588  20.442   3.365  0.00  0.00     0.098 A 
HETATM    5  C   UNK N   1      20.233  19.097   3.354  0.00  0.00     0.091 A 
HETATM    6  C   UNK N   1      20.187  18.424   2.136  0.00  0.00     0.250 A 
HETATM    7  O   UNK N   1      19.880  17.249   2.104  0.00  0.00    -0.268 OA
HETATM    8  N   UNK N   1      20.488  19.088   0.974  0.00  0.00    -0.276 N 
HETATM    9  H   UNK N   1      21.132  22.031   2.217  0.00  0.00     0.170 HD
HETATM   10  H   UNK N   1      20.455  18.610   0.114  0.00  0.00     0.173 HD
ENDROOT
TORSDOF 0
ENDMDL
MODEL 4
REMARK VINA RESULT:      -4.1      7.982      8.845
REMARK  0 active torsions:
REMARK  status: ('A' for Active; 'I' for Inactive)
ROOT
HETATM    1  O   UNK N   1      19.772  17.075   1.605  0.00  0.00    -0.247 OA
HETATM    2  C   UNK N   1      20.144  18.207   1.859  0.00  0.00     0.326 A 
HETATM    3  N   UNK N   1      20.248  18.616   3.162  0.00  0.00    -0.319 N 
HETATM    4  C   UNK N   1      20.660  19.873   3.465  0.00  0.00     0.098 A 
HETATM    5  C   UNK N   1      20.983  20.767   2.448  0.00  0.00     0.091 A 
HETATM    6  C   UNK N   1      20.875  20.346   1.125  0.00  0.00     0.250 A 
HETATM    7  O   UNK N   1      21.152  21.110   0.222  0.00  0.00    -0.268 OA
HETATM    8  N   UNK N   1      20.457  19.070   0.843  0.00  0.00    -0.276 N 
HETATM    9  H   UNK N   1      20.021  17.989   3.887  0.00  0.00     0.170 HD
HETATM   10  H   UNK N   1      20.381  18.775  -0.092  0.00  0.00     0.173 HD
ENDROOT
TORSDOF 0
ENDMDL
MODEL 5
REMARK VINA RESULT:      -4.0     14.948     15.688
REMARK  0 active torsions:
REMARK  status: ('A' for Active; 'I' for Inactive)
ROOT
HETATM    1  O   UNK N   1      35.309  17.525   9.996  0.00  0.00    -0.247 OA
HETATM    2  C   UNK N   1      34.463  17.360   9.135  0.00  0.00     0.326 A 
HETATM    3  N   UNK N   1      33.271  16.764   9.455  0.00  0.00    -0.319 N 
HETATM    4  C   UNK N   1      32.316  16.571   8.509  0.00  0.00     0.098 A 
HETATM    5  C   UNK N   1      32.539  16.980   7.198  0.00  0.00     0.091 A 
HETATM    6  C   UNK N   1      33.752  17.584   6.879  0.00  0.00     0.250 A 
HETATM    7  O   UNK N   1      33.967  17.949   5.740  0.00  0.00    -0.268 OA
HETATM    8  N   UNK N   1      34.702  17.769   7.851  0.00  0.00    -0.276 N 
HETATM    9  H   UNK N   1      33.107  16.473  10.381  0.00  0.00     0.170 HD
HETATM   10  H   UNK N   1      35.559  18.196   7.623  0.00  0.00     0.173 HD
ENDROOT
TORSDOF 0
ENDMDL
MODEL 6
REMARK VINA RESULT:      -4.0      7.697      8.138
REMARK  0 active torsions:
REMARK  status: ('A' for Active; 'I' for Inactive)
ROOT
HETATM    1  O   UNK N   1      25.126  13.026   9.677  0.00  0.00    -0.247 OA
HETATM    2  C   UNK N   1      24.106  12.716  10.266  0.00  0.00     0.326 A 
HETATM    3  N   UNK N   1      22.903  12.745   9.612  0.00  0.00    -0.319 N 
HETATM    4  C   UNK N   1      21.755  12.402  10.253  0.00  0.00     0.098 A 
HETATM    5  C   UNK N   1      21.790  12.015  11.589  0.00  0.00     0.091 A 
HETATM    6  C   UNK N   1      23.016  11.986  12.248  0.00  0.00     0.250 A 
HETATM    7  O   UNK N   1      23.070  11.651  13.415  0.00  0.00    -0.268 OA
HETATM    8  N   UNK N   1      24.162  12.337  11.581  0.00  0.00    -0.276 N 
HETATM    9  H   UNK N   1      22.870  13.019   8.667  0.00  0.00     0.170 HD
HETATM   10  H   UNK N   1      25.028  12.316  12.049  0.00  0.00     0.173 HD
ENDROOT
TORSDOF 0
ENDMDL
MODEL 7
REMARK VINA RESULT:      -3.9      7.633      8.415
REMARK  0 active torsions:
REMARK  status: ('A' for Active; 'I' for Inactive)
ROOT
HETATM    1  O   UNK N   1      20.835  12.524   9.854  0.00  0.00    -0.247 OA
HETATM    2  C   UNK N   1      21.955  12.370  10.306  0.00  0.00     0.326 A 
HETATM    3  N   UNK N   1      23.038  12.386   9.467  0.00  0.00    -0.319 N 
HETATM    4  C   UNK N   1      24.295  12.217   9.952  0.00  0.00     0.098 A 
HETATM    5  C   UNK N   1      24.498  12.024  11.315  0.00  0.00     0.091 A 
HETATM    6  C   UNK N   1      23.393  12.008  12.163  0.00  0.00     0.250 A 
HETATM    7  O   UNK N   1      23.548  11.841  13.357  0.00  0.00    -0.268 OA
HETATM    8  N   UNK N   1      22.133  12.182  11.650  0.00  0.00    -0.276 N 
HETATM    9  H   UNK N   1      22.902  12.522   8.502  0.00  0.00     0.170 HD
HETATM   10  H   UNK N   1      21.353  12.170  12.251  0.00  0.00     0.173 HD
ENDROOT
TORSDOF 0
ENDMDL
MODEL 8
REMARK VINA RESULT:      -3.9     15.659     16.159
REMARK  0 active torsions:
REMARK  status: ('A' for Active; 'I' for Inactive)
ROOT
HETATM    1  O   UNK N   1      33.830  15.335  10.341  0.00  0.00    -0.247 OA
HETATM    2  C   UNK N   1      33.892  16.059   9.364  0.00  0.00     0.326 A 
HETATM    3  N   UNK N   1      33.374  15.639   8.167  0.00  0.00    -0.319 N 
HETATM    4  C   UNK N   1      33.434  16.433   7.067  0.00  0.00     0.098 A 
HETATM    5  C   UNK N   1      34.026  17.689   7.144  0.00  0.00     0.091 A 
HETATM    6  C   UNK N   1      34.552  18.111   8.362  0.00  0.00     0.250 A 
HETATM    7  O   UNK N   1      35.074  19.205   8.451  0.00  0.00    -0.268 OA
HETATM    8  N   UNK N   1      34.480  17.292   9.461  0.00  0.00    -0.276 N 
HETATM    9  H   UNK N   1      32.953  14.751   8.106  0.00  0.00     0.170 HD
HETATM   10  H   UNK N   1      34.851  17.592  10.321  0.00  0.00     0.173 HD
ENDROOT
TORSDOF 0
ENDMDL
MODEL 9
REMARK VINA RESULT:      -3.8     17.210     18.096
REMARK  0 active torsions:
REMARK  status: ('A' for Active; 'I' for Inactive)
ROOT
HETATM    1  O   UNK N   1      26.724  24.301  -3.234  0.00  0.00    -0.247 OA
HETATM    2  C   UNK N   1      26.272  25.287  -3.790  0.00  0.00     0.326 A 
HETATM    3  N   UNK N   1      25.697  25.169  -5.028  0.00  0.00    -0.319 N 
HETATM    4  C   UNK N   1      25.187  26.255  -5.663  0.00  0.00     0.098 A 
HETATM    5  C   UNK N   1      25.244  27.508  -5.059  0.00  0.00     0.091 A 
HETATM    6  C   UNK N   1      25.829  27.621  -3.801  0.00  0.00     0.250 A 
HETATM    7  O   UNK N   1      25.889  28.706  -3.256  0.00  0.00    -0.268 OA
HETATM    8  N   UNK N   1      26.338  26.510  -3.178  0.00  0.00    -0.276 N 
HETATM    9  H   UNK N   1      25.653  24.286  -5.461  0.00  0.00     0.170 HD
HETATM   10  H   UNK N   1      26.751  26.592  -2.289  0.00  0.00     0.173 HD
ENDROOT
TORSDOF 0
ENDMDL
