MODEL 1
REMARK VINA RESULT:      -7.0      0.000      0.000
REMARK  19 active torsions:
REMARK  status: ('A' for Active; 'I' for Inactive)
REMARK    1  A    between atoms: C_2  and  C_1 
REMARK    2  A    between atoms: C_4  and  C_1 
REMARK    3  A    between atoms: C_7  and  C_2 
REMARK    4  A    between atoms: C_8  and  C_4 
REMARK    5  A    between atoms: C_11  and  C_7 
REMARK    6  A    between atoms: C_14  and  C_8 
REMARK    7  A    between atoms: O_32  and  C_11 
REMARK    8  A    between atoms: C_15  and  C_12 
REMARK    9  A    between atoms: O_25  and  C_12 
REMARK   10  A    between atoms: C_16  and  C_13 
REMARK   11  A    between atoms: O_26  and  C_13 
REMARK   12  A    between atoms: C_17  and  O_27 
REMARK   13  A    between atoms: C_18  and  O_28 
REMARK   14  A    between atoms: C_19  and  O_29 
REMARK   15  A    between atoms: C_20  and  O_30 
REMARK   16  A    between atoms: C_21  and  O_31 
REMARK   17  A    between atoms: C_22  and  O_35 
REMARK   18  A    between atoms: C_23  and  O_32 
REMARK   19  A    between atoms: C_24  and  O_35 
ROOT
HETATM    1  C   UNK N   1      22.817  16.015   5.358  0.00  0.00     0.180 C 
HETATM    2  C   UNK N   1      20.403  16.236   5.967  0.00  0.00     0.183 C 
HETATM    3  C   UNK N   1      20.675  17.714   6.257  0.00  0.00     0.204 C 
HETATM    4  C   UNK N   1      21.677  15.391   6.200  0.00  0.00     0.187 C 
HETATM    5  C   UNK N   1      21.867  18.168   5.404  0.00  0.00     0.291 C 
HETATM    6  O   UNK N   1      23.018  17.380   5.702  0.00  0.00    -0.348 OA
ENDROOT
BRANCH   4   7
HETATM    7  O   UNK N   1      22.085  15.396   7.562  0.00  0.00    -0.348 OA
BRANCH   7   8
HETATM    8  C   UNK N   1      21.930  14.162   8.265  0.00  0.00     0.292 C 
HETATM    9  C   UNK N   1      20.937  14.158   9.490  0.00  0.00     0.204 C 
HETATM   10  C   UNK N   1      21.003  12.743  10.073  0.00  0.00     0.183 C 
HETATM   11  C   UNK N   1      22.443  12.434  10.548  0.00  0.00     0.180 C 
HETATM   12  C   UNK N   1      23.486  13.345   9.840  0.00  0.00     0.179 C 
HETATM   13  O   UNK N   1      23.186  13.517   8.469  0.00  0.00    -0.348 OA
BRANCH   9  14
HETATM   14  O   UNK N   1      19.643  14.463   9.067  0.00  0.00    -0.388 OA
HETATM   15  H   UNK N   1      19.032  14.962   9.632  0.00  0.00     0.210 HD
ENDBRANCH   9  14
BRANCH  10  16
HETATM   16  O   UNK N   1      20.097  12.572  11.124  0.00  0.00    -0.390 OA
HETATM   17  H   UNK N   1      20.295  12.500  12.071  0.00  0.00     0.210 HD
ENDBRANCH  10  16
BRANCH  11  18
HETATM   18  O   UNK N   1      22.706  11.078  10.323  0.00  0.00    -0.390 OA
HETATM   19  H   UNK N   1      23.410  10.547   9.918  0.00  0.00     0.210 HD
ENDBRANCH  11  18
BRANCH  12  20
HETATM   20  C   UNK N   1      24.910  12.816   9.980  0.00  0.00     0.198 C 
BRANCH  20  21
HETATM   21  O   UNK N   1      25.229  12.599  11.322  0.00  0.00    -0.398 OA
HETATM   22  H   UNK N   1      25.764  12.935  12.059  0.00  0.00     0.209 HD
ENDBRANCH  20  21
ENDBRANCH  12  20
ENDBRANCH   7   8
ENDBRANCH   4   7
BRANCH   1  23
HETATM   23  C   UNK N   1      24.120  15.258   5.597  0.00  0.00     0.198 C 
BRANCH  23  24
HETATM   24  O   UNK N   1      24.746  15.722   6.756  0.00  0.00    -0.398 OA
HETATM   25  H   UNK N   1      24.256  15.782   7.590  0.00  0.00     0.209 HD
ENDBRANCH  23  24
ENDBRANCH   1  23
BRANCH   2  26
HETATM   26  O   UNK N   1      19.331  15.787   6.734  0.00  0.00    -0.390 OA
HETATM   27  H   UNK N   1      18.512  16.304   6.801  0.00  0.00     0.210 HD
ENDBRANCH   2  26
BRANCH   3  28
HETATM   28  O   UNK N   1      20.962  17.903   7.612  0.00  0.00    -0.388 OA
HETATM   29  H   UNK N   1      21.063  18.242   8.516  0.00  0.00     0.210 HD
ENDBRANCH   3  28
BRANCH   5  30
HETATM   30  O   UNK N   1      21.516  18.110   4.033  0.00  0.00    -0.359 OA
BRANCH  30  31
HETATM   31  C   UNK N   1      20.898  19.313   3.662  0.00  0.00     0.171 C 
BRANCH  31  32
HETATM   32  C   UNK N   1      21.559  19.864   2.419  0.00  0.00     0.026 C 
BRANCH  32  33
HETATM   33  C   UNK N   1      22.645  20.824   2.845  0.00  0.00     0.002 C 
BRANCH  33  34
HETATM   34  C   UNK N   1      24.005  20.182   2.675  0.00  0.00     0.000 C 
BRANCH  34  35
HETATM   35  C   UNK N   1      24.797  20.383   3.954  0.00  0.00     0.000 C 
BRANCH  35  36
HETATM   36  C   UNK N   1      25.906  19.341   4.095  0.00  0.00     0.004 C 
BRANCH  36  37
HETATM   37  C   UNK N   1      27.285  19.954   4.360  0.00  0.00    -0.014 C 
HETATM   38  C   UNK N   1      28.331  18.913   4.782  0.00  0.00     0.004 C 
HETATM   39  C   UNK N   1      28.042  18.365   6.177  0.00  0.00     0.000 C 
HETATM   40  C   UNK N   1      27.995  19.508   7.185  0.00  0.00     0.000 C 
HETATM   41  C   UNK N   1      26.912  20.509   6.793  0.00  0.00     0.000 C 
HETATM   42  C   UNK N   1      27.194  21.072   5.400  0.00  0.00     0.004 C 
ENDBRANCH  36  37
ENDBRANCH  35  36
ENDBRANCH  34  35
ENDBRANCH  33  34
ENDBRANCH  32  33
ENDBRANCH  31  32
ENDBRANCH  30  31
ENDBRANCH   5  30
TORSDOF 19
ENDMDL
MODEL 2
REMARK VINA RESULT:      -6.8      8.018     12.618
REMARK  19 active torsions:
REMARK  status: ('A' for Active; 'I' for Inactive)
REMARK    1  A    between atoms: C_2  and  C_1 
REMARK    2  A    between atoms: C_4  and  C_1 
REMARK    3  A    between atoms: C_7  and  C_2 
REMARK    4  A    between atoms: C_8  and  C_4 
REMARK    5  A    between atoms: C_11  and  C_7 
REMARK    6  A    between atoms: C_14  and  C_8 
REMARK    7  A    between atoms: O_32  and  C_11 
REMARK    8  A    between atoms: C_15  and  C_12 
REMARK    9  A    between atoms: O_25  and  C_12 
REMARK   10  A    between atoms: C_16  and  C_13 
REMARK   11  A    between atoms: O_26  and  C_13 
REMARK   12  A    between atoms: C_17  and  O_27 
REMARK   13  A    between atoms: C_18  and  O_28 
REMARK   14  A    between atoms: C_19  and  O_29 
REMARK   15  A    between atoms: C_20  and  O_30 
REMARK   16  A    between atoms: C_21  and  O_31 
REMARK   17  A    between atoms: C_22  and  O_35 
REMARK   18  A    between atoms: C_23  and  O_32 
REMARK   19  A    between atoms: C_24  and  O_35 
ROOT
HETATM    1  C   UNK N   1      33.601  16.837   6.732  0.00  0.00     0.180 C 
HETATM    2  C   UNK N   1      32.266  16.378   8.795  0.00  0.00     0.183 C 
HETATM    3  C   UNK N   1      32.937  15.003   8.849  0.00  0.00     0.204 C 
HETATM    4  C   UNK N   1      32.176  16.883   7.336  0.00  0.00     0.187 C 
HETATM    5  C   UNK N   1      34.303  15.098   8.155  0.00  0.00     0.291 C 
HETATM    6  O   UNK N   1      34.143  15.524   6.804  0.00  0.00    -0.348 OA
ENDROOT
BRANCH   4   7
HETATM    7  O   UNK N   1      31.333  16.065   6.534  0.00  0.00    -0.348 OA
BRANCH   7   8
HETATM    8  C   UNK N   1      30.064  16.625   6.190  0.00  0.00     0.292 C 
HETATM    9  C   UNK N   1      30.056  17.749   5.084  0.00  0.00     0.204 C 
HETATM   10  C   UNK N   1      28.596  18.192   4.953  0.00  0.00     0.183 C 
HETATM   11  C   UNK N   1      28.094  18.763   6.301  0.00  0.00     0.180 C 
HETATM   12  C   UNK N   1      28.948  18.247   7.493  0.00  0.00     0.179 C 
HETATM   13  O   UNK N   1      29.273  16.878   7.351  0.00  0.00    -0.348 OA
BRANCH   9  14
HETATM   14  O   UNK N   1      30.534  17.242   3.875  0.00  0.00    -0.388 OA
HETATM   15  H   UNK N   1      30.226  17.594   3.024  0.00  0.00     0.210 HD
ENDBRANCH   9  14
BRANCH  10  16
HETATM   16  O   UNK N   1      28.430  19.134   3.934  0.00  0.00    -0.390 OA
HETATM   17  H   UNK N   1      27.969  19.987   3.984  0.00  0.00     0.210 HD
ENDBRANCH  10  16
BRANCH  11  18
HETATM   18  O   UNK N   1      26.744  18.430   6.452  0.00  0.00    -0.390 OA
HETATM   19  H   UNK N   1      26.227  17.733   6.886  0.00  0.00     0.210 HD
ENDBRANCH  11  18
BRANCH  12  20
HETATM   20  C   UNK N   1      28.261  18.463   8.837  0.00  0.00     0.198 C 
BRANCH  20  21
HETATM   21  O   UNK N   1      27.456  17.370   9.165  0.00  0.00    -0.398 OA
HETATM   22  H   UNK N   1      27.466  16.493   9.578  0.00  0.00     0.209 HD
ENDBRANCH  20  21
ENDBRANCH  12  20
ENDBRANCH   7   8
ENDBRANCH   4   7
BRANCH   1  23
HETATM   23  C   UNK N   1      33.564  17.267   5.268  0.00  0.00     0.198 C 
BRANCH  23  24
HETATM   24  O   UNK N   1      33.280  16.173   4.447  0.00  0.00    -0.398 OA
HETATM   25  H   UNK N   1      33.003  16.306   3.528  0.00  0.00     0.209 HD
ENDBRANCH  23  24
ENDBRANCH   1  23
BRANCH   2  26
HETATM   26  O   UNK N   1      31.017  16.324   9.408  0.00  0.00    -0.390 OA
HETATM   27  H   UNK N   1      30.932  16.151  10.359  0.00  0.00     0.210 HD
ENDBRANCH   2  26
BRANCH   3  28
HETATM   28  O   UNK N   1      32.146  14.044   8.208  0.00  0.00    -0.388 OA
HETATM   29  H   UNK N   1      31.580  13.543   7.601  0.00  0.00     0.210 HD
ENDBRANCH   3  28
BRANCH   5  30
HETATM   30  O   UNK N   1      35.148  15.962   8.894  0.00  0.00    -0.359 OA
BRANCH  30  31
HETATM   31  C   UNK N   1      35.829  15.220   9.870  0.00  0.00     0.171 C 
BRANCH  31  32
HETATM   32  C   UNK N   1      35.714  15.912  11.210  0.00  0.00     0.026 C 
BRANCH  32  33
HETATM   33  C   UNK N   1      35.902  14.878  12.295  0.00  0.00     0.002 C 
BRANCH  33  34
HETATM   34  C   UNK N   1      34.997  13.690  12.047  0.00  0.00     0.000 C 
BRANCH  34  35
HETATM   35  C   UNK N   1      35.669  12.447  12.602  0.00  0.00     0.000 C 
BRANCH  35  36
HETATM   36  C   UNK N   1      35.899  12.562  14.108  0.00  0.00     0.004 C 
BRANCH  36  37
HETATM   37  C   UNK N   1      34.606  12.479  14.927  0.00  0.00    -0.014 C 
HETATM   38  C   UNK N   1      34.827  12.748  16.422  0.00  0.00     0.004 C 
HETATM   39  C   UNK N   1      35.601  11.613  17.085  0.00  0.00     0.000 C 
HETATM   40  C   UNK N   1      34.862  10.294  16.887  0.00  0.00     0.000 C 
HETATM   41  C   UNK N   1      34.699  10.002  15.398  0.00  0.00     0.000 C 
HETATM   42  C   UNK N   1      33.917  11.129  14.723  0.00  0.00     0.004 C 
ENDBRANCH  36  37
ENDBRANCH  35  36
ENDBRANCH  34  35
ENDBRANCH  33  34
ENDBRANCH  32  33
ENDBRANCH  31  32
ENDBRANCH  30  31
ENDBRANCH   5  30
TORSDOF 19
ENDMDL
MODEL 3
REMARK VINA RESULT:      -6.7      8.544     13.012
REMARK  19 active torsions:
REMARK  status: ('A' for Active; 'I' for Inactive)
REMARK    1  A    between atoms: C_2  and  C_1 
REMARK    2  A    between atoms: C_4  and  C_1 
REMARK    3  A    between atoms: C_7  and  C_2 
REMARK    4  A    between atoms: C_8  and  C_4 
REMARK    5  A    between atoms: C_11  and  C_7 
REMARK    6  A    between atoms: C_14  and  C_8 
REMARK    7  A    between atoms: O_32  and  C_11 
REMARK    8  A    between atoms: C_15  and  C_12 
REMARK    9  A    between atoms: O_25  and  C_12 
REMARK   10  A    between atoms: C_16  and  C_13 
REMARK   11  A    between atoms: O_26  and  C_13 
REMARK   12  A    between atoms: C_17  and  O_27 
REMARK   13  A    between atoms: C_18  and  O_28 
REMARK   14  A    between atoms: C_19  and  O_29 
REMARK   15  A    between atoms: C_20  and  O_30 
REMARK   16  A    between atoms: C_21  and  O_31 
REMARK   17  A    between atoms: C_22  and  O_35 
REMARK   18  A    between atoms: C_23  and  O_32 
REMARK   19  A    between atoms: C_24  and  O_35 
ROOT
HETATM    1  C   UNK N   1      34.049  16.534   7.397  0.00  0.00     0.180 C 
HETATM    2  C   UNK N   1      33.191  15.399   9.452  0.00  0.00     0.183 C 
HETATM    3  C   UNK N   1      33.468  14.065   8.756  0.00  0.00     0.204 C 
HETATM    4  C   UNK N   1      32.881  16.502   8.413  0.00  0.00     0.187 C 
HETATM    5  C   UNK N   1      34.596  14.270   7.737  0.00  0.00     0.291 C 
HETATM    6  O   UNK N   1      34.227  15.264   6.783  0.00  0.00    -0.348 OA
ENDROOT
BRANCH   4   7
HETATM    7  O   UNK N   1      31.682  16.243   7.694  0.00  0.00    -0.348 OA
BRANCH   7   8
HETATM    8  C   UNK N   1      30.692  17.272   7.738  0.00  0.00     0.292 C 
HETATM    9  C   UNK N   1      29.481  17.056   8.725  0.00  0.00     0.204 C 
HETATM   10  C   UNK N   1      28.567  18.270   8.534  0.00  0.00     0.183 C 
HETATM   11  C   UNK N   1      28.066  18.329   7.071  0.00  0.00     0.180 C 
HETATM   12  C   UNK N   1      29.001  17.538   6.114  0.00  0.00     0.179 C 
HETATM   13  O   UNK N   1      30.365  17.738   6.430  0.00  0.00    -0.348 OA
BRANCH   9  14
HETATM   14  O   UNK N   1      29.935  16.976  10.041  0.00  0.00    -0.388 OA
HETATM   15  H   UNK N   1      30.863  17.151  10.265  0.00  0.00     0.210 HD
ENDBRANCH   9  14
BRANCH  10  16
HETATM   16  O   UNK N   1      27.486  18.250   9.419  0.00  0.00    -0.390 OA
HETATM   17  H   UNK N   1      26.623  18.681   9.311  0.00  0.00     0.210 HD
ENDBRANCH  10  16
BRANCH  11  18
HETATM   18  O   UNK N   1      27.954  19.671   6.690  0.00  0.00    -0.390 OA
HETATM   19  H   UNK N   1      28.272  20.234   5.968  0.00  0.00     0.210 HD
ENDBRANCH  11  18
BRANCH  12  20
HETATM   20  C   UNK N   1      28.768  17.893   4.649  0.00  0.00     0.198 C 
BRANCH  20  21
HETATM   21  O   UNK N   1      29.810  17.416   3.851  0.00  0.00    -0.398 OA
HETATM   22  H   UNK N   1      30.420  16.672   3.730  0.00  0.00     0.209 HD
ENDBRANCH  20  21
ENDBRANCH  12  20
ENDBRANCH   7   8
ENDBRANCH   4   7
BRANCH   1  23
HETATM   23  C   UNK N   1      33.769  17.565   6.308  0.00  0.00     0.198 C 
BRANCH  23  24
HETATM   24  O   UNK N   1      33.088  16.972   5.242  0.00  0.00    -0.398 OA
HETATM   25  H   UNK N   1      33.577  16.551   4.518  0.00  0.00     0.209 HD
ENDBRANCH  23  24
ENDBRANCH   1  23
BRANCH   2  26
HETATM   26  O   UNK N   1      32.161  15.251  10.379  0.00  0.00    -0.390 OA
HETATM   27  H   UNK N   1      32.223  14.600  11.096  0.00  0.00     0.210 HD
ENDBRANCH   2  26
BRANCH   3  28
HETATM   28  O   UNK N   1      32.319  13.602   8.105  0.00  0.00    -0.388 OA
HETATM   29  H   UNK N   1      31.507  13.144   7.840  0.00  0.00     0.210 HD
ENDBRANCH   3  28
BRANCH   5  30
HETATM   30  O   UNK N   1      35.794  14.598   8.418  0.00  0.00    -0.359 OA
BRANCH  30  31
HETATM   31  C   UNK N   1      36.281  13.457   9.073  0.00  0.00     0.171 C 
BRANCH  31  32
HETATM   32  C   UNK N   1      36.824  13.840  10.431  0.00  0.00     0.026 C 
BRANCH  32  33
HETATM   33  C   UNK N   1      36.013  13.126  11.485  0.00  0.00     0.002 C 
BRANCH  33  34
HETATM   34  C   UNK N   1      36.818  12.990  12.760  0.00  0.00     0.000 C 
BRANCH  34  35
HETATM   35  C   UNK N   1      36.197  13.881  13.820  0.00  0.00     0.000 C 
BRANCH  35  36
HETATM   36  C   UNK N   1      36.304  13.255  15.210  0.00  0.00     0.004 C 
BRANCH  36  37
HETATM   37  C   UNK N   1      34.943  12.966  15.853  0.00  0.00    -0.014 C 
HETATM   38  C   UNK N   1      35.055  12.536  17.322  0.00  0.00     0.004 C 
HETATM   39  C   UNK N   1      35.678  11.150  17.452  0.00  0.00     0.000 C 
HETATM   40  C   UNK N   1      34.857  10.135  16.663  0.00  0.00     0.000 C 
HETATM   41  C   UNK N   1      34.800  10.536  15.191  0.00  0.00     0.000 C 
HETATM   42  C   UNK N   1      34.170  11.922  15.047  0.00  0.00     0.004 C 
ENDBRANCH  36  37
ENDBRANCH  35  36
ENDBRANCH  34  35
ENDBRANCH  33  34
ENDBRANCH  32  33
ENDBRANCH  31  32
ENDBRANCH  30  31
ENDBRANCH   5  30
TORSDOF 19
ENDMDL
MODEL 4
REMARK VINA RESULT:      -6.6     10.747     15.730
REMARK  19 active torsions:
REMARK  status: ('A' for Active; 'I' for Inactive)
REMARK    1  A    between atoms: C_2  and  C_1 
REMARK    2  A    between atoms: C_4  and  C_1 
REMARK    3  A    between atoms: C_7  and  C_2 
REMARK    4  A    between atoms: C_8  and  C_4 
REMARK    5  A    between atoms: C_11  and  C_7 
REMARK    6  A    between atoms: C_14  and  C_8 
REMARK    7  A    between atoms: O_32  and  C_11 
REMARK    8  A    between atoms: C_15  and  C_12 
REMARK    9  A    between atoms: O_25  and  C_12 
REMARK   10  A    between atoms: C_16  and  C_13 
REMARK   11  A    between atoms: O_26  and  C_13 
REMARK   12  A    between atoms: C_17  and  O_27 
REMARK   13  A    between atoms: C_18  and  O_28 
REMARK   14  A    between atoms: C_19  and  O_29 
REMARK   15  A    between atoms: C_20  and  O_30 
REMARK   16  A    between atoms: C_21  and  O_31 
REMARK   17  A    between atoms: C_22  and  O_35 
REMARK   18  A    between atoms: C_23  and  O_32 
REMARK   19  A    between atoms: C_24  and  O_35 
ROOT
HETATM    1  C   UNK N   1      35.037  12.202   9.834  0.00  0.00     0.180 C 
HETATM    2  C   UNK N   1      36.877  13.734  10.551  0.00  0.00     0.183 C 
HETATM    3  C   UNK N   1      36.384  13.553  11.988  0.00  0.00     0.204 C 
HETATM    4  C   UNK N   1      35.710  13.567   9.549  0.00  0.00     0.187 C 
HETATM    5  C   UNK N   1      35.683  12.192  12.097  0.00  0.00     0.291 C 
HETATM    6  O   UNK N   1      34.591  12.123  11.182  0.00  0.00    -0.348 OA
ENDROOT
BRANCH   4   7
HETATM    7  O   UNK N   1      34.725  14.581   9.697  0.00  0.00    -0.348 OA
BRANCH   7   8
HETATM    8  C   UNK N   1      34.773  15.642   8.741  0.00  0.00     0.292 C 
HETATM    9  C   UNK N   1      34.647  17.112   9.299  0.00  0.00     0.204 C 
HETATM   10  C   UNK N   1      34.683  18.027   8.072  0.00  0.00     0.183 C 
HETATM   11  C   UNK N   1      33.494  17.703   7.136  0.00  0.00     0.180 C 
HETATM   12  C   UNK N   1      32.950  16.267   7.379  0.00  0.00     0.179 C 
HETATM   13  O   UNK N   1      33.997  15.338   7.584  0.00  0.00    -0.348 OA
BRANCH   9  14
HETATM   14  O   UNK N   1      35.705  17.395  10.164  0.00  0.00    -0.388 OA
HETATM   15  H   UNK N   1      36.627  17.325   9.871  0.00  0.00     0.210 HD
ENDBRANCH   9  14
BRANCH  10  16
HETATM   16  O   UNK N   1      34.666  19.377   8.431  0.00  0.00    -0.390 OA
HETATM   17  H   UNK N   1      35.392  19.901   8.804  0.00  0.00     0.210 HD
ENDBRANCH  10  16
BRANCH  11  18
HETATM   18  O   UNK N   1      33.906  17.881   5.811  0.00  0.00    -0.390 OA
HETATM   19  H   UNK N   1      34.197  18.615   5.249  0.00  0.00     0.210 HD
ENDBRANCH  11  18
BRANCH  12  20
HETATM   20  C   UNK N   1      32.062  15.780   6.238  0.00  0.00     0.198 C 
BRANCH  20  21
HETATM   21  O   UNK N   1      31.402  14.602   6.591  0.00  0.00    -0.398 OA
HETATM   22  H   UNK N   1      31.243  13.988   7.326  0.00  0.00     0.209 HD
ENDBRANCH  20  21
ENDBRANCH  12  20
ENDBRANCH   7   8
ENDBRANCH   4   7
BRANCH   1  23
HETATM   23  C   UNK N   1      33.835  12.008   8.913  0.00  0.00     0.198 C 
BRANCH  23  24
HETATM   24  O   UNK N   1      32.700  12.609   9.464  0.00  0.00    -0.398 OA
HETATM   25  H   UNK N   1      32.726  13.530   9.763  0.00  0.00     0.209 HD
ENDBRANCH  23  24
ENDBRANCH   1  23
BRANCH   2  26
HETATM   26  O   UNK N   1      37.510  14.967  10.414  0.00  0.00    -0.390 OA
HETATM   27  H   UNK N   1      37.439  15.645  11.104  0.00  0.00     0.210 HD
ENDBRANCH   2  26
BRANCH   3  28
HETATM   28  O   UNK N   1      35.493  14.574  12.334  0.00  0.00    -0.388 OA
HETATM   29  H   UNK N   1      34.963  15.250  12.786  0.00  0.00     0.210 HD
ENDBRANCH   3  28
BRANCH   5  30
HETATM   30  O   UNK N   1      36.627  11.157  11.887  0.00  0.00    -0.359 OA
BRANCH  30  31
HETATM   31  C   UNK N   1      37.671  11.288  12.815  0.00  0.00     0.171 C 
BRANCH  31  32
HETATM   32  C   UNK N   1      37.377  10.443  14.034  0.00  0.00     0.026 C 
BRANCH  32  33
HETATM   33  C   UNK N   1      36.621   9.214  13.590  0.00  0.00     0.002 C 
BRANCH  33  34
HETATM   34  C   UNK N   1      35.642   8.787  14.662  0.00  0.00     0.000 C 
BRANCH  34  35
HETATM   35  C   UNK N   1      34.747   9.967  14.995  0.00  0.00     0.000 C 
BRANCH  35  36
HETATM   36  C   UNK N   1      34.691  10.219  16.501  0.00  0.00     0.004 C 
BRANCH  36  37
HETATM   37  C   UNK N   1      35.969  10.857  17.057  0.00  0.00    -0.014 C 
HETATM   38  C   UNK N   1      36.195  10.546  18.543  0.00  0.00     0.004 C 
HETATM   39  C   UNK N   1      35.172  11.258  19.424  0.00  0.00     0.000 C 
HETATM   40  C   UNK N   1      35.233  12.762  19.181  0.00  0.00     0.000 C 
HETATM   41  C   UNK N   1      34.948  13.069  17.713  0.00  0.00     0.000 C 
HETATM   42  C   UNK N   1      35.972  12.367  16.821  0.00  0.00     0.004 C 
ENDBRANCH  36  37
ENDBRANCH  35  36
ENDBRANCH  34  35
ENDBRANCH  33  34
ENDBRANCH  32  33
ENDBRANCH  31  32
ENDBRANCH  30  31
ENDBRANCH   5  30
TORSDOF 19
ENDMDL
MODEL 5
REMARK VINA RESULT:      -6.6     11.002     16.063
REMARK  19 active torsions:
REMARK  status: ('A' for Active; 'I' for Inactive)
REMARK    1  A    between atoms: C_2  and  C_1 
REMARK    2  A    between atoms: C_4  and  C_1 
REMARK    3  A    between atoms: C_7  and  C_2 
REMARK    4  A    between atoms: C_8  and  C_4 
REMARK    5  A    between atoms: C_11  and  C_7 
REMARK    6  A    between atoms: C_14  and  C_8 
REMARK    7  A    between atoms: O_32  and  C_11 
REMARK    8  A    between atoms: C_15  and  C_12 
REMARK    9  A    between atoms: O_25  and  C_12 
REMARK   10  A    between atoms: C_16  and  C_13 
REMARK   11  A    between atoms: O_26  and  C_13 
REMARK   12  A    between atoms: C_17  and  O_27 
REMARK   13  A    between atoms: C_18  and  O_28 
REMARK   14  A    between atoms: C_19  and  O_29 
REMARK   15  A    between atoms: C_20  and  O_30 
REMARK   16  A    between atoms: C_21  and  O_31 
REMARK   17  A    between atoms: C_22  and  O_35 
REMARK   18  A    between atoms: C_23  and  O_32 
REMARK   19  A    between atoms: C_24  and  O_35 
ROOT
HETATM    1  C   UNK N   1      35.678  12.348   9.580  0.00  0.00     0.180 C 
HETATM    2  C   UNK N   1      36.469  14.017  11.264  0.00  0.00     0.183 C 
HETATM    3  C   UNK N   1      35.492  13.385  12.258  0.00  0.00     0.204 C 
HETATM    4  C   UNK N   1      35.954  13.853   9.814  0.00  0.00     0.187 C 
HETATM    5  C   UNK N   1      35.266  11.921  11.858  0.00  0.00     0.291 C 
HETATM    6  O   UNK N   1      34.748  11.845  10.531  0.00  0.00    -0.348 OA
ENDROOT
BRANCH   4   7
HETATM    7  O   UNK N   1      34.741  14.562   9.591  0.00  0.00    -0.348 OA
BRANCH   7   8
HETATM    8  C   UNK N   1      34.814  15.647   8.664  0.00  0.00     0.292 C 
HETATM    9  C   UNK N   1      34.615  17.098   9.247  0.00  0.00     0.204 C 
HETATM   10  C   UNK N   1      34.695  18.043   8.044  0.00  0.00     0.183 C 
HETATM   11  C   UNK N   1      33.570  17.711   7.036  0.00  0.00     0.180 C 
HETATM   12  C   UNK N   1      33.053  16.255   7.215  0.00  0.00     0.179 C 
HETATM   13  O   UNK N   1      34.113  15.350   7.457  0.00  0.00    -0.348 OA
BRANCH   9  14
HETATM   14  O   UNK N   1      35.614  17.389  10.176  0.00  0.00    -0.388 OA
HETATM   15  H   UNK N   1      36.436  17.832   9.911  0.00  0.00     0.210 HD
ENDBRANCH   9  14
BRANCH  10  16
HETATM   16  O   UNK N   1      34.619  19.383   8.433  0.00  0.00    -0.390 OA
HETATM   17  H   UNK N   1      34.771  19.754   9.317  0.00  0.00     0.210 HD
ENDBRANCH  10  16
BRANCH  11  18
HETATM   18  O   UNK N   1      34.051  17.931   5.741  0.00  0.00    -0.390 OA
HETATM   19  H   UNK N   1      33.793  17.695   4.836  0.00  0.00     0.210 HD
ENDBRANCH  11  18
BRANCH  12  20
HETATM   20  C   UNK N   1      32.246  15.772   6.014  0.00  0.00     0.198 C 
BRANCH  20  21
HETATM   21  O   UNK N   1      33.088  15.296   5.008  0.00  0.00    -0.398 OA
HETATM   22  H   UNK N   1      33.161  15.169   4.049  0.00  0.00     0.209 HD
ENDBRANCH  20  21
ENDBRANCH  12  20
ENDBRANCH   7   8
ENDBRANCH   4   7
BRANCH   1  23
HETATM   23  C   UNK N   1      35.107  12.131   8.182  0.00  0.00     0.198 C 
BRANCH  23  24
HETATM   24  O   UNK N   1      33.731  12.374   8.176  0.00  0.00    -0.398 OA
HETATM   25  H   UNK N   1      33.102  11.639   8.112  0.00  0.00     0.209 HD
ENDBRANCH  23  24
ENDBRANCH   1  23
BRANCH   2  26
HETATM   26  O   UNK N   1      36.688  15.353  11.593  0.00  0.00    -0.390 OA
HETATM   27  H   UNK N   1      37.430  15.613  12.161  0.00  0.00     0.210 HD
ENDBRANCH   2  26
BRANCH   3  28
HETATM   28  O   UNK N   1      34.273  14.071  12.253  0.00  0.00    -0.388 OA
HETATM   29  H   UNK N   1      33.531  14.673  12.085  0.00  0.00     0.210 HD
ENDBRANCH   3  28
BRANCH   5  30
HETATM   30  O   UNK N   1      36.476  11.200  12.005  0.00  0.00    -0.359 OA
BRANCH  30  31
HETATM   31  C   UNK N   1      36.487  10.564  13.255  0.00  0.00     0.171 C 
BRANCH  31  32
HETATM   32  C   UNK N   1      37.673  11.043  14.061  0.00  0.00     0.026 C 
BRANCH  32  33
HETATM   33  C   UNK N   1      37.199  12.119  15.008  0.00  0.00     0.002 C 
BRANCH  33  34
HETATM   34  C   UNK N   1      35.856  11.743  15.596  0.00  0.00     0.000 C 
BRANCH  34  35
HETATM   35  C   UNK N   1      35.597  12.619  16.809  0.00  0.00     0.000 C 
BRANCH  35  36
HETATM   36  C   UNK N   1      35.218  11.784  18.031  0.00  0.00     0.004 C 
BRANCH  36  37
HETATM   37  C   UNK N   1      35.718  10.337  17.957  0.00  0.00    -0.014 C 
HETATM   38  C   UNK N   1      34.579   9.309  17.960  0.00  0.00     0.004 C 
HETATM   39  C   UNK N   1      33.884   9.251  19.317  0.00  0.00     0.000 C 
HETATM   40  C   UNK N   1      34.898   8.923  20.407  0.00  0.00     0.000 C 
HETATM   41  C   UNK N   1      35.997   9.981  20.439  0.00  0.00     0.000 C 
HETATM   42  C   UNK N   1      36.706  10.044  19.086  0.00  0.00     0.004 C 
ENDBRANCH  36  37
ENDBRANCH  35  36
ENDBRANCH  34  35
ENDBRANCH  33  34
ENDBRANCH  32  33
ENDBRANCH  31  32
ENDBRANCH  30  31
ENDBRANCH   5  30
TORSDOF 19
ENDMDL
MODEL 6
REMARK VINA RESULT:      -6.5      7.871     11.117
REMARK  19 active torsions:
REMARK  status: ('A' for Active; 'I' for Inactive)
REMARK    1  A    between atoms: C_2  and  C_1 
REMARK    2  A    between atoms: C_4  and  C_1 
REMARK    3  A    between atoms: C_7  and  C_2 
REMARK    4  A    between atoms: C_8  and  C_4 
REMARK    5  A    between atoms: C_11  and  C_7 
REMARK    6  A    between atoms: C_14  and  C_8 
REMARK    7  A    between atoms: O_32  and  C_11 
REMARK    8  A    between atoms: C_15  and  C_12 
REMARK    9  A    between atoms: O_25  and  C_12 
REMARK   10  A    between atoms: C_16  and  C_13 
REMARK   11  A    between atoms: O_26  and  C_13 
REMARK   12  A    between atoms: C_17  and  O_27 
REMARK   13  A    between atoms: C_18  and  O_28 
REMARK   14  A    between atoms: C_19  and  O_29 
REMARK   15  A    between atoms: C_20  and  O_30 
REMARK   16  A    between atoms: C_21  and  O_31 
REMARK   17  A    between atoms: C_22  and  O_35 
REMARK   18  A    between atoms: C_23  and  O_32 
REMARK   19  A    between atoms: C_24  and  O_35 
ROOT
HETATM    1  C   UNK N   1      34.064  15.319   6.274  0.00  0.00     0.180 C 
HETATM    2  C   UNK N   1      32.500  16.332   7.939  0.00  0.00     0.183 C 
HETATM    3  C   UNK N   1      32.991  17.705   7.473  0.00  0.00     0.204 C 
HETATM    4  C   UNK N   1      33.604  15.266   7.752  0.00  0.00     0.187 C 
HETATM    5  C   UNK N   1      33.476  17.584   6.022  0.00  0.00     0.291 C 
HETATM    6  O   UNK N   1      34.522  16.620   5.928  0.00  0.00    -0.348 OA
ENDROOT
BRANCH   4   7
HETATM    7  O   UNK N   1      34.738  15.514   8.574  0.00  0.00    -0.348 OA
BRANCH   7   8
HETATM    8  C   UNK N   1      35.052  14.497   9.527  0.00  0.00     0.292 C 
HETATM    9  C   UNK N   1      34.713  14.804  11.036  0.00  0.00     0.204 C 
HETATM   10  C   UNK N   1      35.192  13.582  11.826  0.00  0.00     0.183 C 
HETATM   11  C   UNK N   1      36.718  13.400  11.644  0.00  0.00     0.180 C 
HETATM   12  C   UNK N   1      37.227  14.101  10.354  0.00  0.00     0.179 C 
HETATM   13  O   UNK N   1      36.333  13.922   9.272  0.00  0.00    -0.348 OA
BRANCH   9  14
HETATM   14  O   UNK N   1      33.340  14.994  11.195  0.00  0.00    -0.388 OA
HETATM   15  H   UNK N   1      32.699  14.539  10.627  0.00  0.00     0.210 HD
ENDBRANCH   9  14
BRANCH  10  16
HETATM   16  O   UNK N   1      34.872  13.683  13.182  0.00  0.00    -0.390 OA
HETATM   17  H   UNK N   1      34.066  14.054  13.575  0.00  0.00     0.210 HD
ENDBRANCH  10  16
BRANCH  11  18
HETATM   18  O   UNK N   1      37.007  12.031  11.635  0.00  0.00    -0.390 OA
HETATM   19  H   UNK N   1      36.512  11.199  11.685  0.00  0.00     0.210 HD
ENDBRANCH  11  18
BRANCH  12  20
HETATM   20  C   UNK N   1      38.616  13.623   9.941  0.00  0.00     0.198 C 
BRANCH  20  21
HETATM   21  O   UNK N   1      38.533  12.461   9.172  0.00  0.00    -0.398 OA
HETATM   22  H   UNK N   1      38.487  11.493   9.226  0.00  0.00     0.209 HD
ENDBRANCH  20  21
ENDBRANCH  12  20
ENDBRANCH   7   8
ENDBRANCH   4   7
BRANCH   1  23
HETATM   23  C   UNK N   1      35.201  14.327   6.043  0.00  0.00     0.198 C 
BRANCH  23  24
HETATM   24  O   UNK N   1      36.436  14.950   6.235  0.00  0.00    -0.398 OA
HETATM   25  H   UNK N   1      36.592  15.504   7.016  0.00  0.00     0.209 HD
ENDBRANCH  23  24
ENDBRANCH   1  23
BRANCH   2  26
HETATM   26  O   UNK N   1      32.062  16.405   9.260  0.00  0.00    -0.390 OA
HETATM   27  H   UNK N   1      32.571  15.999   9.979  0.00  0.00     0.210 HD
ENDBRANCH   2  26
BRANCH   3  28
HETATM   28  O   UNK N   1      34.037  18.155   8.286  0.00  0.00    -0.388 OA
HETATM   29  H   UNK N   1      34.589  18.520   8.995  0.00  0.00     0.210 HD
ENDBRANCH   3  28
BRANCH   5  30
HETATM   30  O   UNK N   1      32.378  17.269   5.183  0.00  0.00    -0.359 OA
BRANCH  30  31
HETATM   31  C   UNK N   1      32.649  17.715   3.881  0.00  0.00     0.171 C 
BRANCH  31  32
HETATM   32  C   UNK N   1      32.189  16.678   2.881  0.00  0.00     0.026 C 
BRANCH  32  33
HETATM   33  C   UNK N   1      30.989  15.964   3.455  0.00  0.00     0.002 C 
BRANCH  33  34
HETATM   34  C   UNK N   1      29.718  16.489   2.822  0.00  0.00     0.000 C 
BRANCH  34  35
HETATM   35  C   UNK N   1      28.533  15.962   3.612  0.00  0.00     0.000 C 
BRANCH  35  36
HETATM   36  C   UNK N   1      27.863  17.071   4.421  0.00  0.00     0.004 C 
BRANCH  36  37
HETATM   37  C   UNK N   1      28.838  18.158   4.886  0.00  0.00    -0.014 C 
HETATM   38  C   UNK N   1      29.298  17.967   6.338  0.00  0.00     0.004 C 
HETATM   39  C   UNK N   1      28.162  18.231   7.322  0.00  0.00     0.000 C 
HETATM   40  C   UNK N   1      27.615  19.640   7.119  0.00  0.00     0.000 C 
HETATM   41  C   UNK N   1      27.104  19.804   5.691  0.00  0.00     0.000 C 
HETATM   42  C   UNK N   1      28.236  19.550   4.695  0.00  0.00     0.004 C 
ENDBRANCH  36  37
ENDBRANCH  35  36
ENDBRANCH  34  35
ENDBRANCH  33  34
ENDBRANCH  32  33
ENDBRANCH  31  32
ENDBRANCH  30  31
ENDBRANCH   5  30
TORSDOF 19
ENDMDL
MODEL 7
REMARK VINA RESULT:      -6.4      8.984     13.488
REMARK  19 active torsions:
REMARK  status: ('A' for Active; 'I' for Inactive)
REMARK    1  A    between atoms: C_2  and  C_1 
REMARK    2  A    between atoms: C_4  and  C_1 
REMARK    3  A    between atoms: C_7  and  C_2 
REMARK    4  A    between atoms: C_8  and  C_4 
REMARK    5  A    between atoms: C_11  and  C_7 
REMARK    6  A    between atoms: C_14  and  C_8 
REMARK    7  A    between atoms: O_32  and  C_11 
REMARK    8  A    between atoms: C_15  and  C_12 
REMARK    9  A    between atoms: O_25  and  C_12 
REMARK   10  A    between atoms: C_16  and  C_13 
REMARK   11  A    between atoms: O_26  and  C_13 
REMARK   12  A    between atoms: C_17  and  O_27 
REMARK   13  A    between atoms: C_18  and  O_28 
REMARK   14  A    between atoms: C_19  and  O_29 
REMARK   15  A    between atoms: C_20  and  O_30 
REMARK   16  A    between atoms: C_21  and  O_31 
REMARK   17  A    between atoms: C_22  and  O_35 
REMARK   18  A    between atoms: C_23  and  O_32 
REMARK   19  A    between atoms: C_24  and  O_35 
ROOT
HETATM    1  C   UNK N   1      33.982  16.919   8.841  0.00  0.00     0.180 C 
HETATM    2  C   UNK N   1      33.018  14.645   9.224  0.00  0.00     0.183 C 
HETATM    3  C   UNK N   1      34.273  14.070   8.564  0.00  0.00     0.204 C 
HETATM    4  C   UNK N   1      32.709  16.055   8.669  0.00  0.00     0.187 C 
HETATM    5  C   UNK N   1      35.427  15.063   8.758  0.00  0.00     0.291 C 
HETATM    6  O   UNK N   1      35.095  16.325   8.184  0.00  0.00    -0.348 OA
ENDROOT
BRANCH   4   7
HETATM    7  O   UNK N   1      32.380  16.029   7.286  0.00  0.00    -0.348 OA
BRANCH   7   8
HETATM    8  C   UNK N   1      31.028  16.358   6.959  0.00  0.00     0.292 C 
HETATM    9  C   UNK N   1      30.804  17.308   5.721  0.00  0.00     0.204 C 
HETATM   10  C   UNK N   1      29.290  17.525   5.633  0.00  0.00     0.183 C 
HETATM   11  C   UNK N   1      28.777  18.200   6.928  0.00  0.00     0.180 C 
HETATM   12  C   UNK N   1      29.754  17.973   8.116  0.00  0.00     0.179 C 
HETATM   13  O   UNK N   1      30.266  16.655   8.128  0.00  0.00    -0.348 OA
BRANCH   9  14
HETATM   14  O   UNK N   1      31.290  16.712   4.557  0.00  0.00    -0.388 OA
HETATM   15  H   UNK N   1      30.826  16.807   3.710  0.00  0.00     0.210 HD
ENDBRANCH   9  14
BRANCH  10  16
HETATM   16  O   UNK N   1      28.940  18.288   4.516  0.00  0.00    -0.390 OA
HETATM   17  H   UNK N   1      28.612  17.970   3.659  0.00  0.00     0.210 HD
ENDBRANCH  10  16
BRANCH  11  18
HETATM   18  O   UNK N   1      27.498  17.708   7.211  0.00  0.00    -0.390 OA
HETATM   19  H   UNK N   1      26.581  17.995   7.082  0.00  0.00     0.210 HD
ENDBRANCH  11  18
BRANCH  12  20
HETATM   20  C   UNK N   1      29.108  18.273   9.465  0.00  0.00     0.198 C 
BRANCH  20  21
HETATM   21  O   UNK N   1      28.180  17.287   9.802  0.00  0.00    -0.398 OA
HETATM   22  H   UNK N   1      27.844  16.755  10.540  0.00  0.00     0.209 HD
ENDBRANCH  20  21
ENDBRANCH  12  20
ENDBRANCH   7   8
ENDBRANCH   4   7
BRANCH   1  23
HETATM   23  C   UNK N   1      33.756  18.309   8.252  0.00  0.00     0.198 C 
BRANCH  23  24
HETATM   24  O   UNK N   1      34.931  19.062   8.318  0.00  0.00    -0.398 OA
HETATM   25  H   UNK N   1      35.038  19.857   7.774  0.00  0.00     0.209 HD
ENDBRANCH  23  24
ENDBRANCH   1  23
BRANCH   2  26
HETATM   26  O   UNK N   1      31.947  13.771   9.057  0.00  0.00    -0.390 OA
HETATM   27  H   UNK N   1      31.995  13.035   8.427  0.00  0.00     0.210 HD
ENDBRANCH   2  26
BRANCH   3  28
HETATM   28  O   UNK N   1      34.057  13.855   7.199  0.00  0.00    -0.388 OA
HETATM   29  H   UNK N   1      33.895  13.484   6.318  0.00  0.00     0.210 HD
ENDBRANCH   3  28
BRANCH   5  30
HETATM   30  O   UNK N   1      35.736  15.164  10.137  0.00  0.00    -0.359 OA
BRANCH  30  31
HETATM   31  C   UNK N   1      37.090  14.854  10.332  0.00  0.00     0.171 C 
BRANCH  31  32
HETATM   32  C   UNK N   1      37.214  13.492  10.976  0.00  0.00     0.026 C 
BRANCH  32  33
HETATM   33  C   UNK N   1      36.383  13.487  12.237  0.00  0.00     0.002 C 
BRANCH  33  34
HETATM   34  C   UNK N   1      36.283  12.081  12.790  0.00  0.00     0.000 C 
BRANCH  34  35
HETATM   35  C   UNK N   1      37.121  12.000  14.054  0.00  0.00     0.000 C 
BRANCH  35  36
HETATM   36  C   UNK N   1      36.530  12.858  15.171  0.00  0.00     0.004 C 
BRANCH  36  37
HETATM   37  C   UNK N   1      35.148  12.385  15.635  0.00  0.00    -0.014 C 
HETATM   38  C   UNK N   1      34.520  13.310  16.686  0.00  0.00     0.004 C 
HETATM   39  C   UNK N   1      35.260  13.224  18.018  0.00  0.00     0.000 C 
HETATM   40  C   UNK N   1      35.268  11.783  18.517  0.00  0.00     0.000 C 
HETATM   41  C   UNK N   1      35.947  10.877  17.494  0.00  0.00     0.000 C 
HETATM   42  C   UNK N   1      35.211  10.949  16.156  0.00  0.00     0.004 C 
ENDBRANCH  36  37
ENDBRANCH  35  36
ENDBRANCH  34  35
ENDBRANCH  33  34
ENDBRANCH  32  33
ENDBRANCH  31  32
ENDBRANCH  30  31
ENDBRANCH   5  30
TORSDOF 19
ENDMDL
MODEL 8
REMARK VINA RESULT:      -6.3      8.459     11.892
REMARK  19 active torsions:
REMARK  status: ('A' for Active; 'I' for Inactive)
REMARK    1  A    between atoms: C_2  and  C_1 
REMARK    2  A    between atoms: C_4  and  C_1 
REMARK    3  A    between atoms: C_7  and  C_2 
REMARK    4  A    between atoms: C_8  and  C_4 
REMARK    5  A    between atoms: C_11  and  C_7 
REMARK    6  A    between atoms: C_14  and  C_8 
REMARK    7  A    between atoms: O_32  and  C_11 
REMARK    8  A    between atoms: C_15  and  C_12 
REMARK    9  A    between atoms: O_25  and  C_12 
REMARK   10  A    between atoms: C_16  and  C_13 
REMARK   11  A    between atoms: O_26  and  C_13 
REMARK   12  A    between atoms: C_17  and  O_27 
REMARK   13  A    between atoms: C_18  and  O_28 
REMARK   14  A    between atoms: C_19  and  O_29 
REMARK   15  A    between atoms: C_20  and  O_30 
REMARK   16  A    between atoms: C_21  and  O_31 
REMARK   17  A    between atoms: C_22  and  O_35 
REMARK   18  A    between atoms: C_23  and  O_32 
REMARK   19  A    between atoms: C_24  and  O_35 
ROOT
HETATM    1  C   UNK N   1      34.961  15.912   9.427  0.00  0.00     0.180 C 
HETATM    2  C   UNK N   1      34.541  13.636   8.484  0.00  0.00     0.183 C 
HETATM    3  C   UNK N   1      33.072  14.037   8.332  0.00  0.00     0.204 C 
HETATM    4  C   UNK N   1      35.196  14.399   9.659  0.00  0.00     0.187 C 
HETATM    5  C   UNK N   1      32.995  15.562   8.181  0.00  0.00     0.291 C 
HETATM    6  O   UNK N   1      33.573  16.202   9.317  0.00  0.00    -0.348 OA
ENDROOT
BRANCH   4   7
HETATM    7  O   UNK N   1      34.622  14.052  10.912  0.00  0.00    -0.348 OA
BRANCH   7   8
HETATM    8  C   UNK N   1      35.432  13.242  11.767  0.00  0.00     0.292 C 
HETATM    9  C   UNK N   1      34.725  12.022  12.473  0.00  0.00     0.204 C 
HETATM   10  C   UNK N   1      35.799  11.371  13.350  0.00  0.00     0.183 C 
HETATM   11  C   UNK N   1      36.306  12.383  14.405  0.00  0.00     0.180 C 
HETATM   12  C   UNK N   1      36.033  13.849  13.967  0.00  0.00     0.179 C 
HETATM   13  O   UNK N   1      36.283  14.039  12.588  0.00  0.00    -0.348 OA
BRANCH   9  14
HETATM   14  O   UNK N   1      34.244  11.122  11.522  0.00  0.00    -0.388 OA
HETATM   15  H   UNK N   1      34.762  10.346  11.255  0.00  0.00     0.210 HD
ENDBRANCH   9  14
BRANCH  10  16
HETATM   16  O   UNK N   1      35.327  10.213  13.974  0.00  0.00    -0.390 OA
HETATM   17  H   UNK N   1      35.302   9.312  13.613  0.00  0.00     0.210 HD
ENDBRANCH  10  16
BRANCH  11  18
HETATM   18  O   UNK N   1      37.669  12.155  14.624  0.00  0.00    -0.390 OA
HETATM   19  H   UNK N   1      38.485  12.167  14.101  0.00  0.00     0.210 HD
ENDBRANCH  11  18
BRANCH  12  20
HETATM   20  C   UNK N   1      36.850  14.857  14.769  0.00  0.00     0.198 C 
BRANCH  20  21
HETATM   21  O   UNK N   1      36.859  14.523  16.124  0.00  0.00    -0.398 OA
HETATM   22  H   UNK N   1      37.353  14.638  16.951  0.00  0.00     0.209 HD
ENDBRANCH  20  21
ENDBRANCH  12  20
ENDBRANCH   7   8
ENDBRANCH   4   7
BRANCH   1  23
HETATM   23  C   UNK N   1      35.534  16.715  10.592  0.00  0.00     0.198 C 
BRANCH  23  24
HETATM   24  O   UNK N   1      36.818  16.265  10.908  0.00  0.00    -0.398 OA
HETATM   25  H   UNK N   1      37.210  15.519  10.429  0.00  0.00     0.209 HD
ENDBRANCH  23  24
ENDBRANCH   1  23
BRANCH   2  26
HETATM   26  O   UNK N   1      34.646  12.255   8.633  0.00  0.00    -0.390 OA
HETATM   27  H   UNK N   1      34.107  11.779   9.284  0.00  0.00     0.210 HD
ENDBRANCH   2  26
BRANCH   3  28
HETATM   28  O   UNK N   1      32.334  13.633   9.449  0.00  0.00    -0.388 OA
HETATM   29  H   UNK N   1      31.670  13.507  10.145  0.00  0.00     0.210 HD
ENDBRANCH   3  28
BRANCH   5  30
HETATM   30  O   UNK N   1      33.620  15.949   6.971  0.00  0.00    -0.359 OA
BRANCH  30  31
HETATM   31  C   UNK N   1      33.263  17.271   6.668  0.00  0.00     0.171 C 
BRANCH  31  32
HETATM   32  C   UNK N   1      33.384  17.504   5.178  0.00  0.00     0.026 C 
BRANCH  32  33
HETATM   33  C   UNK N   1      32.616  16.416   4.465  0.00  0.00     0.002 C 
BRANCH  33  34
HETATM   34  C   UNK N   1      31.759  17.014   3.370  0.00  0.00     0.000 C 
BRANCH  34  35
HETATM   35  C   UNK N   1      30.302  16.735   3.692  0.00  0.00     0.000 C 
BRANCH  35  36
HETATM   36  C   UNK N   1      29.774  17.689   4.763  0.00  0.00     0.004 C 
BRANCH  36  37
HETATM   37  C   UNK N   1      28.829  17.015   5.764  0.00  0.00    -0.014 C 
HETATM   38  C   UNK N   1      27.570  17.845   6.050  0.00  0.00     0.004 C 
HETATM   39  C   UNK N   1      27.901  19.104   6.846  0.00  0.00     0.000 C 
HETATM   40  C   UNK N   1      28.595  18.727   8.150  0.00  0.00     0.000 C 
HETATM   41  C   UNK N   1      29.878  17.953   7.858  0.00  0.00     0.000 C 
HETATM   42  C   UNK N   1      29.559  16.685   7.066  0.00  0.00     0.004 C 
ENDBRANCH  36  37
ENDBRANCH  35  36
ENDBRANCH  34  35
ENDBRANCH  33  34
ENDBRANCH  32  33
ENDBRANCH  31  32
ENDBRANCH  30  31
ENDBRANCH   5  30
TORSDOF 19
ENDMDL
MODEL 9
REMARK VINA RESULT:      -6.3      3.701      7.531
REMARK  19 active torsions:
REMARK  status: ('A' for Active; 'I' for Inactive)
REMARK    1  A    between atoms: C_2  and  C_1 
REMARK    2  A    between atoms: C_4  and  C_1 
REMARK    3  A    between atoms: C_7  and  C_2 
REMARK    4  A    between atoms: C_8  and  C_4 
REMARK    5  A    between atoms: C_11  and  C_7 
REMARK    6  A    between atoms: C_14  and  C_8 
REMARK    7  A    between atoms: O_32  and  C_11 
REMARK    8  A    between atoms: C_15  and  C_12 
REMARK    9  A    between atoms: O_25  and  C_12 
REMARK   10  A    between atoms: C_16  and  C_13 
REMARK   11  A    between atoms: O_26  and  C_13 
REMARK   12  A    between atoms: C_17  and  O_27 
REMARK   13  A    between atoms: C_18  and  O_28 
REMARK   14  A    between atoms: C_19  and  O_29 
REMARK   15  A    between atoms: C_20  and  O_30 
REMARK   16  A    between atoms: C_21  and  O_31 
REMARK   17  A    between atoms: C_22  and  O_35 
REMARK   18  A    between atoms: C_23  and  O_32 
REMARK   19  A    between atoms: C_24  and  O_35 
ROOT
HETATM    1  C   UNK N   1      25.311  16.968   4.288  0.00  0.00     0.180 C 
HETATM    2  C   UNK N   1      25.262  19.383   3.647  0.00  0.00     0.183 C 
HETATM    3  C   UNK N   1      26.130  19.663   4.876  0.00  0.00     0.204 C 
HETATM    4  C   UNK N   1      24.379  18.134   3.877  0.00  0.00     0.187 C 
HETATM    5  C   UNK N   1      26.940  18.401   5.201  0.00  0.00     0.291 C 
HETATM    6  O   UNK N   1      26.065  17.301   5.447  0.00  0.00    -0.348 OA
ENDROOT
BRANCH   4   7
HETATM    7  O   UNK N   1      23.432  18.328   4.919  0.00  0.00    -0.348 OA
BRANCH   7   8
HETATM    8  C   UNK N   1      22.063  18.396   4.515  0.00  0.00     0.292 C 
HETATM    9  C   UNK N   1      21.371  17.038   4.111  0.00  0.00     0.204 C 
HETATM   10  C   UNK N   1      19.947  17.409   3.684  0.00  0.00     0.183 C 
HETATM   11  C   UNK N   1      19.993  18.370   2.472  0.00  0.00     0.180 C 
HETATM   12  C   UNK N   1      21.359  19.105   2.377  0.00  0.00     0.179 C 
HETATM   13  O   UNK N   1      21.829  19.505   3.650  0.00  0.00    -0.348 OA
BRANCH   9  14
HETATM   14  O   UNK N   1      21.353  16.161   5.196  0.00  0.00    -0.388 OA
HETATM   15  H   UNK N   1      20.529  15.958   5.667  0.00  0.00     0.210 HD
ENDBRANCH   9  14
BRANCH  10  16
HETATM   16  O   UNK N   1      19.186  16.277   3.379  0.00  0.00    -0.390 OA
HETATM   17  H   UNK N   1      19.498  15.365   3.269  0.00  0.00     0.210 HD
ENDBRANCH  10  16
BRANCH  11  18
HETATM   18  O   UNK N   1      18.929  19.273   2.578  0.00  0.00    -0.390 OA
HETATM   19  H   UNK N   1      17.995  19.245   2.837  0.00  0.00     0.210 HD
ENDBRANCH  11  18
BRANCH  12  20
HETATM   20  C   UNK N   1      21.303  20.321   1.457  0.00  0.00     0.198 C 
BRANCH  20  21
HETATM   21  O   UNK N   1      20.693  19.998   0.244  0.00  0.00    -0.398 OA
HETATM   22  H   UNK N   1      19.845  20.004  -0.227  0.00  0.00     0.209 HD
ENDBRANCH  20  21
ENDBRANCH  12  20
ENDBRANCH   7   8
ENDBRANCH   4   7
BRANCH   1  23
HETATM   23  C   UNK N   1      24.486  15.719   4.590  0.00  0.00     0.198 C 
BRANCH  23  24
HETATM   24  O   UNK N   1      24.148  15.676   5.945  0.00  0.00    -0.398 OA
HETATM   25  H   UNK N   1      23.662  14.919   6.307  0.00  0.00     0.209 HD
ENDBRANCH  23  24
ENDBRANCH   1  23
BRANCH   2  26
HETATM   26  O   UNK N   1      24.504  20.507   3.330  0.00  0.00    -0.390 OA
HETATM   27  H   UNK N   1      24.846  21.402   3.486  0.00  0.00     0.210 HD
ENDBRANCH   2  26
BRANCH   3  28
HETATM   28  O   UNK N   1      25.333  20.010   5.971  0.00  0.00    -0.388 OA
HETATM   29  H   UNK N   1      24.984  20.302   6.829  0.00  0.00     0.210 HD
ENDBRANCH   3  28
BRANCH   5  30
HETATM   30  O   UNK N   1      27.848  18.139   4.146  0.00  0.00    -0.359 OA
BRANCH  30  31
HETATM   31  C   UNK N   1      29.161  18.228   4.634  0.00  0.00     0.171 C 
BRANCH  31  32
HETATM   32  C   UNK N   1      29.555  16.920   5.280  0.00  0.00     0.026 C 
BRANCH  32  33
HETATM   33  C   UNK N   1      30.892  16.497   4.718  0.00  0.00     0.002 C 
BRANCH  33  34
HETATM   34  C   UNK N   1      31.582  17.678   4.069  0.00  0.00     0.000 C 
BRANCH  34  35
HETATM   35  C   UNK N   1      33.030  17.700   4.523  0.00  0.00     0.000 C 
BRANCH  35  36
HETATM   36  C   UNK N   1      33.406  16.410   5.251  0.00  0.00     0.004 C 
BRANCH  36  37
HETATM   37  C   UNK N   1      34.169  16.650   6.559  0.00  0.00    -0.014 C 
HETATM   38  C   UNK N   1      34.246  15.399   7.445  0.00  0.00     0.004 C 
HETATM   39  C   UNK N   1      32.882  15.043   8.027  0.00  0.00     0.000 C 
HETATM   40  C   UNK N   1      32.331  16.223   8.821  0.00  0.00     0.000 C 
HETATM   41  C   UNK N   1      32.200  17.447   7.920  0.00  0.00     0.000 C 
HETATM   42  C   UNK N   1      33.563  17.819   7.336  0.00  0.00     0.004 C 
ENDBRANCH  36  37
ENDBRANCH  35  36
ENDBRANCH  34  35
ENDBRANCH  33  34
ENDBRANCH  32  33
ENDBRANCH  31  32
ENDBRANCH  30  31
ENDBRANCH   5  30
TORSDOF 19
ENDMDL
