MODEL 1
REMARK VINA RESULT:      -8.2      0.000      0.000
REMARK  4 active torsions:
REMARK  status: ('A' for Active; 'I' for Inactive)
REMARK    1  A    between atoms: C_3  and  C_17 
REMARK    2  A    between atoms: C_13  and  C_14 
REMARK    3  A    between atoms: C_14  and  O_15 
REMARK    4  A    between atoms: C_20  and  C_23 
ROOT
HETATM    1  C   UNK N   1      28.394  17.903   7.869  0.00  0.00     0.052 C 
HETATM    2  C   UNK N   1      29.319  17.623   6.724  0.00  0.00    -0.017 A 
HETATM    3  C   UNK N   1      28.865  17.769   5.380  0.00  0.00     0.050 A 
HETATM    4  N   UNK N   1      29.718  17.510   4.361  0.00  0.00    -0.354 N 
ATOM      5  HN  UNK N   1      29.378  17.619   3.405  1.00  0.00     0.166 HD
HETATM    6  C   UNK N   1      30.992  17.116   4.544  0.00  0.00     0.044 A 
HETATM    7  C   UNK N   1      31.791  16.874   3.425  0.00  0.00     0.033 A 
HETATM    8  C   UNK N   1      33.113  16.466   3.582  0.00  0.00     0.044 A 
HETATM    9  C   UNK N   1      33.639  16.298   4.861  0.00  0.00     0.117 A 
HETATM   10  F   UNK N   1      34.924  15.901   5.014  0.00  0.00    -0.206 F 
HETATM   11  C   UNK N   1      32.843  16.539   5.985  0.00  0.00     0.057 A 
HETATM   12  C   UNK N   1      31.505  16.952   5.847  0.00  0.00     0.011 A 
HETATM   13  C   UNK N   1      30.665  17.206   6.970  0.00  0.00     0.058 A 
ENDROOT
BRANCH   3  14
HETATM   14  C   UNK N   1      27.488  18.195   4.997  0.00  0.00    -0.009 A 
HETATM   15  C   UNK N   1      27.033  19.513   5.122  0.00  0.00     0.014 A 
HETATM   16  C   UNK N   1      25.737  19.856   4.749  0.00  0.00     0.013 A 
HETATM   17  C   UNK N   1      24.862  18.885   4.240  0.00  0.00    -0.023 A 
HETATM   18  C   UNK N   1      25.314  17.567   4.115  0.00  0.00     0.013 A 
HETATM   19  C   UNK N   1      26.611  17.227   4.488  0.00  0.00     0.014 A 
BRANCH  17  20
HETATM   20  C   UNK N   1      23.482  19.266   3.847  0.00  0.00     0.013 A 
HETATM   21  C   UNK N   1      22.399  18.584   4.425  0.00  0.00     0.015 A 
HETATM   22  C   UNK N   1      21.085  18.909   4.086  0.00  0.00     0.001 A 
HETATM   23  C   UNK N   1      20.836  19.921   3.161  0.00  0.00     0.003 A 
HETATM   24  C   UNK N   1      21.898  20.611   2.575  0.00  0.00     0.043 A 
HETATM   25  C   UNK N   1      23.218  20.293   2.908  0.00  0.00     0.127 A 
HETATM   26  F   UNK N   1      24.219  20.989   2.314  0.00  0.00    -0.205 F 
ENDBRANCH  17  20
ENDBRANCH   3  14
BRANCH  13  27
HETATM   27  C   UNK N   1      31.183  17.040   8.384  0.00  0.00     0.177 C 
HETATM   28  O   UNK N   1      31.186  15.946   8.922  0.00  0.00    -0.646 OA
BRANCH  27  29
HETATM   29  O   UNK N   1      31.653  18.090   9.085  0.00  0.00    -0.773 OA
HETATM   30  H   UNK N   1      31.787  18.915   8.661  0.00  0.00     0.167 HD
ENDBRANCH  27  29
ENDBRANCH  13  27
TORSDOF 4
ENDMDL
MODEL 2
REMARK VINA RESULT:      -8.2      8.471     13.758
REMARK  4 active torsions:
REMARK  status: ('A' for Active; 'I' for Inactive)
REMARK    1  A    between atoms: C_3  and  C_17 
REMARK    2  A    between atoms: C_13  and  C_14 
REMARK    3  A    between atoms: C_14  and  O_15 
REMARK    4  A    between atoms: C_20  and  C_23 
ROOT
HETATM    1  C   UNK N   1      37.929  12.558  11.236  0.00  0.00     0.052 C 
HETATM    2  C   UNK N   1      36.777  13.372  10.730  0.00  0.00    -0.017 A 
HETATM    3  C   UNK N   1      35.731  13.765  11.615  0.00  0.00     0.050 A 
HETATM    4  N   UNK N   1      34.700  14.501  11.135  0.00  0.00    -0.354 N 
ATOM      5  HN  UNK N   1      33.959  14.775  11.781  1.00  0.00     0.166 HD
HETATM    6  C   UNK N   1      34.602  14.890   9.850  0.00  0.00     0.044 A 
HETATM    7  C   UNK N   1      33.497  15.647   9.456  0.00  0.00     0.033 A 
HETATM    8  C   UNK N   1      33.368  16.064   8.134  0.00  0.00     0.044 A 
HETATM    9  C   UNK N   1      34.346  15.723   7.202  0.00  0.00     0.117 A 
HETATM   10  F   UNK N   1      34.221  16.128   5.916  0.00  0.00    -0.206 F 
HETATM   11  C   UNK N   1      35.454  14.965   7.592  0.00  0.00     0.057 A 
HETATM   12  C   UNK N   1      35.603  14.534   8.922  0.00  0.00     0.011 A 
HETATM   13  C   UNK N   1      36.719  13.760   9.355  0.00  0.00     0.058 A 
ENDROOT
BRANCH   3  14
HETATM   14  C   UNK N   1      35.680  13.423  13.065  0.00  0.00    -0.009 A 
HETATM   15  C   UNK N   1      36.441  14.086  14.035  0.00  0.00     0.014 A 
HETATM   16  C   UNK N   1      36.354  13.725  15.376  0.00  0.00     0.013 A 
HETATM   17  C   UNK N   1      35.501  12.688  15.781  0.00  0.00    -0.023 A 
HETATM   18  C   UNK N   1      34.739  12.023  14.813  0.00  0.00     0.013 A 
HETATM   19  C   UNK N   1      34.828  12.386  13.473  0.00  0.00     0.014 A 
BRANCH  17  20
HETATM   20  C   UNK N   1      35.419  12.314  17.215  0.00  0.00     0.013 A 
HETATM   21  C   UNK N   1      35.576  10.965  17.575  0.00  0.00     0.015 A 
HETATM   22  C   UNK N   1      35.507  10.568  18.910  0.00  0.00     0.001 A 
HETATM   23  C   UNK N   1      35.280  11.515  19.906  0.00  0.00     0.003 A 
HETATM   24  C   UNK N   1      35.123  12.861  19.570  0.00  0.00     0.043 A 
HETATM   25  C   UNK N   1      35.190  13.269  18.236  0.00  0.00     0.127 A 
HETATM   26  F   UNK N   1      35.031  14.587  17.955  0.00  0.00    -0.205 F 
ENDBRANCH  17  20
ENDBRANCH   3  14
BRANCH  13  27
HETATM   27  C   UNK N   1      37.811  13.361   8.385  0.00  0.00     0.177 C 
HETATM   28  O   UNK N   1      38.817  14.041   8.264  0.00  0.00    -0.646 OA
BRANCH  27  29
HETATM   29  O   UNK N   1      37.707  12.249   7.631  0.00  0.00    -0.773 OA
HETATM   30  H   UNK N   1      37.987  11.423   7.974  0.00  0.00     0.167 HD
ENDBRANCH  27  29
ENDBRANCH  13  27
TORSDOF 4
ENDMDL
MODEL 3
REMARK VINA RESULT:      -8.1      3.467      9.104
REMARK  4 active torsions:
REMARK  status: ('A' for Active; 'I' for Inactive)
REMARK    1  A    between atoms: C_3  and  C_17 
REMARK    2  A    between atoms: C_13  and  C_14 
REMARK    3  A    between atoms: C_14  and  O_15 
REMARK    4  A    between atoms: C_20  and  C_23 
ROOT
HETATM    1  C   UNK N   1      27.060  20.160   3.755  0.00  0.00     0.052 C 
HETATM    2  C   UNK N   1      25.964  19.235   4.190  0.00  0.00    -0.017 A 
HETATM    3  C   UNK N   1      26.245  18.158   5.082  0.00  0.00     0.050 A 
HETATM    4  N   UNK N   1      25.239  17.334   5.462  0.00  0.00    -0.354 N 
ATOM      5  HN  UNK N   1      25.455  16.568   6.100  1.00  0.00     0.166 HD
HETATM    6  C   UNK N   1      23.968  17.475   5.041  0.00  0.00     0.044 A 
HETATM    7  C   UNK N   1      23.004  16.571   5.492  0.00  0.00     0.033 A 
HETATM    8  C   UNK N   1      21.681  16.690   5.075  0.00  0.00     0.044 A 
HETATM    9  C   UNK N   1      21.319  17.715   4.203  0.00  0.00     0.117 A 
HETATM   10  F   UNK N   1      20.034  17.831   3.797  0.00  0.00    -0.206 F 
HETATM   11  C   UNK N   1      22.281  18.622   3.748  0.00  0.00     0.057 A 
HETATM   12  C   UNK N   1      23.623  18.519   4.158  0.00  0.00     0.011 A 
HETATM   13  C   UNK N   1      24.629  19.426   3.715  0.00  0.00     0.058 A 
ENDROOT
BRANCH   3  14
HETATM   14  C   UNK N   1      27.593  17.858   5.644  0.00  0.00    -0.009 A 
HETATM   15  C   UNK N   1      28.052  18.389   6.855  0.00  0.00     0.014 A 
HETATM   16  C   UNK N   1      29.321  18.075   7.333  0.00  0.00     0.013 A 
HETATM   17  C   UNK N   1      30.163  17.219   6.609  0.00  0.00    -0.023 A 
HETATM   18  C   UNK N   1      29.706  16.687   5.399  0.00  0.00     0.013 A 
HETATM   19  C   UNK N   1      28.438  17.002   4.922  0.00  0.00     0.014 A 
BRANCH  17  20
HETATM   20  C   UNK N   1      31.514  16.894   7.133  0.00  0.00     0.013 A 
HETATM   21  C   UNK N   1      31.620  16.214   8.358  0.00  0.00     0.015 A 
HETATM   22  C   UNK N   1      32.869  15.888   8.888  0.00  0.00     0.001 A 
HETATM   23  C   UNK N   1      34.029  16.237   8.200  0.00  0.00     0.003 A 
HETATM   24  C   UNK N   1      33.945  16.912   6.982  0.00  0.00     0.043 A 
HETATM   25  C   UNK N   1      32.699  17.244   6.442  0.00  0.00     0.127 A 
HETATM   26  F   UNK N   1      32.664  17.900   5.255  0.00  0.00    -0.205 F 
ENDBRANCH  17  20
ENDBRANCH   3  14
BRANCH  13  27
HETATM   27  C   UNK N   1      24.294  20.558   2.767  0.00  0.00     0.177 C 
HETATM   28  O   UNK N   1      24.764  20.589   1.642  0.00  0.00    -0.646 OA
BRANCH  27  29
HETATM   29  O   UNK N   1      23.471  21.559   3.135  0.00  0.00    -0.773 OA
HETATM   30  H   UNK N   1      23.150  22.161   2.493  0.00  0.00     0.167 HD
ENDBRANCH  27  29
ENDBRANCH  13  27
TORSDOF 4
ENDMDL
MODEL 4
REMARK VINA RESULT:      -8.0      3.116      8.953
REMARK  4 active torsions:
REMARK  status: ('A' for Active; 'I' for Inactive)
REMARK    1  A    between atoms: C_3  and  C_17 
REMARK    2  A    between atoms: C_13  and  C_14 
REMARK    3  A    between atoms: C_14  and  O_15 
REMARK    4  A    between atoms: C_20  and  C_23 
ROOT
HETATM    1  C   UNK N   1      26.611  15.604   6.726  0.00  0.00     0.052 C 
HETATM    2  C   UNK N   1      26.669  16.850   5.895  0.00  0.00    -0.017 A 
HETATM    3  C   UNK N   1      27.870  17.615   5.831  0.00  0.00     0.050 A 
HETATM    4  N   UNK N   1      27.900  18.737   5.073  0.00  0.00    -0.354 N 
ATOM      5  HN  UNK N   1      28.766  19.275   5.037  1.00  0.00     0.166 HD
HETATM    6  C   UNK N   1      26.844  19.181   4.364  0.00  0.00     0.044 A 
HETATM    7  C   UNK N   1      26.978  20.350   3.614  0.00  0.00     0.033 A 
HETATM    8  C   UNK N   1      25.904  20.834   2.871  0.00  0.00     0.044 A 
HETATM    9  C   UNK N   1      24.692  20.147   2.877  0.00  0.00     0.117 A 
HETATM   10  F   UNK N   1      23.648  20.616   2.155  0.00  0.00    -0.206 F 
HETATM   11  C   UNK N   1      24.553  18.975   3.627  0.00  0.00     0.057 A 
HETATM   12  C   UNK N   1      25.626  18.470   4.384  0.00  0.00     0.011 A 
HETATM   13  C   UNK N   1      25.520  17.279   5.160  0.00  0.00     0.058 A 
ENDROOT
BRANCH   3  14
HETATM   14  C   UNK N   1      29.129  17.270   6.550  0.00  0.00    -0.009 A 
HETATM   15  C   UNK N   1      30.117  16.439   6.008  0.00  0.00     0.014 A 
HETATM   16  C   UNK N   1      31.275  16.149   6.724  0.00  0.00     0.013 A 
HETATM   17  C   UNK N   1      31.473  16.688   8.004  0.00  0.00    -0.023 A 
HETATM   18  C   UNK N   1      30.488  17.519   8.548  0.00  0.00     0.013 A 
HETATM   19  C   UNK N   1      29.332  17.807   7.830  0.00  0.00     0.014 A 
BRANCH  17  20
HETATM   20  C   UNK N   1      32.714  16.370   8.755  0.00  0.00     0.013 A 
HETATM   21  C   UNK N   1      32.826  15.116   9.379  0.00  0.00     0.015 A 
HETATM   22  C   UNK N   1      33.973  14.774  10.096  0.00  0.00     0.001 A 
HETATM   23  C   UNK N   1      35.025  15.682  10.198  0.00  0.00     0.003 A 
HETATM   24  C   UNK N   1      34.933  16.933   9.586  0.00  0.00     0.043 A 
HETATM   25  C   UNK N   1      33.789  17.285   8.866  0.00  0.00     0.127 A 
HETATM   26  F   UNK N   1      33.742  18.511   8.287  0.00  0.00    -0.205 F 
ENDBRANCH  17  20
ENDBRANCH   3  14
BRANCH  13  27
HETATM   27  C   UNK N   1      24.227  16.492   5.204  0.00  0.00     0.177 C 
HETATM   28  O   UNK N   1      24.015  15.596   4.404  0.00  0.00    -0.646 OA
BRANCH  27  29
HETATM   29  O   UNK N   1      23.277  16.755   6.123  0.00  0.00    -0.773 OA
HETATM   30  H   UNK N   1      22.605  16.125   6.295  0.00  0.00     0.167 HD
ENDBRANCH  27  29
ENDBRANCH  13  27
TORSDOF 4
ENDMDL
MODEL 5
REMARK VINA RESULT:      -7.9      8.370     13.572
REMARK  4 active torsions:
REMARK  status: ('A' for Active; 'I' for Inactive)
REMARK    1  A    between atoms: C_3  and  C_17 
REMARK    2  A    between atoms: C_13  and  C_14 
REMARK    3  A    between atoms: C_14  and  O_15 
REMARK    4  A    between atoms: C_20  and  C_23 
ROOT
HETATM    1  C   UNK N   1      36.675  11.851  10.510  0.00  0.00     0.052 C 
HETATM    2  C   UNK N   1      36.001  13.154  10.206  0.00  0.00    -0.017 A 
HETATM    3  C   UNK N   1      35.458  13.946  11.260  0.00  0.00     0.050 A 
HETATM    4  N   UNK N   1      34.854  15.121  10.962  0.00  0.00    -0.354 N 
ATOM      5  HN  UNK N   1      34.471  15.676  11.727  1.00  0.00     0.166 HD
HETATM    6  C   UNK N   1      34.732  15.593   9.707  0.00  0.00     0.044 A 
HETATM    7  C   UNK N   1      34.090  16.817   9.507  0.00  0.00     0.033 A 
HETATM    8  C   UNK N   1      33.948  17.332   8.221  0.00  0.00     0.044 A 
HETATM    9  C   UNK N   1      34.450  16.622   7.131  0.00  0.00     0.117 A 
HETATM   10  F   UNK N   1      34.312  17.123   5.881  0.00  0.00    -0.206 F 
HETATM   11  C   UNK N   1      35.093  15.397   7.328  0.00  0.00     0.057 A 
HETATM   12  C   UNK N   1      35.246  14.860   8.618  0.00  0.00     0.011 A 
HETATM   13  C   UNK N   1      35.896  13.613   8.856  0.00  0.00     0.058 A 
ENDROOT
BRANCH   3  14
HETATM   14  C   UNK N   1      35.505  13.575  12.703  0.00  0.00    -0.009 A 
HETATM   15  C   UNK N   1      36.338  14.213  13.631  0.00  0.00     0.014 A 
HETATM   16  C   UNK N   1      36.342  13.825  14.967  0.00  0.00     0.013 A 
HETATM   17  C   UNK N   1      35.509  12.787  15.410  0.00  0.00    -0.023 A 
HETATM   18  C   UNK N   1      34.676  12.148  14.485  0.00  0.00     0.013 A 
HETATM   19  C   UNK N   1      34.674  12.537  13.150  0.00  0.00     0.014 A 
BRANCH  17  20
HETATM   20  C   UNK N   1      35.524  12.385  16.839  0.00  0.00     0.013 A 
HETATM   21  C   UNK N   1      35.144  13.325  17.812  0.00  0.00     0.015 A 
HETATM   22  C   UNK N   1      35.143  12.992  19.166  0.00  0.00     0.001 A 
HETATM   23  C   UNK N   1      35.523  11.712  19.568  0.00  0.00     0.003 A 
HETATM   24  C   UNK N   1      35.904  10.764  18.618  0.00  0.00     0.043 A 
HETATM   25  C   UNK N   1      35.909  11.088  17.258  0.00  0.00     0.127 A 
HETATM   26  F   UNK N   1      36.287  10.136  16.369  0.00  0.00    -0.205 F 
ENDBRANCH  17  20
ENDBRANCH   3  14
BRANCH  13  27
HETATM   27  C   UNK N   1      36.460  12.800   7.710  0.00  0.00     0.177 C 
HETATM   28  O   UNK N   1      35.774  11.967   7.139  0.00  0.00    -0.646 OA
BRANCH  27  29
HETATM   29  O   UNK N   1      37.728  12.969   7.287  0.00  0.00    -0.773 OA
HETATM   30  H   UNK N   1      37.903  13.121   6.379  0.00  0.00     0.167 HD
ENDBRANCH  27  29
ENDBRANCH  13  27
TORSDOF 4
ENDMDL
MODEL 6
REMARK VINA RESULT:      -7.7      2.131      3.347
REMARK  4 active torsions:
REMARK  status: ('A' for Active; 'I' for Inactive)
REMARK    1  A    between atoms: C_3  and  C_17 
REMARK    2  A    between atoms: C_13  and  C_14 
REMARK    3  A    between atoms: C_14  and  O_15 
REMARK    4  A    between atoms: C_20  and  C_23 
ROOT
HETATM    1  C   UNK N   1      28.224  16.731   3.140  0.00  0.00     0.052 C 
HETATM    2  C   UNK N   1      28.503  17.153   4.551  0.00  0.00    -0.017 A 
HETATM    3  C   UNK N   1      27.458  17.686   5.362  0.00  0.00     0.050 A 
HETATM    4  N   UNK N   1      27.733  18.061   6.634  0.00  0.00    -0.354 N 
ATOM      5  HN  UNK N   1      26.975  18.441   7.201  1.00  0.00     0.166 HD
HETATM    6  C   UNK N   1      28.956  17.958   7.188  0.00  0.00     0.044 A 
HETATM    7  C   UNK N   1      29.135  18.373   8.509  0.00  0.00     0.033 A 
HETATM    8  C   UNK N   1      30.387  18.280   9.109  0.00  0.00     0.044 A 
HETATM    9  C   UNK N   1      31.465  17.770   8.389  0.00  0.00     0.117 A 
HETATM   10  F   UNK N   1      32.683  17.679   8.972  0.00  0.00    -0.206 F 
HETATM   11  C   UNK N   1      31.290  17.353   7.065  0.00  0.00     0.057 A 
HETATM   12  C   UNK N   1      30.033  17.439   6.441  0.00  0.00     0.011 A 
HETATM   13  C   UNK N   1      29.819  17.024   5.094  0.00  0.00     0.058 A 
ENDROOT
BRANCH   3  14
HETATM   14  C   UNK N   1      26.049  17.869   4.909  0.00  0.00    -0.009 A 
HETATM   15  C   UNK N   1      25.073  16.872   5.024  0.00  0.00     0.014 A 
HETATM   16  C   UNK N   1      23.772  17.096   4.585  0.00  0.00     0.013 A 
HETATM   17  C   UNK N   1      23.414  18.328   4.018  0.00  0.00    -0.023 A 
HETATM   18  C   UNK N   1      24.388  19.327   3.902  0.00  0.00     0.013 A 
HETATM   19  C   UNK N   1      25.688  19.100   4.342  0.00  0.00     0.014 A 
BRANCH  17  20
HETATM   20  C   UNK N   1      22.022  18.553   3.554  0.00  0.00     0.013 A 
HETATM   21  C   UNK N   1      21.102  17.494   3.634  0.00  0.00     0.015 A 
HETATM   22  C   UNK N   1      19.783  17.659   3.210  0.00  0.00     0.001 A 
HETATM   23  C   UNK N   1      19.366  18.886   2.700  0.00  0.00     0.003 A 
HETATM   24  C   UNK N   1      20.264  19.951   2.612  0.00  0.00     0.043 A 
HETATM   25  C   UNK N   1      21.587  19.796   3.034  0.00  0.00     0.127 A 
HETATM   26  F   UNK N   1      22.426  20.857   2.931  0.00  0.00    -0.205 F 
ENDBRANCH  17  20
ENDBRANCH   3  14
BRANCH  13  27
HETATM   27  C   UNK N   1      30.954  16.462   4.263  0.00  0.00     0.177 C 
HETATM   28  O   UNK N   1      31.252  15.281   4.333  0.00  0.00    -0.646 OA
BRANCH  27  29
HETATM   29  O   UNK N   1      31.664  17.244   3.427  0.00  0.00    -0.773 OA
HETATM   30  H   UNK N   1      31.234  17.691   2.725  0.00  0.00     0.167 HD
ENDBRANCH  27  29
ENDBRANCH  13  27
TORSDOF 4
ENDMDL
MODEL 7
REMARK VINA RESULT:      -7.6      3.173      4.723
REMARK  4 active torsions:
REMARK  status: ('A' for Active; 'I' for Inactive)
REMARK    1  A    between atoms: C_3  and  C_17 
REMARK    2  A    between atoms: C_13  and  C_14 
REMARK    3  A    between atoms: C_14  and  O_15 
REMARK    4  A    between atoms: C_20  and  C_23 
ROOT
HETATM    1  C   UNK N   1      32.665  18.399   8.575  0.00  0.00     0.052 C 
HETATM    2  C   UNK N   1      32.885  16.931   8.366  0.00  0.00    -0.017 A 
HETATM    3  C   UNK N   1      32.044  16.198   7.478  0.00  0.00     0.050 A 
HETATM    4  N   UNK N   1      32.260  14.873   7.304  0.00  0.00    -0.354 N 
ATOM      5  HN  UNK N   1      31.650  14.362   6.665  1.00  0.00     0.166 HD
HETATM    6  C   UNK N   1      33.239  14.194   7.931  0.00  0.00     0.044 A 
HETATM    7  C   UNK N   1      33.378  12.827   7.682  0.00  0.00     0.033 A 
HETATM    8  C   UNK N   1      34.381  12.098   8.315  0.00  0.00     0.044 A 
HETATM    9  C   UNK N   1      35.249  12.736   9.200  0.00  0.00     0.117 A 
HETATM   10  F   UNK N   1      36.224  12.028   9.815  0.00  0.00    -0.206 F 
HETATM   11  C   UNK N   1      35.113  14.105   9.452  0.00  0.00     0.057 A 
HETATM   12  C   UNK N   1      34.106  14.859   8.822  0.00  0.00     0.011 A 
HETATM   13  C   UNK N   1      33.939  16.255   9.055  0.00  0.00     0.058 A 
ENDROOT
BRANCH   3  14
HETATM   14  C   UNK N   1      30.915  16.790   6.704  0.00  0.00    -0.009 A 
HETATM   15  C   UNK N   1      31.006  17.118   5.346  0.00  0.00     0.014 A 
HETATM   16  C   UNK N   1      29.920  17.669   4.673  0.00  0.00     0.013 A 
HETATM   17  C   UNK N   1      28.712  17.906   5.344  0.00  0.00    -0.023 A 
HETATM   18  C   UNK N   1      28.617  17.579   6.701  0.00  0.00     0.013 A 
HETATM   19  C   UNK N   1      29.705  17.029   7.372  0.00  0.00     0.014 A 
BRANCH  17  20
HETATM   20  C   UNK N   1      27.562  18.494   4.612  0.00  0.00     0.013 A 
HETATM   21  C   UNK N   1      26.632  17.633   4.006  0.00  0.00     0.015 A 
HETATM   22  C   UNK N   1      25.536  18.141   3.308  0.00  0.00     0.001 A 
HETATM   23  C   UNK N   1      25.356  19.519   3.205  0.00  0.00     0.003 A 
HETATM   24  C   UNK N   1      26.268  20.392   3.799  0.00  0.00     0.043 A 
HETATM   25  C   UNK N   1      27.369  19.893   4.501  0.00  0.00     0.127 A 
HETATM   26  F   UNK N   1      28.231  20.777   5.063  0.00  0.00    -0.205 F 
ENDBRANCH  17  20
ENDBRANCH   3  14
BRANCH  13  27
HETATM   27  C   UNK N   1      34.852  17.000  10.006  0.00  0.00     0.177 C 
HETATM   28  O   UNK N   1      35.639  17.835   9.589  0.00  0.00    -0.646 OA
BRANCH  27  29
HETATM   29  O   UNK N   1      34.824  16.766  11.332  0.00  0.00    -0.773 OA
HETATM   30  H   UNK N   1      34.321  17.321  11.895  0.00  0.00     0.167 HD
ENDBRANCH  27  29
ENDBRANCH  13  27
TORSDOF 4
ENDMDL
MODEL 8
REMARK VINA RESULT:      -7.6      3.448      9.117
REMARK  4 active torsions:
REMARK  status: ('A' for Active; 'I' for Inactive)
REMARK    1  A    between atoms: C_3  and  C_17 
REMARK    2  A    between atoms: C_13  and  C_14 
REMARK    3  A    between atoms: C_14  and  O_15 
REMARK    4  A    between atoms: C_20  and  C_23 
ROOT
HETATM    1  C   UNK N   1      24.639  15.667   6.083  0.00  0.00     0.052 C 
HETATM    2  C   UNK N   1      24.156  16.835   5.279  0.00  0.00    -0.017 A 
HETATM    3  C   UNK N   1      25.085  17.781   4.754  0.00  0.00     0.050 A 
HETATM    4  N   UNK N   1      24.626  18.829   4.030  0.00  0.00    -0.354 N 
ATOM      5  HN  UNK N   1      25.303  19.497   3.662  1.00  0.00     0.166 HD
HETATM    6  C   UNK N   1      23.320  19.035   3.773  0.00  0.00     0.044 A 
HETATM    7  C   UNK N   1      22.950  20.148   3.016  0.00  0.00     0.033 A 
HETATM    8  C   UNK N   1      21.608  20.389   2.732  0.00  0.00     0.044 A 
HETATM    9  C   UNK N   1      20.633  19.514   3.207  0.00  0.00     0.117 A 
HETATM   10  F   UNK N   1      19.328  19.748   2.932  0.00  0.00    -0.206 F 
HETATM   11  C   UNK N   1      20.999  18.398   3.965  0.00  0.00     0.057 A 
HETATM   12  C   UNK N   1      22.349  18.138   4.262  0.00  0.00     0.011 A 
HETATM   13  C   UNK N   1      22.758  17.011   5.032  0.00  0.00     0.058 A 
ENDROOT
BRANCH   3  14
HETATM   14  C   UNK N   1      26.562  17.705   4.943  0.00  0.00    -0.009 A 
HETATM   15  C   UNK N   1      27.244  18.419   5.936  0.00  0.00     0.014 A 
HETATM   16  C   UNK N   1      28.625  18.311   6.068  0.00  0.00     0.013 A 
HETATM   17  C   UNK N   1      29.360  17.484   5.206  0.00  0.00    -0.023 A 
HETATM   18  C   UNK N   1      28.682  16.770   4.213  0.00  0.00     0.013 A 
HETATM   19  C   UNK N   1      27.301  16.879   4.084  0.00  0.00     0.014 A 
BRANCH  17  20
HETATM   20  C   UNK N   1      30.833  17.380   5.360  0.00  0.00     0.013 A 
HETATM   21  C   UNK N   1      31.652  17.658   4.252  0.00  0.00     0.015 A 
HETATM   22  C   UNK N   1      33.041  17.573   4.350  0.00  0.00     0.001 A 
HETATM   23  C   UNK N   1      33.631  17.208   5.558  0.00  0.00     0.003 A 
HETATM   24  C   UNK N   1      32.836  16.928   6.670  0.00  0.00     0.043 A 
HETATM   25  C   UNK N   1      31.444  17.010   6.583  0.00  0.00     0.127 A 
HETATM   26  F   UNK N   1      30.710  16.728   7.688  0.00  0.00    -0.205 F 
ENDBRANCH  17  20
ENDBRANCH   3  14
BRANCH  13  27
HETATM   27  C   UNK N   1      21.742  16.027   5.573  0.00  0.00     0.177 C 
HETATM   28  O   UNK N   1      21.251  16.184   6.679  0.00  0.00    -0.646 OA
BRANCH  27  29
HETATM   29  O   UNK N   1      21.351  14.957   4.855  0.00  0.00    -0.773 OA
HETATM   30  H   UNK N   1      20.983  14.212   5.288  0.00  0.00     0.167 HD
ENDBRANCH  27  29
ENDBRANCH  13  27
TORSDOF 4
ENDMDL
MODEL 9
REMARK VINA RESULT:      -7.6      3.157      8.504
REMARK  4 active torsions:
REMARK  status: ('A' for Active; 'I' for Inactive)
REMARK    1  A    between atoms: C_3  and  C_17 
REMARK    2  A    between atoms: C_13  and  C_14 
REMARK    3  A    between atoms: C_14  and  O_15 
REMARK    4  A    between atoms: C_20  and  C_23 
ROOT
HETATM    1  C   UNK N   1      30.562  16.473   7.629  0.00  0.00     0.052 C 
HETATM    2  C   UNK N   1      29.773  17.405   6.760  0.00  0.00    -0.017 A 
HETATM    3  C   UNK N   1      29.904  17.348   5.342  0.00  0.00     0.050 A 
HETATM    4  N   UNK N   1      29.181  18.200   4.576  0.00  0.00    -0.354 N 
ATOM      5  HN  UNK N   1      29.285  18.148   3.562  1.00  0.00     0.166 HD
HETATM    6  C   UNK N   1      28.332  19.113   5.084  0.00  0.00     0.044 A 
HETATM    7  C   UNK N   1      27.633  19.946   4.207  0.00  0.00     0.033 A 
HETATM    8  C   UNK N   1      26.748  20.900   4.702  0.00  0.00     0.044 A 
HETATM    9  C   UNK N   1      26.559  21.023   6.077  0.00  0.00     0.117 A 
HETATM   10  F   UNK N   1      25.699  21.950   6.558  0.00  0.00    -0.206 F 
HETATM   11  C   UNK N   1      27.257  20.191   6.958  0.00  0.00     0.057 A 
HETATM   12  C   UNK N   1      28.156  19.222   6.479  0.00  0.00     0.011 A 
HETATM   13  C   UNK N   1      28.883  18.358   7.348  0.00  0.00     0.058 A 
ENDROOT
BRANCH   3  14
HETATM   14  C   UNK N   1      30.796  16.401   4.614  0.00  0.00    -0.009 A 
HETATM   15  C   UNK N   1      30.611  15.014   4.625  0.00  0.00     0.014 A 
HETATM   16  C   UNK N   1      31.475  14.175   3.928  0.00  0.00     0.013 A 
HETATM   17  C   UNK N   1      32.549  14.706   3.199  0.00  0.00    -0.023 A 
HETATM   18  C   UNK N   1      32.736  16.093   3.186  0.00  0.00     0.013 A 
HETATM   19  C   UNK N   1      31.871  16.929   3.885  0.00  0.00     0.014 A 
BRANCH  17  20
HETATM   20  C   UNK N   1      33.462  13.799   2.460  0.00  0.00     0.013 A 
HETATM   21  C   UNK N   1      34.845  13.892   2.691  0.00  0.00     0.015 A 
HETATM   22  C   UNK N   1      35.740  13.060   2.019  0.00  0.00     0.001 A 
HETATM   23  C   UNK N   1      35.265  12.121   1.106  0.00  0.00     0.003 A 
HETATM   24  C   UNK N   1      33.895  12.012   0.862  0.00  0.00     0.043 A 
HETATM   25  C   UNK N   1      32.990  12.841   1.530  0.00  0.00     0.127 A 
HETATM   26  F   UNK N   1      31.667  12.701   1.262  0.00  0.00    -0.205 F 
ENDBRANCH  17  20
ENDBRANCH   3  14
BRANCH  13  27
HETATM   27  C   UNK N   1      28.718  18.447   8.851  0.00  0.00     0.177 C 
HETATM   28  O   UNK N   1      29.593  18.938   9.546  0.00  0.00    -0.646 OA
BRANCH  27  29
HETATM   29  O   UNK N   1      27.608  17.990   9.462  0.00  0.00    -0.773 OA
HETATM   30  H   UNK N   1      27.354  17.094   9.363  0.00  0.00     0.167 HD
ENDBRANCH  27  29
ENDBRANCH  13  27
TORSDOF 4
ENDMDL
