MODEL 1
REMARK VINA RESULT:      -5.4      0.000      0.000
REMARK  9 active torsions:
REMARK  status: ('A' for Active; 'I' for Inactive)
REMARK    1  A    between atoms: C_5  and  C_2 
REMARK    2  A    between atoms: C_6  and  C_2 
REMARK    3  A    between atoms: C_4  and  C_3 
REMARK    4  A    between atoms: P_15  and  C_3 
REMARK    5  A    between atoms: C_7  and  C_4 
REMARK    6  A    between atoms: C_5  and  N_8 
REMARK    7  A    between atoms: P_15  and  C_5 
REMARK    8  A    between atoms: O_10  and  C_6 
REMARK    9  A    between atoms: O_12  and  C_7 
ROOT
HETATM    1  O   UNK N   1      19.363  14.195   9.840  0.00  0.00    -0.348 OA
HETATM    2  O   UNK N   1      20.342  13.510   7.598  0.00  0.00    -0.672 OA
HETATM    3  P   UNK N   1      20.691  14.479   8.760  0.00  0.00     0.122 P 
HETATM    4  H   UNK N   1      18.579  14.087  10.400  0.00  0.00     0.218 HD
ENDROOT
BRANCH   3   5
HETATM    5  C   UNK N   1      22.237  13.797   9.566  0.00  0.00     0.111 C 
BRANCH   5   6
HETATM    6  C   UNK N   1      22.076  12.308   9.897  0.00  0.00     0.088 C 
HETATM    7  C   UNK N   1      23.355  11.578   9.517  0.00  0.00     0.021 C 
BRANCH   6   8
HETATM    8  C   UNK N   1      21.779  12.075  11.353  0.00  0.00     0.143 C 
HETATM    9  O   UNK N   1      22.701  11.951  12.147  0.00  0.00    -0.650 OA
BRANCH   8  10
HETATM   10  O   UNK N   1      20.509  11.971  11.793  0.00  0.00    -0.776 OA
HETATM   11  H   UNK N   1      20.179  11.164  12.133  0.00  0.00     0.167 HD
ENDBRANCH   8  10
ENDBRANCH   6   8
ENDBRANCH   5   6
ENDBRANCH   3   5
BRANCH   3  12
HETATM   12  C   UNK N   1      20.520  16.192   8.046  0.00  0.00     0.168 C 
BRANCH  12  13
HETATM   13  C   UNK N   1      19.581  17.033   8.907  0.00  0.00     0.144 C 
BRANCH  13  14
HETATM   14  C   UNK N   1      19.958  18.488   8.908  0.00  0.00     0.141 C 
HETATM   15  O   UNK N   1      20.525  18.970   7.942  0.00  0.00    -0.650 OA
BRANCH  14  16
HETATM   16  O   UNK N   1      19.695  19.258   9.981  0.00  0.00    -0.776 OA
HETATM   17  H   UNK N   1      19.739  20.193  10.023  0.00  0.00     0.167 HD
ENDBRANCH  14  16
ENDBRANCH  13  14
ENDBRANCH  12  13
BRANCH  12  18
HETATM   18  N   UNK N   1      19.993  16.073   6.697  0.00  0.00    -0.418 N 
HETATM   19  H   UNK N   1      19.813  16.816   6.021  0.00  0.00     0.150 HD
HETATM   20  H   UNK N   1      19.775  15.126   6.385  0.00  0.00     0.150 HD
ENDBRANCH  12  18
ENDBRANCH   3  12
TORSDOF 9
ENDMDL
MODEL 2
REMARK VINA RESULT:      -5.4     12.066     13.608
REMARK  9 active torsions:
REMARK  status: ('A' for Active; 'I' for Inactive)
REMARK    1  A    between atoms: C_5  and  C_2 
REMARK    2  A    between atoms: C_6  and  C_2 
REMARK    3  A    between atoms: C_4  and  C_3 
REMARK    4  A    between atoms: P_15  and  C_3 
REMARK    5  A    between atoms: C_7  and  C_4 
REMARK    6  A    between atoms: C_5  and  N_8 
REMARK    7  A    between atoms: P_15  and  C_5 
REMARK    8  A    between atoms: O_10  and  C_6 
REMARK    9  A    between atoms: O_12  and  C_7 
ROOT
HETATM    1  O   UNK N   1      35.165  19.359   8.436  0.00  0.00    -0.348 OA
HETATM    2  O   UNK N   1      34.657  17.476   6.808  0.00  0.00    -0.672 OA
HETATM    3  P   UNK N   1      34.295  17.867   8.266  0.00  0.00     0.122 P 
HETATM    4  H   UNK N   1      35.716  20.149   8.548  0.00  0.00     0.218 HD
ENDROOT
BRANCH   3   5
HETATM    5  C   UNK N   1      32.467  18.271   8.263  0.00  0.00     0.111 C 
BRANCH   5   6
HETATM    6  C   UNK N   1      31.626  17.020   7.983  0.00  0.00     0.088 C 
HETATM    7  C   UNK N   1      30.345  17.096   8.800  0.00  0.00     0.021 C 
BRANCH   6   8
HETATM    8  C   UNK N   1      31.284  16.877   6.525  0.00  0.00     0.143 C 
HETATM    9  O   UNK N   1      30.237  17.343   6.099  0.00  0.00    -0.650 OA
BRANCH   8  10
HETATM   10  O   UNK N   1      32.103  16.214   5.684  0.00  0.00    -0.776 OA
HETATM   11  H   UNK N   1      32.346  16.579   4.857  0.00  0.00     0.167 HD
ENDBRANCH   8  10
ENDBRANCH   6   8
ENDBRANCH   5   6
ENDBRANCH   3   5
BRANCH   3  12
HETATM   12  C   UNK N   1      35.108  16.579   9.341  0.00  0.00     0.168 C 
BRANCH  12  13
HETATM   13  C   UNK N   1      34.381  15.243   9.209  0.00  0.00     0.144 C 
BRANCH  13  14
HETATM   14  C   UNK N   1      33.862  14.744  10.528  0.00  0.00     0.141 C 
HETATM   15  O   UNK N   1      34.564  14.033  11.227  0.00  0.00    -0.650 OA
BRANCH  14  16
HETATM   16  O   UNK N   1      32.616  15.056  10.931  0.00  0.00    -0.776 OA
HETATM   17  H   UNK N   1      31.895  14.466  11.030  0.00  0.00     0.167 HD
ENDBRANCH  14  16
ENDBRANCH  13  14
ENDBRANCH  12  13
BRANCH  12  18
HETATM   18  N   UNK N   1      35.063  17.042  10.718  0.00  0.00    -0.418 N 
HETATM   19  H   UNK N   1      34.315  17.553  11.188  0.00  0.00     0.150 HD
HETATM   20  H   UNK N   1      35.882  16.829  11.287  0.00  0.00     0.150 HD
ENDBRANCH  12  18
ENDBRANCH   3  12
TORSDOF 9
ENDMDL
MODEL 3
REMARK VINA RESULT:      -5.3      6.970      9.009
REMARK  9 active torsions:
REMARK  status: ('A' for Active; 'I' for Inactive)
REMARK    1  A    between atoms: C_5  and  C_2 
REMARK    2  A    between atoms: C_6  and  C_2 
REMARK    3  A    between atoms: C_4  and  C_3 
REMARK    4  A    between atoms: P_15  and  C_3 
REMARK    5  A    between atoms: C_7  and  C_4 
REMARK    6  A    between atoms: C_5  and  N_8 
REMARK    7  A    between atoms: P_15  and  C_5 
REMARK    8  A    between atoms: O_10  and  C_6 
REMARK    9  A    between atoms: O_12  and  C_7 
ROOT
HETATM    1  O   UNK N   1      20.735  20.035   4.213  0.00  0.00    -0.348 OA
HETATM    2  O   UNK N   1      21.073  17.833   5.434  0.00  0.00    -0.672 OA
HETATM    3  P   UNK N   1      21.174  18.372   3.982  0.00  0.00     0.122 P 
HETATM    4  H   UNK N   1      20.415  20.941   4.340  0.00  0.00     0.218 HD
ENDROOT
BRANCH   3   5
HETATM    5  C   UNK N   1      22.989  18.319   3.527  0.00  0.00     0.111 C 
BRANCH   5   6
HETATM    6  C   UNK N   1      23.710  19.592   3.986  0.00  0.00     0.088 C 
HETATM    7  C   UNK N   1      25.127  19.231   4.405  0.00  0.00     0.021 C 
BRANCH   6   8
HETATM    8  C   UNK N   1      23.756  20.642   2.910  0.00  0.00     0.143 C 
HETATM    9  O   UNK N   1      24.713  20.689   2.150  0.00  0.00    -0.650 OA
BRANCH   8  10
HETATM   10  O   UNK N   1      22.771  21.554   2.789  0.00  0.00    -0.776 OA
HETATM   11  H   UNK N   1      21.998  21.370   2.293  0.00  0.00     0.167 HD
ENDBRANCH   8  10
ENDBRANCH   6   8
ENDBRANCH   5   6
ENDBRANCH   3   5
BRANCH   3  12
HETATM   12  C   UNK N   1      19.806  17.522   3.042  0.00  0.00     0.168 C 
BRANCH  12  13
HETATM   13  C   UNK N   1      20.391  16.578   1.995  0.00  0.00     0.144 C 
BRANCH  13  14
HETATM   14  C   UNK N   1      19.811  16.812   0.628  0.00  0.00     0.141 C 
HETATM   15  O   UNK N   1      20.411  17.505  -0.176  0.00  0.00    -0.650 OA
BRANCH  14  16
HETATM   16  O   UNK N   1      18.619  16.282   0.295  0.00  0.00    -0.776 OA
HETATM   17  H   UNK N   1      17.824  16.750   0.134  0.00  0.00     0.167 HD
ENDBRANCH  14  16
ENDBRANCH  13  14
ENDBRANCH  12  13
BRANCH  12  18
HETATM   18  N   UNK N   1      18.993  18.542   2.401  0.00  0.00    -0.418 N 
HETATM   19  H   UNK N   1      19.255  19.175   1.644  0.00  0.00     0.150 HD
HETATM   20  H   UNK N   1      18.040  18.639   2.752  0.00  0.00     0.150 HD
ENDBRANCH  12  18
ENDBRANCH   3  12
TORSDOF 9
ENDMDL
MODEL 4
REMARK VINA RESULT:      -5.2     12.215     13.688
REMARK  9 active torsions:
REMARK  status: ('A' for Active; 'I' for Inactive)
REMARK    1  A    between atoms: C_5  and  C_2 
REMARK    2  A    between atoms: C_6  and  C_2 
REMARK    3  A    between atoms: C_4  and  C_3 
REMARK    4  A    between atoms: P_15  and  C_3 
REMARK    5  A    between atoms: C_7  and  C_4 
REMARK    6  A    between atoms: C_5  and  N_8 
REMARK    7  A    between atoms: P_15  and  C_5 
REMARK    8  A    between atoms: O_10  and  C_6 
REMARK    9  A    between atoms: O_12  and  C_7 
ROOT
HETATM    1  O   UNK N   1      32.638  17.901   8.925  0.00  0.00    -0.348 OA
HETATM    2  O   UNK N   1      34.815  19.065   8.324  0.00  0.00    -0.672 OA
HETATM    3  P   UNK N   1      34.211  17.637   8.240  0.00  0.00     0.122 P 
HETATM    4  H   UNK N   1      31.793  18.041   9.379  0.00  0.00     0.218 HD
ENDROOT
BRANCH   3   5
HETATM    5  C   UNK N   1      33.984  17.268   6.419  0.00  0.00     0.111 C 
BRANCH   5   6
HETATM    6  C   UNK N   1      32.500  17.109   6.069  0.00  0.00     0.088 C 
HETATM    7  C   UNK N   1      32.298  17.472   4.606  0.00  0.00     0.021 C 
BRANCH   6   8
HETATM    8  C   UNK N   1      32.002  15.711   6.313  0.00  0.00     0.143 C 
HETATM    9  O   UNK N   1      31.659  15.378   7.439  0.00  0.00    -0.650 OA
BRANCH   8  10
HETATM   10  O   UNK N   1      31.957  14.807   5.314  0.00  0.00    -0.776 OA
HETATM   11  H   UNK N   1      31.242  14.208   5.235  0.00  0.00     0.167 HD
ENDBRANCH   8  10
ENDBRANCH   6   8
ENDBRANCH   5   6
ENDBRANCH   3   5
BRANCH   3  12
HETATM   12  C   UNK N   1      35.210  16.605   9.429  0.00  0.00     0.168 C 
BRANCH  12  13
HETATM   13  C   UNK N   1      34.710  15.163   9.428  0.00  0.00     0.144 C 
BRANCH  13  14
HETATM   14  C   UNK N   1      33.762  14.888  10.562  0.00  0.00     0.141 C 
HETATM   15  O   UNK N   1      34.180  14.399  11.598  0.00  0.00    -0.650 OA
BRANCH  14  16
HETATM   16  O   UNK N   1      32.448  15.156  10.431  0.00  0.00    -0.776 OA
HETATM   17  H   UNK N   1      32.049  15.685   9.769  0.00  0.00     0.167 HD
ENDBRANCH  14  16
ENDBRANCH  13  14
ENDBRANCH  12  13
BRANCH  12  18
HETATM   18  N   UNK N   1      35.078  17.183  10.756  0.00  0.00    -0.418 N 
HETATM   19  H   UNK N   1      34.283  17.127  11.392  0.00  0.00     0.150 HD
HETATM   20  H   UNK N   1      35.882  17.712  11.094  0.00  0.00     0.150 HD
ENDBRANCH  12  18
ENDBRANCH   3  12
TORSDOF 9
ENDMDL
MODEL 5
REMARK VINA RESULT:      -5.2     12.382     13.373
REMARK  9 active torsions:
REMARK  status: ('A' for Active; 'I' for Inactive)
REMARK    1  A    between atoms: C_5  and  C_2 
REMARK    2  A    between atoms: C_6  and  C_2 
REMARK    3  A    between atoms: C_4  and  C_3 
REMARK    4  A    between atoms: P_15  and  C_3 
REMARK    5  A    between atoms: C_7  and  C_4 
REMARK    6  A    between atoms: C_5  and  N_8 
REMARK    7  A    between atoms: P_15  and  C_5 
REMARK    8  A    between atoms: O_10  and  C_6 
REMARK    9  A    between atoms: O_12  and  C_7 
ROOT
HETATM    1  O   UNK N   1      31.860  15.193  10.401  0.00  0.00    -0.348 OA
HETATM    2  O   UNK N   1      32.294  13.989   8.205  0.00  0.00    -0.672 OA
HETATM    3  P   UNK N   1      32.815  15.246   8.952  0.00  0.00     0.122 P 
HETATM    4  H   UNK N   1      31.269  15.199  11.169  0.00  0.00     0.218 HD
ENDROOT
BRANCH   3   5
HETATM    5  C   UNK N   1      34.588  14.878   9.426  0.00  0.00     0.111 C 
BRANCH   5   6
HETATM    6  C   UNK N   1      34.748  14.799  10.949  0.00  0.00     0.088 C 
HETATM    7  C   UNK N   1      34.914  13.342  11.352  0.00  0.00     0.021 C 
BRANCH   6   8
HETATM    8  C   UNK N   1      35.926  15.594  11.442  0.00  0.00     0.143 C 
HETATM    9  O   UNK N   1      36.398  16.477  10.739  0.00  0.00    -0.650 OA
BRANCH   8  10
HETATM   10  O   UNK N   1      36.491  15.328  12.636  0.00  0.00    -0.776 OA
HETATM   11  H   UNK N   1      37.365  15.602  12.831  0.00  0.00     0.167 HD
ENDBRANCH   8  10
ENDBRANCH   6   8
ENDBRANCH   5   6
ENDBRANCH   3   5
BRANCH   3  12
HETATM   12  C   UNK N   1      32.257  16.700   7.927  0.00  0.00     0.168 C 
BRANCH  12  13
HETATM   13  C   UNK N   1      32.875  17.991   8.458  0.00  0.00     0.144 C 
BRANCH  13  14
HETATM   14  C   UNK N   1      34.209  18.285   7.833  0.00  0.00     0.141 C 
HETATM   15  O   UNK N   1      34.996  19.023   8.400  0.00  0.00    -0.650 OA
BRANCH  14  16
HETATM   16  O   UNK N   1      34.531  17.756   6.636  0.00  0.00    -0.776 OA
HETATM   17  H   UNK N   1      34.338  18.119   5.795  0.00  0.00     0.167 HD
ENDBRANCH  14  16
ENDBRANCH  13  14
ENDBRANCH  12  13
BRANCH  12  18
HETATM   18  N   UNK N   1      30.807  16.773   7.991  0.00  0.00    -0.418 N 
HETATM   19  H   UNK N   1      30.183  17.394   7.476  0.00  0.00     0.150 HD
HETATM   20  H   UNK N   1      30.356  16.121   8.632  0.00  0.00     0.150 HD
ENDBRANCH  12  18
ENDBRANCH   3  12
TORSDOF 9
ENDMDL
MODEL 6
REMARK VINA RESULT:      -5.2      4.864      6.469
REMARK  9 active torsions:
REMARK  status: ('A' for Active; 'I' for Inactive)
REMARK    1  A    between atoms: C_5  and  C_2 
REMARK    2  A    between atoms: C_6  and  C_2 
REMARK    3  A    between atoms: C_4  and  C_3 
REMARK    4  A    between atoms: P_15  and  C_3 
REMARK    5  A    between atoms: C_7  and  C_4 
REMARK    6  A    between atoms: C_5  and  N_8 
REMARK    7  A    between atoms: P_15  and  C_5 
REMARK    8  A    between atoms: O_10  and  C_6 
REMARK    9  A    between atoms: O_12  and  C_7 
ROOT
HETATM    1  O   UNK N   1      18.889  16.618   4.222  0.00  0.00    -0.348 OA
HETATM    2  O   UNK N   1      20.991  16.225   2.847  0.00  0.00    -0.672 OA
HETATM    3  P   UNK N   1      20.369  17.362   3.702  0.00  0.00     0.122 P 
HETATM    4  H   UNK N   1      18.032  16.223   4.442  0.00  0.00     0.218 HD
ENDROOT
BRANCH   3   5
HETATM    5  C   UNK N   1      21.469  17.551   5.205  0.00  0.00     0.111 C 
BRANCH   5   6
HETATM    6  C   UNK N   1      20.947  16.714   6.380  0.00  0.00     0.088 C 
HETATM    7  C   UNK N   1      21.976  15.648   6.720  0.00  0.00     0.021 C 
BRANCH   6   8
HETATM    8  C   UNK N   1      20.670  17.552   7.598  0.00  0.00     0.143 C 
HETATM    9  O   UNK N   1      20.387  17.008   8.656  0.00  0.00    -0.650 OA
BRANCH   8  10
HETATM   10  O   UNK N   1      20.700  18.898   7.535  0.00  0.00    -0.776 OA
HETATM   11  H   UNK N   1      21.314  19.394   8.038  0.00  0.00     0.167 HD
ENDBRANCH   8  10
ENDBRANCH   6   8
ENDBRANCH   5   6
ENDBRANCH   3   5
BRANCH   3  12
HETATM   12  C   UNK N   1      19.958  18.722   2.496  0.00  0.00     0.168 C 
BRANCH  12  13
HETATM   13  C   UNK N   1      20.345  20.080   3.076  0.00  0.00     0.144 C 
BRANCH  13  14
HETATM   14  C   UNK N   1      21.336  20.808   2.212  0.00  0.00     0.141 C 
HETATM   15  O   UNK N   1      21.446  20.513   1.033  0.00  0.00    -0.650 OA
BRANCH  14  16
HETATM   16  O   UNK N   1      22.121  21.768   2.737  0.00  0.00    -0.776 OA
HETATM   17  H   UNK N   1      21.865  22.423   3.356  0.00  0.00     0.167 HD
ENDBRANCH  14  16
ENDBRANCH  13  14
ENDBRANCH  12  13
BRANCH  12  18
HETATM   18  N   UNK N   1      18.530  18.679   2.230  0.00  0.00    -0.418 N 
HETATM   19  H   UNK N   1      17.777  19.136   2.746  0.00  0.00     0.150 HD
HETATM   20  H   UNK N   1      18.242  18.119   1.427  0.00  0.00     0.150 HD
ENDBRANCH  12  18
ENDBRANCH   3  12
TORSDOF 9
ENDMDL
MODEL 7
REMARK VINA RESULT:      -5.2     13.071     14.181
REMARK  9 active torsions:
REMARK  status: ('A' for Active; 'I' for Inactive)
REMARK    1  A    between atoms: C_5  and  C_2 
REMARK    2  A    between atoms: C_6  and  C_2 
REMARK    3  A    between atoms: C_4  and  C_3 
REMARK    4  A    between atoms: P_15  and  C_3 
REMARK    5  A    between atoms: C_7  and  C_4 
REMARK    6  A    between atoms: C_5  and  N_8 
REMARK    7  A    between atoms: P_15  and  C_5 
REMARK    8  A    between atoms: O_10  and  C_6 
REMARK    9  A    between atoms: O_12  and  C_7 
ROOT
HETATM    1  O   UNK N   1      32.874  15.174  10.855  0.00  0.00    -0.348 OA
HETATM    2  O   UNK N   1      32.543  13.594   8.893  0.00  0.00    -0.672 OA
HETATM    3  P   UNK N   1      33.695  14.421   9.524  0.00  0.00     0.122 P 
HETATM    4  H   UNK N   1      32.390  15.649  11.548  0.00  0.00     0.218 HD
ENDROOT
BRANCH   3   5
HETATM    5  C   UNK N   1      34.907  13.181  10.230  0.00  0.00     0.111 C 
BRANCH   5   6
HETATM    6  C   UNK N   1      35.894  13.858  11.188  0.00  0.00     0.088 C 
HETATM    7  C   UNK N   1      36.719  12.786  11.883  0.00  0.00     0.021 C 
BRANCH   6   8
HETATM    8  C   UNK N   1      36.811  14.817  10.479  0.00  0.00     0.143 C 
HETATM    9  O   UNK N   1      37.539  14.409   9.584  0.00  0.00    -0.650 OA
BRANCH   8  10
HETATM   10  O   UNK N   1      36.866  16.115  10.835  0.00  0.00    -0.776 OA
HETATM   11  H   UNK N   1      36.770  16.377  11.729  0.00  0.00     0.167 HD
ENDBRANCH   8  10
ENDBRANCH   6   8
ENDBRANCH   5   6
ENDBRANCH   3   5
BRANCH   3  12
HETATM   12  C   UNK N   1      34.111  15.732   8.266  0.00  0.00     0.168 C 
BRANCH  12  13
HETATM   13  C   UNK N   1      33.906  17.122   8.862  0.00  0.00     0.144 C 
BRANCH  13  14
HETATM   14  C   UNK N   1      34.520  18.202   8.015  0.00  0.00     0.141 C 
HETATM   15  O   UNK N   1      34.359  18.191   6.806  0.00  0.00    -0.650 OA
BRANCH  14  16
HETATM   16  O   UNK N   1      35.267  19.168   8.582  0.00  0.00    -0.776 OA
HETATM   17  H   UNK N   1      35.730  19.850   8.137  0.00  0.00     0.167 HD
ENDBRANCH  14  16
ENDBRANCH  13  14
ENDBRANCH  12  13
BRANCH  12  18
HETATM   18  N   UNK N   1      33.246  15.547   7.112  0.00  0.00    -0.418 N 
HETATM   19  H   UNK N   1      32.689  14.729   6.866  0.00  0.00     0.150 HD
HETATM   20  H   UNK N   1      33.190  16.334   6.467  0.00  0.00     0.150 HD
ENDBRANCH  12  18
ENDBRANCH   3  12
TORSDOF 9
ENDMDL
MODEL 8
REMARK VINA RESULT:      -5.2     13.405     15.249
REMARK  9 active torsions:
REMARK  status: ('A' for Active; 'I' for Inactive)
REMARK    1  A    between atoms: C_5  and  C_2 
REMARK    2  A    between atoms: C_6  and  C_2 
REMARK    3  A    between atoms: C_4  and  C_3 
REMARK    4  A    between atoms: P_15  and  C_3 
REMARK    5  A    between atoms: C_7  and  C_4 
REMARK    6  A    between atoms: C_5  and  N_8 
REMARK    7  A    between atoms: P_15  and  C_5 
REMARK    8  A    between atoms: O_10  and  C_6 
REMARK    9  A    between atoms: O_12  and  C_7 
ROOT
HETATM    1  O   UNK N   1      33.282  15.052  11.101  0.00  0.00    -0.348 OA
HETATM    2  O   UNK N   1      34.713  17.006  10.330  0.00  0.00    -0.672 OA
HETATM    3  P   UNK N   1      34.468  15.527   9.926  0.00  0.00     0.122 P 
HETATM    4  H   UNK N   1      32.680  14.775  11.808  0.00  0.00     0.218 HD
ENDROOT
BRANCH   3   5
HETATM    5  C   UNK N   1      33.626  15.572   8.254  0.00  0.00     0.111 C 
BRANCH   5   6
HETATM    6  C   UNK N   1      34.569  16.119   7.175  0.00  0.00     0.088 C 
HETATM    7  C   UNK N   1      34.406  15.289   5.912  0.00  0.00     0.021 C 
BRANCH   6   8
HETATM    8  C   UNK N   1      34.302  17.566   6.864  0.00  0.00     0.143 C 
HETATM    9  O   UNK N   1      33.919  17.885   5.747  0.00  0.00    -0.650 OA
BRANCH   8  10
HETATM   10  O   UNK N   1      34.506  18.523   7.790  0.00  0.00    -0.776 OA
HETATM   11  H   UNK N   1      33.898  18.661   8.488  0.00  0.00     0.167 HD
ENDBRANCH   8  10
ENDBRANCH   6   8
ENDBRANCH   5   6
ENDBRANCH   3   5
BRANCH   3  12
HETATM   12  C   UNK N   1      36.064  14.640  10.300  0.00  0.00     0.168 C 
BRANCH  12  13
HETATM   13  C   UNK N   1      35.788  13.366  11.095  0.00  0.00     0.144 C 
BRANCH  13  14
HETATM   14  C   UNK N   1      35.999  13.558  12.571  0.00  0.00     0.141 C 
HETATM   15  O   UNK N   1      35.059  13.868  13.284  0.00  0.00    -0.650 OA
BRANCH  14  16
HETATM   16  O   UNK N   1      37.226  13.414  13.107  0.00  0.00    -0.776 OA
HETATM   17  H   UNK N   1      37.764  14.094  13.462  0.00  0.00     0.167 HD
ENDBRANCH  14  16
ENDBRANCH  13  14
ENDBRANCH  12  13
BRANCH  12  18
HETATM   18  N   UNK N   1      36.914  15.536  11.066  0.00  0.00    -0.418 N 
HETATM   19  H   UNK N   1      37.327  16.421  10.770  0.00  0.00     0.150 HD
HETATM   20  H   UNK N   1      37.127  15.243  12.019  0.00  0.00     0.150 HD
ENDBRANCH  12  18
ENDBRANCH   3  12
TORSDOF 9
ENDMDL
MODEL 9
REMARK VINA RESULT:      -5.1     17.286     18.119
REMARK  9 active torsions:
REMARK  status: ('A' for Active; 'I' for Inactive)
REMARK    1  A    between atoms: C_5  and  C_2 
REMARK    2  A    between atoms: C_6  and  C_2 
REMARK    3  A    between atoms: C_4  and  C_3 
REMARK    4  A    between atoms: P_15  and  C_3 
REMARK    5  A    between atoms: C_7  and  C_4 
REMARK    6  A    between atoms: C_5  and  N_8 
REMARK    7  A    between atoms: P_15  and  C_5 
REMARK    8  A    between atoms: O_10  and  C_6 
REMARK    9  A    between atoms: O_12  and  C_7 
ROOT
HETATM    1  O   UNK N   1      27.109  24.039  -2.753  0.00  0.00    -0.348 OA
HETATM    2  O   UNK N   1      27.972  23.417  -5.061  0.00  0.00    -0.672 OA
HETATM    3  P   UNK N   1      28.078  24.611  -4.075  0.00  0.00     0.122 P 
HETATM    4  H   UNK N   1      26.504  23.745  -2.056  0.00  0.00     0.218 HD
ENDROOT
BRANCH   3   5
HETATM    5  C   UNK N   1      29.858  24.658  -3.496  0.00  0.00     0.111 C 
BRANCH   5   6
HETATM    6  C   UNK N   1      30.539  23.298  -3.695  0.00  0.00     0.088 C 
HETATM    7  C   UNK N   1      31.812  23.498  -4.502  0.00  0.00     0.021 C 
BRANCH   6   8
HETATM    8  C   UNK N   1      30.872  22.630  -2.388  0.00  0.00     0.143 C 
HETATM    9  O   UNK N   1      30.322  23.001  -1.361  0.00  0.00    -0.650 OA
BRANCH   8  10
HETATM   10  O   UNK N   1      31.793  21.648  -2.327  0.00  0.00    -0.776 OA
HETATM   11  H   UNK N   1      32.494  21.678  -1.708  0.00  0.00     0.167 HD
ENDBRANCH   8  10
ENDBRANCH   6   8
ENDBRANCH   5   6
ENDBRANCH   3   5
BRANCH   3  12
HETATM   12  C   UNK N   1      27.182  26.020  -4.903  0.00  0.00     0.168 C 
BRANCH  12  13
HETATM   13  C   UNK N   1      27.365  27.307  -4.103  0.00  0.00     0.144 C 
BRANCH  13  14
HETATM   14  C   UNK N   1      26.199  27.586  -3.197  0.00  0.00     0.141 C 
HETATM   15  O   UNK N   1      26.040  26.918  -2.189  0.00  0.00    -0.650 OA
BRANCH  14  16
HETATM   16  O   UNK N   1      25.314  28.553  -3.505  0.00  0.00    -0.776 OA
HETATM   17  H   UNK N   1      25.306  29.430  -3.175  0.00  0.00     0.167 HD
ENDBRANCH  14  16
ENDBRANCH  13  14
ENDBRANCH  12  13
BRANCH  12  18
HETATM   18  N   UNK N   1      25.772  25.676  -4.987  0.00  0.00    -0.418 N 
HETATM   19  H   UNK N   1      25.350  24.834  -5.379  0.00  0.00     0.150 HD
HETATM   20  H   UNK N   1      25.122  26.364  -4.606  0.00  0.00     0.150 HD
ENDBRANCH  12  18
ENDBRANCH   3  12
TORSDOF 9
ENDMDL
