MODEL 1
REMARK VINA RESULT:      -3.0      0.000      0.000
REMARK  3 active torsions:
REMARK  status: ('A' for Active; 'I' for Inactive)
REMARK    1  A    between atoms: C_2  and  C_3 
REMARK    2  A    between atoms: C_3  and  C_4 
REMARK    3  A    between atoms: C_4  and  N_5 
ROOT
HETATM    1  C   UNK N   1      24.666  12.281  10.617  0.00  0.00     0.111 C 
ENDROOT
BRANCH   1   2
HETATM    2  C   UNK N   1      23.246  12.751  10.385  0.00  0.00     0.019 C 
BRANCH   2   3
HETATM    3  C   UNK N   1      22.343  12.070  11.389  0.00  0.00    -0.003 C 
HETATM    4  C   UNK N   1      23.078  11.885  12.699  0.00  0.00     0.005 C 
ENDBRANCH   2   3
ENDBRANCH   1   2
BRANCH   1   5
HETATM    5  N   UNK N   1      25.566  13.415  10.599  0.00  0.00    -0.430 N 
HETATM    6  H   UNK N   1      26.453  13.354  10.098  0.00  0.00     0.149 HD
HETATM    7  H   UNK N   1      25.314  14.275  11.087  0.00  0.00     0.149 HD
ENDBRANCH   1   5
TORSDOF 3
ENDMDL
MODEL 2
REMARK VINA RESULT:      -2.9      1.052      1.738
REMARK  3 active torsions:
REMARK  status: ('A' for Active; 'I' for Inactive)
REMARK    1  A    between atoms: C_2  and  C_3 
REMARK    2  A    between atoms: C_3  and  C_4 
REMARK    3  A    between atoms: C_4  and  N_5 
ROOT
HETATM    1  C   UNK N   1      23.985  12.346  10.397  0.00  0.00     0.111 C 
ENDROOT
BRANCH   1   2
HETATM    2  C   UNK N   1      23.035  12.017  11.528  0.00  0.00     0.019 C 
BRANCH   2   3
HETATM    3  C   UNK N   1      21.617  12.214  11.039  0.00  0.00    -0.003 C 
HETATM    4  C   UNK N   1      21.570  13.356  10.047  0.00  0.00     0.005 C 
ENDBRANCH   2   3
ENDBRANCH   1   2
BRANCH   1   5
HETATM    5  N   UNK N   1      25.237  12.837  10.935  0.00  0.00    -0.430 N 
HETATM    6  H   UNK N   1      25.619  13.725  10.609  0.00  0.00     0.149 HD
HETATM    7  H   UNK N   1      25.736  12.295  11.640  0.00  0.00     0.149 HD
ENDBRANCH   1   5
TORSDOF 3
ENDMDL
MODEL 3
REMARK VINA RESULT:      -2.7      2.368      2.771
REMARK  3 active torsions:
REMARK  status: ('A' for Active; 'I' for Inactive)
REMARK    1  A    between atoms: C_2  and  C_3 
REMARK    2  A    between atoms: C_3  and  C_4 
REMARK    3  A    between atoms: C_4  and  N_5 
ROOT
HETATM    1  C   UNK N   1      23.483  11.914  11.555  0.00  0.00     0.111 C 
ENDROOT
BRANCH   1   2
HETATM    2  C   UNK N   1      22.817  12.739  10.475  0.00  0.00     0.019 C 
BRANCH   2   3
HETATM    3  C   UNK N   1      21.318  12.614  10.628  0.00  0.00    -0.003 C 
HETATM    4  C   UNK N   1      20.631  13.761   9.919  0.00  0.00     0.005 C 
ENDBRANCH   2   3
ENDBRANCH   1   2
BRANCH   1   5
HETATM    5  N   UNK N   1      22.516  11.571  12.576  0.00  0.00    -0.430 N 
HETATM    6  H   UNK N   1      21.999  10.693  12.514  0.00  0.00     0.149 HD
HETATM    7  H   UNK N   1      22.350  12.206  13.357  0.00  0.00     0.149 HD
ENDBRANCH   1   5
TORSDOF 3
ENDMDL
MODEL 4
REMARK VINA RESULT:      -2.7      2.584      2.903
REMARK  3 active torsions:
REMARK  status: ('A' for Active; 'I' for Inactive)
REMARK    1  A    between atoms: C_2  and  C_3 
REMARK    2  A    between atoms: C_3  and  C_4 
REMARK    3  A    between atoms: C_4  and  N_5 
ROOT
HETATM    1  C   UNK N   1      21.694  13.449  10.008  0.00  0.00     0.111 C 
ENDROOT
BRANCH   1   2
HETATM    2  C   UNK N   1      21.669  12.277  10.966  0.00  0.00     0.019 C 
BRANCH   2   3
HETATM    3  C   UNK N   1      23.087  11.982  11.403  0.00  0.00    -0.003 C 
HETATM    4  C   UNK N   1      23.145  11.864  12.911  0.00  0.00     0.005 C 
ENDBRANCH   2   3
ENDBRANCH   1   2
BRANCH   1   5
HETATM    5  N   UNK N   1      20.365  14.011   9.888  0.00  0.00    -0.430 N 
HETATM    6  H   UNK N   1      19.937  14.115   8.968  0.00  0.00     0.149 HD
HETATM    7  H   UNK N   1      19.858  14.304  10.723  0.00  0.00     0.149 HD
ENDBRANCH   1   5
TORSDOF 3
ENDMDL
MODEL 5
REMARK VINA RESULT:      -2.7     21.556     21.981
REMARK  3 active torsions:
REMARK  status: ('A' for Active; 'I' for Inactive)
REMARK    1  A    between atoms: C_2  and  C_3 
REMARK    2  A    between atoms: C_3  and  C_4 
REMARK    3  A    between atoms: C_4  and  N_5 
ROOT
HETATM    1  C   UNK N   1      25.891  28.635  -3.893  0.00  0.00     0.111 C 
ENDROOT
BRANCH   1   2
HETATM    2  C   UNK N   1      26.136  27.992  -5.241  0.00  0.00     0.019 C 
BRANCH   2   3
HETATM    3  C   UNK N   1      24.931  27.151  -5.600  0.00  0.00    -0.003 C 
HETATM    4  C   UNK N   1      25.371  25.749  -5.960  0.00  0.00     0.005 C 
ENDBRANCH   2   3
ENDBRANCH   1   2
BRANCH   1   5
HETATM    5  N   UNK N   1      25.858  27.618  -2.863  0.00  0.00    -0.430 N 
HETATM    6  H   UNK N   1      25.362  27.794  -1.989  0.00  0.00     0.149 HD
HETATM    7  H   UNK N   1      26.330  26.726  -3.011  0.00  0.00     0.149 HD
ENDBRANCH   1   5
TORSDOF 3
ENDMDL
MODEL 6
REMARK VINA RESULT:      -2.6      8.010      9.136
REMARK  3 active torsions:
REMARK  status: ('A' for Active; 'I' for Inactive)
REMARK    1  A    between atoms: C_2  and  C_3 
REMARK    2  A    between atoms: C_3  and  C_4 
REMARK    3  A    between atoms: C_4  and  N_5 
ROOT
HETATM    1  C   UNK N   1      28.680  17.897   9.472  0.00  0.00     0.111 C 
ENDROOT
BRANCH   1   2
HETATM    2  C   UNK N   1      30.037  18.517   9.214  0.00  0.00     0.019 C 
BRANCH   2   3
HETATM    3  C   UNK N   1      30.821  17.599   8.302  0.00  0.00    -0.003 C 
HETATM    4  C   UNK N   1      32.294  17.935   8.378  0.00  0.00     0.005 C 
ENDBRANCH   2   3
ENDBRANCH   1   2
BRANCH   1   5
HETATM    5  N   UNK N   1      27.645  18.725   8.890  0.00  0.00    -0.430 N 
HETATM    6  H   UNK N   1      27.311  19.550   9.387  0.00  0.00     0.149 HD
HETATM    7  H   UNK N   1      27.249  18.482   7.981  0.00  0.00     0.149 HD
ENDBRANCH   1   5
TORSDOF 3
ENDMDL
MODEL 7
REMARK VINA RESULT:      -2.6     11.819     12.205
REMARK  3 active torsions:
REMARK  status: ('A' for Active; 'I' for Inactive)
REMARK    1  A    between atoms: C_2  and  C_3 
REMARK    2  A    between atoms: C_3  and  C_4 
REMARK    3  A    between atoms: C_4  and  N_5 
ROOT
HETATM    1  C   UNK N   1      34.563  16.934   9.286  0.00  0.00     0.111 C 
ENDROOT
BRANCH   1   2
HETATM    2  C   UNK N   1      34.499  18.121   8.348  0.00  0.00     0.019 C 
BRANCH   2   3
HETATM    3  C   UNK N   1      33.277  17.975   7.469  0.00  0.00    -0.003 C 
HETATM    4  C   UNK N   1      33.681  17.440   6.112  0.00  0.00     0.005 C 
ENDBRANCH   2   3
ENDBRANCH   1   2
BRANCH   1   5
HETATM    5  N   UNK N   1      35.154  17.335  10.546  0.00  0.00    -0.430 N 
HETATM    6  H   UNK N   1      35.681  18.206  10.607  0.00  0.00     0.149 HD
HETATM    7  H   UNK N   1      35.042  16.748  11.372  0.00  0.00     0.149 HD
ENDBRANCH   1   5
TORSDOF 3
ENDMDL
MODEL 8
REMARK VINA RESULT:      -2.6     11.777     12.389
REMARK  3 active torsions:
REMARK  status: ('A' for Active; 'I' for Inactive)
REMARK    1  A    between atoms: C_2  and  C_3 
REMARK    2  A    between atoms: C_3  and  C_4 
REMARK    3  A    between atoms: C_4  and  N_5 
ROOT
HETATM    1  C   UNK N   1      20.894  20.210   1.165  0.00  0.00     0.111 C 
ENDROOT
BRANCH   1   2
HETATM    2  C   UNK N   1      21.237  20.749   2.538  0.00  0.00     0.019 C 
BRANCH   2   3
HETATM    3  C   UNK N   1      20.678  19.807   3.580  0.00  0.00    -0.003 C 
HETATM    4  C   UNK N   1      19.815  18.757   2.913  0.00  0.00     0.005 C 
ENDBRANCH   2   3
ENDBRANCH   1   2
BRANCH   1   5
HETATM    5  N   UNK N   1      20.348  21.270   0.345  0.00  0.00    -0.430 N 
HETATM    6  H   UNK N   1      20.962  21.992  -0.031  0.00  0.00     0.149 HD
HETATM    7  H   UNK N   1      19.348  21.295   0.143  0.00  0.00     0.149 HD
ENDBRANCH   1   5
TORSDOF 3
ENDMDL
MODEL 9
REMARK VINA RESULT:      -2.5      9.751     10.481
REMARK  3 active torsions:
REMARK  status: ('A' for Active; 'I' for Inactive)
REMARK    1  A    between atoms: C_2  and  C_3 
REMARK    2  A    between atoms: C_3  and  C_4 
REMARK    3  A    between atoms: C_4  and  N_5 
ROOT
HETATM    1  C   UNK N   1      26.531  21.255   6.722  0.00  0.00     0.111 C 
ENDROOT
BRANCH   1   2
HETATM    2  C   UNK N   1      27.331  20.030   6.334  0.00  0.00     0.019 C 
BRANCH   2   3
HETATM    3  C   UNK N   1      27.845  20.216   4.924  0.00  0.00    -0.003 C 
HETATM    4  C   UNK N   1      26.680  20.322   3.963  0.00  0.00     0.005 C 
ENDBRANCH   2   3
ENDBRANCH   1   2
BRANCH   1   5
HETATM    5  N   UNK N   1      25.924  21.053   8.021  0.00  0.00    -0.430 N 
HETATM    6  H   UNK N   1      26.411  20.507   8.732  0.00  0.00     0.149 HD
HETATM    7  H   UNK N   1      25.009  21.455   8.225  0.00  0.00     0.149 HD
ENDBRANCH   1   5
TORSDOF 3
ENDMDL
