MODEL 1
REMARK VINA RESULT:      -4.3      0.000      0.000
REMARK  5 active torsions:
REMARK  status: ('A' for Active; 'I' for Inactive)
REMARK    1  A    between atoms: C_2  and  C_3 
REMARK    2  A    between atoms: C_3  and  C_5 
REMARK    3  A    between atoms: C_5  and  C_6 
REMARK    4  A    between atoms: C_6  and  C_7 
REMARK    5  A    between atoms: C_7  and  O_10 
ROOT
HETATM    1  C   UNK N   1      22.533  13.294  10.089  0.00  0.00     0.044 C 
ENDROOT
BRANCH   1   2
HETATM    2  C   UNK N   1      21.020  13.100  10.178  0.00  0.00     0.081 C 
BRANCH   2   3
HETATM    3  C   UNK N   1      20.265  14.274   9.626  0.00  0.00     0.126 C 
HETATM    4  O   UNK N   1      19.059  14.381   9.809  0.00  0.00    -0.298 OA
BRANCH   3   5
HETATM    5  C   UNK N   1      21.013  15.299   8.822  0.00  0.00     0.074 C 
HETATM    6  C   UNK N   1      20.218  16.580   8.616  0.00  0.00     0.013 C 
ENDBRANCH   3   5
ENDBRANCH   2   3
ENDBRANCH   1   2
BRANCH   1   7
HETATM    7  C   UNK N   1      23.300  11.978  10.154  0.00  0.00     0.051 C 
HETATM    8  C   UNK N   1      23.393  11.341   8.781  0.00  0.00     0.045 C 
HETATM    9  C   UNK N   1      24.699  12.263  10.656  0.00  0.00     0.045 C 
BRANCH   7  10
HETATM   10  O   UNK N   1      22.674  11.096  11.038  0.00  0.00    -0.391 OA
HETATM   11  H   UNK N   1      22.601  11.082  12.005  0.00  0.00     0.210 HD
ENDBRANCH   7  10
ENDBRANCH   1   7
TORSDOF 5
ENDMDL
MODEL 2
REMARK VINA RESULT:      -4.3     17.452     18.167
REMARK  5 active torsions:
REMARK  status: ('A' for Active; 'I' for Inactive)
REMARK    1  A    between atoms: C_2  and  C_3 
REMARK    2  A    between atoms: C_3  and  C_5 
REMARK    3  A    between atoms: C_5  and  C_6 
REMARK    4  A    between atoms: C_6  and  C_7 
REMARK    5  A    between atoms: C_7  and  O_10 
ROOT
HETATM    1  C   UNK N   1      31.830  22.753  -3.663  0.00  0.00     0.044 C 
ENDROOT
BRANCH   1   2
HETATM    2  C   UNK N   1      30.305  22.686  -3.654  0.00  0.00     0.081 C 
BRANCH   2   3
HETATM    3  C   UNK N   1      29.731  23.016  -2.307  0.00  0.00     0.126 C 
HETATM    4  O   UNK N   1      30.445  23.030  -1.312  0.00  0.00    -0.298 OA
BRANCH   3   5
HETATM    5  C   UNK N   1      28.261  23.300  -2.199  0.00  0.00     0.074 C 
HETATM    6  C   UNK N   1      27.728  24.104  -3.376  0.00  0.00     0.013 C 
ENDBRANCH   3   5
ENDBRANCH   2   3
ENDBRANCH   1   2
BRANCH   1   7
HETATM    7  C   UNK N   1      32.482  21.384  -3.494  0.00  0.00     0.051 C 
HETATM    8  C   UNK N   1      31.637  20.304  -4.143  0.00  0.00     0.045 C 
HETATM    9  C   UNK N   1      33.838  21.413  -4.165  0.00  0.00     0.045 C 
BRANCH   7  10
HETATM   10  O   UNK N   1      32.654  21.094  -2.139  0.00  0.00    -0.391 OA
HETATM   11  H   UNK N   1      32.426  21.581  -1.332  0.00  0.00     0.210 HD
ENDBRANCH   7  10
ENDBRANCH   1   7
TORSDOF 5
ENDMDL
MODEL 3
REMARK VINA RESULT:      -4.2     12.609     13.915
REMARK  5 active torsions:
REMARK  status: ('A' for Active; 'I' for Inactive)
REMARK    1  A    between atoms: C_2  and  C_3 
REMARK    2  A    between atoms: C_3  and  C_5 
REMARK    3  A    between atoms: C_5  and  C_6 
REMARK    4  A    between atoms: C_6  and  C_7 
REMARK    5  A    between atoms: C_7  and  O_10 
ROOT
HETATM    1  C   UNK N   1      34.520  16.267   7.941  0.00  0.00     0.044 C 
ENDROOT
BRANCH   1   2
HETATM    2  C   UNK N   1      34.182  16.050   9.414  0.00  0.00     0.081 C 
BRANCH   2   3
HETATM    3  C   UNK N   1      35.285  16.511  10.322  0.00  0.00     0.126 C 
HETATM    4  O   UNK N   1      35.636  17.684  10.331  0.00  0.00    -0.298 OA
BRANCH   3   5
HETATM    5  C   UNK N   1      35.967  15.500  11.199  0.00  0.00     0.074 C 
HETATM    6  C   UNK N   1      35.003  14.471  11.771  0.00  0.00     0.013 C 
ENDBRANCH   3   5
ENDBRANCH   2   3
ENDBRANCH   1   2
BRANCH   1   7
HETATM    7  C   UNK N   1      33.921  17.553   7.382  0.00  0.00     0.051 C 
HETATM    8  C   UNK N   1      33.622  17.407   5.902  0.00  0.00     0.045 C 
HETATM    9  C   UNK N   1      32.628  17.838   8.116  0.00  0.00     0.045 C 
BRANCH   7  10
HETATM   10  O   UNK N   1      34.798  18.622   7.580  0.00  0.00    -0.391 OA
HETATM   11  H   UNK N   1      35.046  19.375   7.023  0.00  0.00     0.210 HD
ENDBRANCH   7  10
ENDBRANCH   1   7
TORSDOF 5
ENDMDL
MODEL 4
REMARK VINA RESULT:      -4.1      8.434      9.912
REMARK  5 active torsions:
REMARK  status: ('A' for Active; 'I' for Inactive)
REMARK    1  A    between atoms: C_2  and  C_3 
REMARK    2  A    between atoms: C_3  and  C_5 
REMARK    3  A    between atoms: C_5  and  C_6 
REMARK    4  A    between atoms: C_6  and  C_7 
REMARK    5  A    between atoms: C_7  and  O_10 
ROOT
HETATM    1  C   UNK N   1      20.657  19.409   2.409  0.00  0.00     0.044 C 
ENDROOT
BRANCH   1   2
HETATM    2  C   UNK N   1      21.778  19.263   3.435  0.00  0.00     0.081 C 
BRANCH   2   3
HETATM    3  C   UNK N   1      22.927  20.187   3.155  0.00  0.00     0.126 C 
HETATM    4  O   UNK N   1      22.730  21.302   2.689  0.00  0.00    -0.298 OA
BRANCH   3   5
HETATM    5  C   UNK N   1      24.322  19.707   3.432  0.00  0.00     0.074 C 
HETATM    6  C   UNK N   1      25.379  20.499   2.675  0.00  0.00     0.013 C 
ENDBRANCH   3   5
ENDBRANCH   2   3
ENDBRANCH   1   2
BRANCH   1   7
HETATM    7  C   UNK N   1      19.718  18.208   2.386  0.00  0.00     0.051 C 
HETATM    8  C   UNK N   1      19.993  17.333   1.178  0.00  0.00     0.045 C 
HETATM    9  C   UNK N   1      19.949  17.395   3.642  0.00  0.00     0.045 C 
BRANCH   7  10
HETATM   10  O   UNK N   1      18.388  18.634   2.363  0.00  0.00    -0.391 OA
HETATM   11  H   UNK N   1      17.742  18.799   3.067  0.00  0.00     0.210 HD
ENDBRANCH   7  10
ENDBRANCH   1   7
TORSDOF 5
ENDMDL
MODEL 5
REMARK VINA RESULT:      -4.1     20.052     21.010
REMARK  5 active torsions:
REMARK  status: ('A' for Active; 'I' for Inactive)
REMARK    1  A    between atoms: C_2  and  C_3 
REMARK    2  A    between atoms: C_3  and  C_5 
REMARK    3  A    between atoms: C_5  and  C_6 
REMARK    4  A    between atoms: C_6  and  C_7 
REMARK    5  A    between atoms: C_7  and  O_10 
ROOT
HETATM    1  C   UNK N   1      25.196  25.912  -5.345  0.00  0.00     0.044 C 
ENDROOT
BRANCH   1   2
HETATM    2  C   UNK N   1      25.031  27.429  -5.415  0.00  0.00     0.081 C 
BRANCH   2   3
HETATM    3  C   UNK N   1      25.700  28.125  -4.266  0.00  0.00     0.126 C 
HETATM    4  O   UNK N   1      25.410  27.841  -3.111  0.00  0.00    -0.298 OA
BRANCH   3   5
HETATM    5  C   UNK N   1      26.712  29.194  -4.561  0.00  0.00     0.074 C 
HETATM    6  C   UNK N   1      27.484  28.937  -5.847  0.00  0.00     0.013 C 
ENDBRANCH   3   5
ENDBRANCH   2   3
ENDBRANCH   1   2
BRANCH   1   7
HETATM    7  C   UNK N   1      25.925  25.343  -6.558  0.00  0.00     0.051 C 
HETATM    8  C   UNK N   1      25.832  26.294  -7.736  0.00  0.00     0.045 C 
HETATM    9  C   UNK N   1      27.382  25.153  -6.196  0.00  0.00     0.045 C 
BRANCH   7  10
HETATM   10  O   UNK N   1      25.382  24.105  -6.911  0.00  0.00    -0.391 OA
HETATM   11  H   UNK N   1      24.472  23.771  -6.929  0.00  0.00     0.210 HD
ENDBRANCH   7  10
ENDBRANCH   1   7
TORSDOF 5
ENDMDL
MODEL 6
REMARK VINA RESULT:      -4.1     18.226     20.191
REMARK  5 active torsions:
REMARK  status: ('A' for Active; 'I' for Inactive)
REMARK    1  A    between atoms: C_2  and  C_3 
REMARK    2  A    between atoms: C_3  and  C_5 
REMARK    3  A    between atoms: C_5  and  C_6 
REMARK    4  A    between atoms: C_6  and  C_7 
REMARK    5  A    between atoms: C_7  and  O_10 
ROOT
HETATM    1  C   UNK N   1      26.357  26.947  -3.494  0.00  0.00     0.044 C 
ENDROOT
BRANCH   1   2
HETATM    2  C   UNK N   1      27.262  25.839  -4.029  0.00  0.00     0.081 C 
BRANCH   2   3
HETATM    3  C   UNK N   1      26.622  24.485  -3.927  0.00  0.00     0.126 C 
HETATM    4  O   UNK N   1      26.595  23.888  -2.858  0.00  0.00    -0.298 OA
BRANCH   3   5
HETATM    5  C   UNK N   1      26.040  23.867  -5.165  0.00  0.00     0.074 C 
HETATM    6  C   UNK N   1      26.703  24.368  -6.440  0.00  0.00     0.013 C 
ENDBRANCH   3   5
ENDBRANCH   2   3
ENDBRANCH   1   2
BRANCH   1   7
HETATM    7  C   UNK N   1      25.976  27.964  -4.564  0.00  0.00     0.051 C 
HETATM    8  C   UNK N   1      27.136  28.206  -5.512  0.00  0.00     0.045 C 
HETATM    9  C   UNK N   1      24.807  27.415  -5.353  0.00  0.00     0.045 C 
BRANCH   7  10
HETATM   10  O   UNK N   1      25.595  29.170  -3.972  0.00  0.00    -0.391 OA
HETATM   11  H   UNK N   1      26.072  29.998  -3.809  0.00  0.00     0.210 HD
ENDBRANCH   7  10
ENDBRANCH   1   7
TORSDOF 5
ENDMDL
MODEL 7
REMARK VINA RESULT:      -4.1     13.416     15.344
REMARK  5 active torsions:
REMARK  status: ('A' for Active; 'I' for Inactive)
REMARK    1  A    between atoms: C_2  and  C_3 
REMARK    2  A    between atoms: C_3  and  C_5 
REMARK    3  A    between atoms: C_5  and  C_6 
REMARK    4  A    between atoms: C_6  and  C_7 
REMARK    5  A    between atoms: C_7  and  O_10 
ROOT
HETATM    1  C   UNK N   1      34.429  12.954  16.016  0.00  0.00     0.044 C 
ENDROOT
BRANCH   1   2
HETATM    2  C   UNK N   1      35.633  12.943  16.955  0.00  0.00     0.081 C 
BRANCH   2   3
HETATM    3  C   UNK N   1      35.302  13.509  18.306  0.00  0.00     0.126 C 
HETATM    4  O   UNK N   1      35.132  14.712  18.453  0.00  0.00    -0.298 OA
BRANCH   3   5
HETATM    5  C   UNK N   1      35.210  12.573  19.477  0.00  0.00     0.074 C 
HETATM    6  C   UNK N   1      35.337  11.111  19.073  0.00  0.00     0.013 C 
ENDBRANCH   3   5
ENDBRANCH   2   3
ENDBRANCH   1   2
BRANCH   1   7
HETATM    7  C   UNK N   1      34.642  12.093  14.775  0.00  0.00     0.051 C 
HETATM    8  C   UNK N   1      36.067  11.577  14.718  0.00  0.00     0.045 C 
HETATM    9  C   UNK N   1      33.697  10.913  14.842  0.00  0.00     0.045 C 
BRANCH   7  10
HETATM   10  O   UNK N   1      34.363  12.830  13.621  0.00  0.00    -0.391 OA
HETATM   11  H   UNK N   1      33.766  13.573  13.449  0.00  0.00     0.210 HD
ENDBRANCH   7  10
ENDBRANCH   1   7
TORSDOF 5
ENDMDL
MODEL 8
REMARK VINA RESULT:      -4.1     13.421     14.826
REMARK  5 active torsions:
REMARK  status: ('A' for Active; 'I' for Inactive)
REMARK    1  A    between atoms: C_2  and  C_3 
REMARK    2  A    between atoms: C_3  and  C_5 
REMARK    3  A    between atoms: C_5  and  C_6 
REMARK    4  A    between atoms: C_6  and  C_7 
REMARK    5  A    between atoms: C_7  and  O_10 
ROOT
HETATM    1  C   UNK N   1      36.268  13.596  15.782  0.00  0.00     0.044 C 
ENDROOT
BRANCH   1   2
HETATM    2  C   UNK N   1      36.422  12.524  14.705  0.00  0.00     0.081 C 
BRANCH   2   3
HETATM    3  C   UNK N   1      35.322  12.583  13.686  0.00  0.00     0.126 C 
HETATM    4  O   UNK N   1      34.880  13.660  13.308  0.00  0.00    -0.298 OA
BRANCH   3   5
HETATM    5  C   UNK N   1      34.756  11.296  13.159  0.00  0.00     0.074 C 
HETATM    6  C   UNK N   1      33.796  10.631  14.135  0.00  0.00     0.013 C 
ENDBRANCH   3   5
ENDBRANCH   2   3
ENDBRANCH   1   2
BRANCH   1   7
HETATM    7  C   UNK N   1      35.214  13.238  16.824  0.00  0.00     0.051 C 
HETATM    8  C   UNK N   1      35.386  11.806  17.293  0.00  0.00     0.045 C 
HETATM    9  C   UNK N   1      35.379  14.164  18.010  0.00  0.00     0.045 C 
BRANCH   7  10
HETATM   10  O   UNK N   1      33.933  13.407  16.294  0.00  0.00    -0.391 OA
HETATM   11  H   UNK N   1      33.492  14.164  15.877  0.00  0.00     0.210 HD
ENDBRANCH   7  10
ENDBRANCH   1   7
TORSDOF 5
ENDMDL
MODEL 9
REMARK VINA RESULT:      -4.0     14.357     14.980
REMARK  5 active torsions:
REMARK  status: ('A' for Active; 'I' for Inactive)
REMARK    1  A    between atoms: C_2  and  C_3 
REMARK    2  A    between atoms: C_3  and  C_5 
REMARK    3  A    between atoms: C_5  and  C_6 
REMARK    4  A    between atoms: C_6  and  C_7 
REMARK    5  A    between atoms: C_7  and  O_10 
ROOT
HETATM    1  C   UNK N   1      36.473  12.782  14.012  0.00  0.00     0.044 C 
ENDROOT
BRANCH   1   2
HETATM    2  C   UNK N   1      36.179  13.567  15.288  0.00  0.00     0.081 C 
BRANCH   2   3
HETATM    3  C   UNK N   1      35.015  12.999  16.047  0.00  0.00     0.126 C 
HETATM    4  O   UNK N   1      34.002  12.641  15.459  0.00  0.00    -0.298 OA
BRANCH   3   5
HETATM    5  C   UNK N   1      35.106  12.905  17.542  0.00  0.00     0.074 C 
HETATM    6  C   UNK N   1      35.342  14.254  18.205  0.00  0.00     0.013 C 
ENDBRANCH   3   5
ENDBRANCH   2   3
ENDBRANCH   1   2
BRANCH   1   7
HETATM    7  C   UNK N   1      35.924  13.462  12.762  0.00  0.00     0.051 C 
HETATM    8  C   UNK N   1      36.115  14.965  12.841  0.00  0.00     0.045 C 
HETATM    9  C   UNK N   1      36.679  12.936  11.559  0.00  0.00     0.045 C 
BRANCH   7  10
HETATM   10  O   UNK N   1      34.568  13.169  12.607  0.00  0.00    -0.391 OA
HETATM   11  H   UNK N   1      33.796  13.325  13.173  0.00  0.00     0.210 HD
ENDBRANCH   7  10
ENDBRANCH   1   7
TORSDOF 5
ENDMDL
