REMARK  6 active torsions:
REMARK  status: ('A' for Active; 'I' for Inactive)
REMARK    1  A    between atoms: Co_1  and  N_2 
REMARK    2  A    between atoms: Co_1  and  N_3 
REMARK    3  A    between atoms: Co_1  and  N_4 
REMARK    4  A    between atoms: Co_1  and  N_5 
REMARK    5  A    between atoms: Co_1  and  N_6 
REMARK    6  A    between atoms: Co_1  and  N_7 
ROOT
HETATM    1 Co   UNK N   1       7.212  -5.434   0.000  0.00  0.00     0.000 Co
ENDROOT
BRANCH   1   2
HETATM    2  N   UNK N   1       7.337  -3.528   0.000  0.00  0.00     0.072 N 
HETATM    3  H   UNK N   1       8.252  -3.077   0.000  0.00  0.00     0.309 HD
HETATM    4  H   UNK N   1       6.490  -2.961   0.000  0.00  0.00     0.309 HD
HETATM    5  H   UNK N   1       7.405  -2.510   0.000  0.00  0.00     0.309 HD
ENDBRANCH   1   2
BRANCH   1   6
HETATM    6  N   UNK N   1       7.086  -7.338   0.000  0.00  0.00     0.072 N 
HETATM    7  H   UNK N   1       6.171  -7.789   0.000  0.00  0.00     0.309 HD
HETATM    8  H   UNK N   1       7.934  -7.905   0.000  0.00  0.00     0.309 HD
HETATM    9  H   UNK N   1       7.019  -8.356   0.000  0.00  0.00     0.309 HD
ENDBRANCH   1   6
BRANCH   1  10
HETATM   10  N   UNK N   1       8.928  -4.593   0.000  0.00  0.00     0.072 N 
HETATM   11  H   UNK N   1       9.775  -5.161   0.000  0.00  0.00     0.309 HD
HETATM   12  H   UNK N   1       8.997  -3.575   0.000  0.00  0.00     0.309 HD
HETATM   13  H   UNK N   1       9.844  -4.144   0.000  0.00  0.00     0.309 HD
ENDBRANCH   1  10
BRANCH   1  14
HETATM   14  N   UNK N   1       5.623  -4.376   0.000  0.00  0.00     0.072 N 
HETATM   15  H   UNK N   1       5.688  -3.358   0.000  0.00  0.00     0.309 HD
HETATM   16  H   UNK N   1       4.709  -4.828   0.000  0.00  0.00     0.309 HD
HETATM   17  H   UNK N   1       4.774  -3.810   0.000  0.00  0.00     0.309 HD
ENDBRANCH   1  14
BRANCH   1  18
HETATM   18  N   UNK N   1       8.797  -6.499   0.000  0.00  0.00     0.072 N 
HETATM   19  H   UNK N   1       8.728  -7.517   0.000  0.00  0.00     0.309 HD
HETATM   20  H   UNK N   1       9.713  -6.050   0.000  0.00  0.00     0.309 HD
HETATM   21  H   UNK N   1       9.644  -7.068   0.000  0.00  0.00     0.309 HD
ENDBRANCH   1  18
BRANCH   1  22
HETATM   22  N   UNK N   1       5.502  -6.280   0.000  0.00  0.00     0.072 N 
HETATM   23  H   UNK N   1       4.653  -5.715   0.000  0.00  0.00     0.309 HD
HETATM   24  H   UNK N   1       5.437  -7.298   0.000  0.00  0.00     0.309 HD
HETATM   25  H   UNK N   1       4.588  -6.733   0.000  0.00  0.00     0.309 HD
ENDBRANCH   1  22
TORSDOF 6
