MODEL 1
REMARK VINA RESULT:      -4.9      0.000      0.000
REMARK  7 active torsions:
REMARK  status: ('A' for Active; 'I' for Inactive)
REMARK    1  A    between atoms: C_2  and  N_1 
REMARK    2  A    between atoms: C_2  and  C_3 
REMARK    3  A    between atoms: C_2  and  C_10 
REMARK    4  A    between atoms: C_3  and  C_4 
REMARK    5  A    between atoms: C_4  and  S_5 
REMARK    6  A    between atoms: S_5  and  C_6 
REMARK    7  A    between atoms: C_10  and  O_11 
ROOT
HETATM    1  C   UNK N   1      34.055  16.856   8.534  0.00  0.00     0.174 C 
ENDROOT
BRANCH   1   2
HETATM    2  N   UNK N   1      34.248  17.067   9.958  0.00  0.00    -0.418 N 
HETATM    3  H   UNK N   1      35.170  17.102  10.394  0.00  0.00     0.150 HD
HETATM    4  H   UNK N   1      33.425  17.186  10.549  0.00  0.00     0.150 HD
ENDBRANCH   1   2
BRANCH   1   5
HETATM    5  C   UNK N   1      32.601  16.511   8.263  0.00  0.00     0.046 C 
BRANCH   5   6
HETATM    6  C   UNK N   1      31.731  17.683   8.680  0.00  0.00     0.085 C 
BRANCH   6   7
HETATM    7  S   UNK N   1      30.029  17.460   8.079  0.00  0.00    -0.056 SA
BRANCH   7   8
HETATM    8  C   UNK N   1      29.231  17.932   9.648  0.00  0.00     0.443 C 
HETATM    9  F   UNK N   1      27.904  18.262   9.440  0.00  0.00    -0.160 F 
HETATM   10  F   UNK N   1      29.885  19.038  10.156  0.00  0.00    -0.160 F 
HETATM   11  F   UNK N   1      29.331  16.899  10.560  0.00  0.00    -0.160 F 
ENDBRANCH   7   8
ENDBRANCH   6   7
ENDBRANCH   5   6
ENDBRANCH   1   5
BRANCH   1  12
HETATM   12  C   UNK N   1      34.477  18.071   7.752  0.00  0.00     0.163 C 
HETATM   13  O   UNK N   1      34.367  18.085   6.537  0.00  0.00    -0.648 OA
BRANCH  12  14
HETATM   14  O   UNK N   1      34.997  19.144   8.384  0.00  0.00    -0.775 OA
HETATM   15  H   UNK N   1      34.574  19.973   8.487  0.00  0.00     0.167 HD
ENDBRANCH  12  14
ENDBRANCH   1  12
TORSDOF 7
ENDMDL
MODEL 2
REMARK VINA RESULT:      -4.7      4.514      5.280
REMARK  7 active torsions:
REMARK  status: ('A' for Active; 'I' for Inactive)
REMARK    1  A    between atoms: C_2  and  N_1 
REMARK    2  A    between atoms: C_2  and  C_3 
REMARK    3  A    between atoms: C_2  and  C_10 
REMARK    4  A    between atoms: C_3  and  C_4 
REMARK    5  A    between atoms: C_4  and  S_5 
REMARK    6  A    between atoms: S_5  and  C_6 
REMARK    7  A    between atoms: C_10  and  O_11 
ROOT
HETATM    1  C   UNK N   1      33.945  17.227   8.995  0.00  0.00     0.174 C 
ENDROOT
BRANCH   1   2
HETATM    2  N   UNK N   1      32.496  17.337   8.966  0.00  0.00    -0.418 N 
HETATM    3  H   UNK N   1      31.925  17.356   9.811  0.00  0.00     0.150 HD
HETATM    4  H   UNK N   1      32.030  17.400   8.061  0.00  0.00     0.150 HD
ENDBRANCH   1   2
BRANCH   1   5
HETATM    5  C   UNK N   1      34.353  15.808   8.640  0.00  0.00     0.046 C 
BRANCH   5   6
HETATM    6  C   UNK N   1      35.522  15.398   9.518  0.00  0.00     0.085 C 
BRANCH   6   7
HETATM    7  S   UNK N   1      35.463  16.277  11.110  0.00  0.00    -0.056 SA
BRANCH   7   8
HETATM    8  C   UNK N   1      35.885  14.822  12.123  0.00  0.00     0.443 C 
HETATM    9  F   UNK N   1      34.780  14.007  12.288  0.00  0.00    -0.160 F 
HETATM   10  F   UNK N   1      36.298  15.260  13.367  0.00  0.00    -0.160 F 
HETATM   11  F   UNK N   1      36.918  14.118  11.535  0.00  0.00    -0.160 F 
ENDBRANCH   7   8
ENDBRANCH   6   7
ENDBRANCH   5   6
ENDBRANCH   1   5
BRANCH   1  12
HETATM   12  C   UNK N   1      34.574  18.222   8.057  0.00  0.00     0.163 C 
HETATM   13  O   UNK N   1      34.439  18.095   6.851  0.00  0.00    -0.648 OA
BRANCH  12  14
HETATM   14  O   UNK N   1      35.307  19.247   8.539  0.00  0.00    -0.775 OA
HETATM   15  H   UNK N   1      36.126  19.167   8.986  0.00  0.00     0.167 HD
ENDBRANCH  12  14
ENDBRANCH   1  12
TORSDOF 7
ENDMDL
MODEL 3
REMARK VINA RESULT:      -4.6      6.727      7.537
REMARK  7 active torsions:
REMARK  status: ('A' for Active; 'I' for Inactive)
REMARK    1  A    between atoms: C_2  and  N_1 
REMARK    2  A    between atoms: C_2  and  C_3 
REMARK    3  A    between atoms: C_2  and  C_10 
REMARK    4  A    between atoms: C_3  and  C_4 
REMARK    5  A    between atoms: C_4  and  S_5 
REMARK    6  A    between atoms: S_5  and  C_6 
REMARK    7  A    between atoms: C_10  and  O_11 
ROOT
HETATM    1  C   UNK N   1      34.948  15.337  11.694  0.00  0.00     0.174 C 
ENDROOT
BRANCH   1   2
HETATM    2  N   UNK N   1      33.750  15.053  10.923  0.00  0.00    -0.418 N 
HETATM    3  H   UNK N   1      32.932  14.590  11.319  0.00  0.00     0.150 HD
HETATM    4  H   UNK N   1      33.725  15.331   9.941  0.00  0.00     0.150 HD
ENDBRANCH   1   2
BRANCH   1   5
HETATM    5  C   UNK N   1      35.629  14.033  12.072  0.00  0.00     0.046 C 
BRANCH   5   6
HETATM    6  C   UNK N   1      35.872  14.022  13.571  0.00  0.00     0.085 C 
BRANCH   6   7
HETATM    7  S   UNK N   1      35.222  12.492  14.312  0.00  0.00    -0.056 SA
BRANCH   7   8
HETATM    8  C   UNK N   1      35.390  13.054  16.037  0.00  0.00     0.443 C 
HETATM    9  F   UNK N   1      36.296  14.095  16.124  0.00  0.00    -0.160 F 
HETATM   10  F   UNK N   1      35.859  11.999  16.797  0.00  0.00    -0.160 F 
HETATM   11  F   UNK N   1      34.161  13.445  16.530  0.00  0.00    -0.160 F 
ENDBRANCH   7   8
ENDBRANCH   6   7
ENDBRANCH   5   6
ENDBRANCH   1   5
BRANCH   1  12
HETATM   12  C   UNK N   1      35.881  16.230  10.921  0.00  0.00     0.163 C 
HETATM   13  O   UNK N   1      35.466  17.266  10.428  0.00  0.00    -0.648 OA
BRANCH  12  14
HETATM   14  O   UNK N   1      37.174  15.886  10.752  0.00  0.00    -0.775 OA
HETATM   15  H   UNK N   1      37.830  15.889  11.420  0.00  0.00     0.167 HD
ENDBRANCH  12  14
ENDBRANCH   1  12
TORSDOF 7
ENDMDL
MODEL 4
REMARK VINA RESULT:      -4.5      3.665      4.452
REMARK  7 active torsions:
REMARK  status: ('A' for Active; 'I' for Inactive)
REMARK    1  A    between atoms: C_2  and  N_1 
REMARK    2  A    between atoms: C_2  and  C_3 
REMARK    3  A    between atoms: C_2  and  C_10 
REMARK    4  A    between atoms: C_3  and  C_4 
REMARK    5  A    between atoms: C_4  and  S_5 
REMARK    6  A    between atoms: S_5  and  C_6 
REMARK    7  A    between atoms: C_10  and  O_11 
ROOT
HETATM    1  C   UNK N   1      34.888  14.891  10.625  0.00  0.00     0.174 C 
ENDROOT
BRANCH   1   2
HETATM    2  N   UNK N   1      33.497  15.170  10.938  0.00  0.00    -0.418 N 
HETATM    3  H   UNK N   1      33.017  16.014  10.627  0.00  0.00     0.150 HD
HETATM    4  H   UNK N   1      32.976  14.490  11.494  0.00  0.00     0.150 HD
ENDBRANCH   1   2
BRANCH   1   5
HETATM    5  C   UNK N   1      34.989  14.325   9.220  0.00  0.00     0.046 C 
BRANCH   5   6
HETATM    6  C   UNK N   1      33.915  14.960   8.355  0.00  0.00     0.085 C 
BRANCH   6   7
HETATM    7  S   UNK N   1      34.667  15.931   7.013  0.00  0.00    -0.056 SA
BRANCH   7   8
HETATM    8  C   UNK N   1      33.910  17.514   7.503  0.00  0.00     0.443 C 
HETATM    9  F   UNK N   1      33.016  17.326   8.542  0.00  0.00    -0.160 F 
HETATM   10  F   UNK N   1      33.222  18.025   6.419  0.00  0.00    -0.160 F 
HETATM   11  F   UNK N   1      34.891  18.415   7.871  0.00  0.00    -0.160 F 
ENDBRANCH   7   8
ENDBRANCH   6   7
ENDBRANCH   5   6
ENDBRANCH   1   5
BRANCH   1  12
HETATM   12  C   UNK N   1      35.727  16.132  10.772  0.00  0.00     0.163 C 
HETATM   13  O   UNK N   1      35.195  17.229  10.802  0.00  0.00    -0.648 OA
BRANCH  12  14
HETATM   14  O   UNK N   1      37.071  16.043  10.850  0.00  0.00    -0.775 OA
HETATM   15  H   UNK N   1      37.595  16.338  11.568  0.00  0.00     0.167 HD
ENDBRANCH  12  14
ENDBRANCH   1  12
TORSDOF 7
ENDMDL
MODEL 5
REMARK VINA RESULT:      -4.4     10.820     11.549
REMARK  7 active torsions:
REMARK  status: ('A' for Active; 'I' for Inactive)
REMARK    1  A    between atoms: C_2  and  N_1 
REMARK    2  A    between atoms: C_2  and  C_3 
REMARK    3  A    between atoms: C_2  and  C_10 
REMARK    4  A    between atoms: C_3  and  C_4 
REMARK    5  A    between atoms: C_4  and  S_5 
REMARK    6  A    between atoms: S_5  and  C_6 
REMARK    7  A    between atoms: C_10  and  O_11 
ROOT
HETATM    1  C   UNK N   1      22.635  11.920  11.182  0.00  0.00     0.174 C 
ENDROOT
BRANCH   1   2
HETATM    2  N   UNK N   1      21.391  11.747  11.913  0.00  0.00    -0.418 N 
HETATM    3  H   UNK N   1      20.965  12.491  12.465  0.00  0.00     0.150 HD
HETATM    4  H   UNK N   1      20.923  10.842  11.871  0.00  0.00     0.150 HD
ENDBRANCH   1   2
BRANCH   1   5
HETATM    5  C   UNK N   1      22.508  13.098  10.233  0.00  0.00     0.046 C 
BRANCH   5   6
HETATM    6  C   UNK N   1      21.052  13.251   9.832  0.00  0.00     0.085 C 
BRANCH   6   7
HETATM    7  S   UNK N   1      20.757  14.897   9.115  0.00  0.00    -0.056 SA
BRANCH   7   8
HETATM    8  C   UNK N   1      20.845  14.346   7.380  0.00  0.00     0.443 C 
HETATM    9  F   UNK N   1      20.675  12.976   7.296  0.00  0.00    -0.160 F 
HETATM   10  F   UNK N   1      22.094  14.666   6.883  0.00  0.00    -0.160 F 
HETATM   11  F   UNK N   1      19.886  14.996   6.627  0.00  0.00    -0.160 F 
ENDBRANCH   7   8
ENDBRANCH   6   7
ENDBRANCH   5   6
ENDBRANCH   1   5
BRANCH   1  12
HETATM   12  C   UNK N   1      23.789  12.110  12.130  0.00  0.00     0.163 C 
HETATM   13  O   UNK N   1      23.604  12.061  13.334  0.00  0.00    -0.648 OA
BRANCH  12  14
HETATM   14  O   UNK N   1      25.029  12.354  11.657  0.00  0.00    -0.775 OA
HETATM   15  H   UNK N   1      25.695  12.839  12.102  0.00  0.00     0.167 HD
ENDBRANCH  12  14
ENDBRANCH   1  12
TORSDOF 7
ENDMDL
MODEL 6
REMARK VINA RESULT:      -4.4     15.319     15.751
REMARK  7 active torsions:
REMARK  status: ('A' for Active; 'I' for Inactive)
REMARK    1  A    between atoms: C_2  and  N_1 
REMARK    2  A    between atoms: C_2  and  C_3 
REMARK    3  A    between atoms: C_2  and  C_10 
REMARK    4  A    between atoms: C_3  and  C_4 
REMARK    5  A    between atoms: C_4  and  S_5 
REMARK    6  A    between atoms: S_5  and  C_6 
REMARK    7  A    between atoms: C_10  and  O_11 
ROOT
HETATM    1  C   UNK N   1      28.652  23.963  -3.263  0.00  0.00     0.174 C 
ENDROOT
BRANCH   1   2
HETATM    2  N   UNK N   1      29.178  23.250  -4.415  0.00  0.00    -0.418 N 
HETATM    3  H   UNK N   1      28.826  22.340  -4.712  0.00  0.00     0.150 HD
HETATM    4  H   UNK N   1      29.932  23.679  -4.951  0.00  0.00     0.150 HD
ENDBRANCH   1   2
BRANCH   1   5
HETATM    5  C   UNK N   1      27.148  24.121  -3.407  0.00  0.00     0.046 C 
BRANCH   5   6
HETATM    6  C   UNK N   1      26.844  25.534  -3.870  0.00  0.00     0.085 C 
BRANCH   6   7
HETATM    7  S   UNK N   1      25.807  25.507  -5.365  0.00  0.00    -0.056 SA
BRANCH   7   8
HETATM    8  C   UNK N   1      25.235  27.230  -5.207  0.00  0.00     0.443 C 
HETATM    9  F   UNK N   1      23.965  27.372  -5.734  0.00  0.00    -0.160 F 
HETATM   10  F   UNK N   1      26.098  28.045  -5.915  0.00  0.00    -0.160 F 
HETATM   11  F   UNK N   1      25.250  27.615  -3.880  0.00  0.00    -0.160 F 
ENDBRANCH   7   8
ENDBRANCH   6   7
ENDBRANCH   5   6
ENDBRANCH   1   5
BRANCH   1  12
HETATM   12  C   UNK N   1      29.002  23.247  -1.986  0.00  0.00     0.163 C 
HETATM   13  O   UNK N   1      28.117  22.874  -1.233  0.00  0.00    -0.648 OA
BRANCH  12  14
HETATM   14  O   UNK N   1      30.291  23.030  -1.656  0.00  0.00    -0.775 OA
HETATM   15  H   UNK N   1      30.646  23.074  -0.790  0.00  0.00     0.167 HD
ENDBRANCH  12  14
ENDBRANCH   1  12
TORSDOF 7
ENDMDL
MODEL 7
REMARK VINA RESULT:      -4.4     13.466     14.017
REMARK  7 active torsions:
REMARK  status: ('A' for Active; 'I' for Inactive)
REMARK    1  A    between atoms: C_2  and  N_1 
REMARK    2  A    between atoms: C_2  and  C_3 
REMARK    3  A    between atoms: C_2  and  C_10 
REMARK    4  A    between atoms: C_3  and  C_4 
REMARK    5  A    between atoms: C_4  and  S_5 
REMARK    6  A    between atoms: S_5  and  C_6 
REMARK    7  A    between atoms: C_10  and  O_11 
ROOT
HETATM    1  C   UNK N   1      20.043  19.484   2.623  0.00  0.00     0.174 C 
ENDROOT
BRANCH   1   2
HETATM    2  N   UNK N   1      18.761  18.900   2.266  0.00  0.00    -0.418 N 
HETATM    3  H   UNK N   1      18.487  18.713   1.302  0.00  0.00     0.150 HD
HETATM    4  H   UNK N   1      18.107  18.666   3.013  0.00  0.00     0.150 HD
ENDBRANCH   1   2
BRANCH   1   5
HETATM    5  C   UNK N   1      20.977  18.394   3.119  0.00  0.00     0.046 C 
BRANCH   5   6
HETATM    6  C   UNK N   1      20.206  17.090   3.213  0.00  0.00     0.085 C 
BRANCH   6   7
HETATM    7  S   UNK N   1      21.299  15.676   2.872  0.00  0.00    -0.056 SA
BRANCH   7   8
HETATM    8  C   UNK N   1      20.660  15.367   1.194  0.00  0.00     0.443 C 
HETATM    9  F   UNK N   1      20.536  16.554   0.494  0.00  0.00    -0.160 F 
HETATM   10  F   UNK N   1      19.410  14.787   1.301  0.00  0.00    -0.160 F 
HETATM   11  F   UNK N   1      21.497  14.498   0.520  0.00  0.00    -0.160 F 
ENDBRANCH   7   8
ENDBRANCH   6   7
ENDBRANCH   5   6
ENDBRANCH   1   5
BRANCH   1  12
HETATM   12  C   UNK N   1      20.641  20.217   1.452  0.00  0.00     0.163 C 
HETATM   13  O   UNK N   1      21.163  21.307   1.617  0.00  0.00    -0.648 OA
BRANCH  12  14
HETATM   14  O   UNK N   1      20.586  19.687   0.213  0.00  0.00    -0.775 OA
HETATM   15  H   UNK N   1      20.330  20.144  -0.564  0.00  0.00     0.167 HD
ENDBRANCH  12  14
ENDBRANCH   1  12
TORSDOF 7
ENDMDL
MODEL 8
REMARK VINA RESULT:      -4.4      3.189      3.623
REMARK  7 active torsions:
REMARK  status: ('A' for Active; 'I' for Inactive)
REMARK    1  A    between atoms: C_2  and  N_1 
REMARK    2  A    between atoms: C_2  and  C_3 
REMARK    3  A    between atoms: C_2  and  C_10 
REMARK    4  A    between atoms: C_3  and  C_4 
REMARK    5  A    between atoms: C_4  and  S_5 
REMARK    6  A    between atoms: S_5  and  C_6 
REMARK    7  A    between atoms: C_10  and  O_11 
ROOT
HETATM    1  C   UNK N   1      33.852  17.056   8.712  0.00  0.00     0.174 C 
ENDROOT
BRANCH   1   2
HETATM    2  N   UNK N   1      34.400  17.070  10.058  0.00  0.00    -0.418 N 
HETATM    3  H   UNK N   1      33.821  17.168  10.892  0.00  0.00     0.150 HD
HETATM    4  H   UNK N   1      35.410  16.978  10.175  0.00  0.00     0.150 HD
ENDBRANCH   1   2
BRANCH   1   5
HETATM    5  C   UNK N   1      32.346  17.239   8.775  0.00  0.00     0.046 C 
BRANCH   5   6
HETATM    6  C   UNK N   1      31.685  16.163   7.933  0.00  0.00     0.085 C 
BRANCH   6   7
HETATM    7  S   UNK N   1      30.435  16.893   6.831  0.00  0.00    -0.056 SA
BRANCH   7   8
HETATM    8  C   UNK N   1      31.385  16.631   5.298  0.00  0.00     0.443 C 
HETATM    9  F   UNK N   1      30.601  16.016   4.339  0.00  0.00    -0.160 F 
HETATM   10  F   UNK N   1      32.457  15.807   5.584  0.00  0.00    -0.160 F 
HETATM   11  F   UNK N   1      31.864  17.837   4.825  0.00  0.00    -0.160 F 
ENDBRANCH   7   8
ENDBRANCH   6   7
ENDBRANCH   5   6
ENDBRANCH   1   5
BRANCH   1  12
HETATM   12  C   UNK N   1      34.493  18.122   7.864  0.00  0.00     0.163 C 
HETATM   13  O   UNK N   1      35.032  19.080   8.392  0.00  0.00    -0.648 OA
BRANCH  12  14
HETATM   14  O   UNK N   1      34.458  18.038   6.519  0.00  0.00    -0.775 OA
HETATM   15  H   UNK N   1      35.166  18.245   5.942  0.00  0.00     0.167 HD
ENDBRANCH  12  14
ENDBRANCH   1  12
TORSDOF 7
ENDMDL
MODEL 9
REMARK VINA RESULT:      -4.3      3.866      4.271
REMARK  7 active torsions:
REMARK  status: ('A' for Active; 'I' for Inactive)
REMARK    1  A    between atoms: C_2  and  N_1 
REMARK    2  A    between atoms: C_2  and  C_3 
REMARK    3  A    between atoms: C_2  and  C_10 
REMARK    4  A    between atoms: C_3  and  C_4 
REMARK    5  A    between atoms: C_4  and  S_5 
REMARK    6  A    between atoms: S_5  and  C_6 
REMARK    7  A    between atoms: C_10  and  O_11 
ROOT
HETATM    1  C   UNK N   1      33.330  16.819   8.317  0.00  0.00     0.174 C 
ENDROOT
BRANCH   1   2
HETATM    2  N   UNK N   1      33.039  16.112   9.553  0.00  0.00    -0.418 N 
HETATM    3  H   UNK N   1      32.502  15.246   9.583  0.00  0.00     0.150 HD
HETATM    4  H   UNK N   1      33.390  16.499  10.429  0.00  0.00     0.150 HD
ENDBRANCH   1   2
BRANCH   1   5
HETATM    5  C   UNK N   1      32.089  17.562   7.853  0.00  0.00     0.046 C 
BRANCH   5   6
HETATM    6  C   UNK N   1      31.334  16.691   6.865  0.00  0.00     0.085 C 
BRANCH   6   7
HETATM    7  S   UNK N   1      32.487  15.885   5.713  0.00  0.00    -0.056 SA
BRANCH   7   8
HETATM    8  C   UNK N   1      32.515  17.256   4.513  0.00  0.00     0.443 C 
HETATM    9  F   UNK N   1      33.530  18.146   4.814  0.00  0.00    -0.160 F 
HETATM   10  F   UNK N   1      31.308  17.925   4.585  0.00  0.00    -0.160 F 
HETATM   11  F   UNK N   1      32.674  16.762   3.232  0.00  0.00    -0.160 F 
ENDBRANCH   7   8
ENDBRANCH   6   7
ENDBRANCH   5   6
ENDBRANCH   1   5
BRANCH   1  12
HETATM   12  C   UNK N   1      34.489  17.762   8.501  0.00  0.00     0.163 C 
HETATM   13  O   UNK N   1      34.777  18.553   7.619  0.00  0.00    -0.648 OA
BRANCH  12  14
HETATM   14  O   UNK N   1      35.227  17.725   9.629  0.00  0.00    -0.775 OA
HETATM   15  H   UNK N   1      36.152  17.583   9.670  0.00  0.00     0.167 HD
ENDBRANCH  12  14
ENDBRANCH   1  12
TORSDOF 7
ENDMDL
