REMARK  15 active torsions:
REMARK  status: ('A' for Active; 'I' for Inactive)
REMARK    1  A    between atoms: C_18  and  C_9 
REMARK    2  A    between atoms: C_19  and  C_9 
REMARK    3  A    between atoms: N_38  and  C_18 
REMARK    4  A    between atoms: O_41  and  C_19 
REMARK    5  A    between atoms: C_24  and  C_21 
REMARK    6  A    between atoms: C_31  and  C_21 
REMARK    7  A    between atoms: C_27  and  C_22 
REMARK    8  A    between atoms: N_38  and  C_22 
REMARK    9  A    between atoms: C_29  and  C_23 
REMARK   10  A    between atoms: N_38  and  C_23 
REMARK   11  A    between atoms: C_29  and  C_25 
REMARK   12  A    between atoms: C_29  and  C_26 
REMARK   13  A    between atoms: O_41  and  C_28 
REMARK   14  A    between atoms: C_33  and  C_30 
REMARK   15  A    between atoms: O_40  and  C_31 
ROOT
HETATM    1  N   UNK N   1       2.822  -3.617   0.519  0.00  0.00     0.093 N 
ENDROOT
BRANCH   1   2
HETATM    2  C   UNK N   1       2.993  -4.240   1.827  0.00  0.00     0.275 C 
BRANCH   2   3
HETATM    3  C   UNK N   1       4.112  -3.549   2.589  0.00  0.00     0.057 C 
BRANCH   3   4
HETATM    4  C   UNK N   1       5.420  -4.281   2.370  0.00  0.00     0.177 C 
BRANCH   4   5
HETATM    5  O   UNK N   1       6.373  -3.417   1.875  0.00  0.00    -0.351 OA
BRANCH   5   6
HETATM    6  C   UNK N   1       7.169  -3.725   0.822  0.00  0.00     0.069 A 
HETATM    7  C   UNK N   1       7.050  -4.953   0.149  0.00  0.00     0.037 A 
HETATM    8  C   UNK N   1       7.888  -5.255  -0.927  0.00  0.00     0.003 A 
HETATM    9  C   UNK N   1       8.857  -4.337  -1.335  0.00  0.00     0.008 A 
HETATM   10  C   UNK N   1       8.993  -3.118  -0.666  0.00  0.00    -0.046 A 
HETATM   11  C   UNK N   1       8.146  -2.811   0.410  0.00  0.00     0.044 A 
BRANCH  10  12
HETATM   12  C   UNK N   1      10.051  -2.160  -1.096  0.00  0.00     0.148 C 
BRANCH  12  13
HETATM   13  C   UNK N   1      11.117  -2.045  -0.054  0.00  0.00     0.143 C 
HETATM   14  O   UNK N   1      11.337  -0.967   0.476  0.00  0.00    -0.650 OA
BRANCH  13  15
HETATM   15  O   UNK N   1      11.843  -3.124   0.295  0.00  0.00    -0.776 OA
HETATM   16  H   UNK N   1      11.445  -3.937   0.537  0.00  0.00     0.167 HD
ENDBRANCH  13  15
ENDBRANCH  12  13
ENDBRANCH  10  12
ENDBRANCH   5   6
ENDBRANCH   4   5
ENDBRANCH   3   4
ENDBRANCH   2   3
ENDBRANCH   1   2
BRANCH   1  17
HETATM   17  C   UNK N   1       2.142  -4.548  -0.383  0.00  0.00     0.312 C 
BRANCH  17  18
HETATM   18  C   UNK N   1       2.950  -5.788  -0.623  0.00  0.00    -0.008 A 
HETATM   19  C   UNK N   1       4.176  -5.694  -1.285  0.00  0.00     0.011 A 
HETATM   20  C   UNK N   1       4.952  -6.832  -1.485  0.00  0.00     0.002 A 
HETATM   21  C   UNK N   1       4.514  -8.067  -1.012  0.00  0.00     0.018 A 
HETATM   22  C   UNK N   1       3.284  -8.195  -0.350  0.00  0.00     0.070 A 
HETATM   23  C   UNK N   1       2.483  -7.035  -0.161  0.00  0.00     0.057 A 
HETATM   24 Cl   UNK N   1       0.917  -7.084   0.664  0.00  0.00    -0.083 Cl
BRANCH  22  25
HETATM   25  C   UNK N   1       2.908  -9.581   0.132  0.00  0.00     0.419 C 
HETATM   26  F   UNK N   1       1.674  -9.653   0.744  0.00  0.00    -0.166 F 
HETATM   27  F   UNK N   1       3.859 -10.010   1.041  0.00  0.00    -0.166 F 
HETATM   28  F   UNK N   1       2.900 -10.449  -0.945  0.00  0.00    -0.166 F 
ENDBRANCH  22  25
ENDBRANCH  17  18
ENDBRANCH   1  17
BRANCH   1  29
HETATM   29  C   UNK N   1       1.910  -2.498   0.724  0.00  0.00     0.286 C 
BRANCH  29  30
HETATM   30  C   UNK N   1       2.006  -1.505  -0.429  0.00  0.00     0.080 C 
BRANCH  30  31
HETATM   31  C   UNK N   1       0.844  -0.537  -0.390  0.00  0.00    -0.048 A 
HETATM   32  C   UNK N   1      -0.465  -1.045  -0.357  0.00  0.00     0.008 A 
HETATM   33  C   UNK N   1      -1.562  -0.181  -0.322  0.00  0.00     0.001 A 
HETATM   34  C   UNK N   1      -1.362   1.202  -0.334  0.00  0.00     0.000 A 
HETATM   35  C   UNK N   1      -0.065   1.719  -0.379  0.00  0.00     0.001 A 
HETATM   36  C   UNK N   1       1.034   0.855  -0.404  0.00  0.00     0.008 A 
ENDBRANCH  30  31
BRANCH  30  37
HETATM   37  C   UNK N   1       3.376  -0.881  -0.433  0.00  0.00    -0.048 A 
HETATM   38  C   UNK N   1       3.828  -0.121   0.658  0.00  0.00     0.008 A 
HETATM   39  C   UNK N   1       5.123   0.404   0.660  0.00  0.00     0.001 A 
HETATM   40  C   UNK N   1       5.975   0.164  -0.421  0.00  0.00     0.000 A 
HETATM   41  C   UNK N   1       5.531  -0.596  -1.507  0.00  0.00     0.001 A 
HETATM   42  C   UNK N   1       4.235  -1.119  -1.512  0.00  0.00     0.008 A 
ENDBRANCH  30  37
ENDBRANCH  29  30
ENDBRANCH   1  29
TORSDOF 15
