MODEL 1
REMARK VINA RESULT:      -3.3      0.000      0.000
REMARK  2 active torsions:
REMARK  status: ('A' for Active; 'I' for Inactive)
REMARK    1  A    between atoms: C_2  and  C_3 
REMARK    2  A    between atoms: C_3  and  O_4 
ROOT
HETATM    1  C   UNK N   1      34.385  18.257   7.906  0.00  0.00     0.139 C 
HETATM    2  O   UNK N   1      35.074  19.132   8.410  0.00  0.00    -0.650 OA
ENDROOT
BRANCH   1   3
HETATM    3  C   UNK N   1      33.414  17.466   8.731  0.00  0.00     0.105 C 
HETATM    4  C   UNK N   1      31.968  17.799   8.401  0.00  0.00     0.016 C 
ENDBRANCH   1   3
BRANCH   1   5
HETATM    5  O   UNK N   1      34.497  17.997   6.592  0.00  0.00    -0.776 OA
HETATM    6  H   UNK N   1      34.370  18.683   5.966  0.00  0.00     0.167 HD
ENDBRANCH   1   5
TORSDOF 2
ENDMDL
MODEL 2
REMARK VINA RESULT:      -3.2     12.027     12.708
REMARK  2 active torsions:
REMARK  status: ('A' for Active; 'I' for Inactive)
REMARK    1  A    between atoms: C_2  and  C_3 
REMARK    2  A    between atoms: C_3  and  O_4 
ROOT
HETATM    1  C   UNK N   1      23.899  12.031  11.923  0.00  0.00     0.139 C 
HETATM    2  O   UNK N   1      23.593  12.001  13.105  0.00  0.00    -0.650 OA
ENDROOT
BRANCH   1   3
HETATM    3  C   UNK N   1      22.929  11.608  10.860  0.00  0.00     0.105 C 
HETATM    4  C   UNK N   1      21.564  12.255  11.031  0.00  0.00     0.016 C 
ENDBRANCH   1   3
BRANCH   1   5
HETATM    5  O   UNK N   1      25.126  12.450  11.563  0.00  0.00    -0.776 OA
HETATM    6  H   UNK N   1      25.827  11.834  11.484  0.00  0.00     0.167 HD
ENDBRANCH   1   5
TORSDOF 2
ENDMDL
MODEL 3
REMARK VINA RESULT:      -3.2     14.528     14.931
REMARK  2 active torsions:
REMARK  status: ('A' for Active; 'I' for Inactive)
REMARK    1  A    between atoms: C_2  and  C_3 
REMARK    2  A    between atoms: C_3  and  O_4 
ROOT
HETATM    1  C   UNK N   1      20.902  20.378   1.202  0.00  0.00     0.139 C 
HETATM    2  O   UNK N   1      21.384  21.269   1.887  0.00  0.00    -0.650 OA
ENDROOT
BRANCH   1   3
HETATM    3  C   UNK N   1      20.621  19.023   1.781  0.00  0.00     0.105 C 
HETATM    4  C   UNK N   1      19.443  19.036   2.741  0.00  0.00     0.016 C 
ENDBRANCH   1   3
BRANCH   1   5
HETATM    5  O   UNK N   1      20.618  20.613  -0.091  0.00  0.00    -0.776 OA
HETATM    6  H   UNK N   1      21.061  21.299  -0.551  0.00  0.00     0.167 HD
ENDBRANCH   1   5
TORSDOF 2
ENDMDL
MODEL 4
REMARK VINA RESULT:      -3.0     13.933     14.369
REMARK  2 active torsions:
REMARK  status: ('A' for Active; 'I' for Inactive)
REMARK    1  A    between atoms: C_2  and  C_3 
REMARK    2  A    between atoms: C_3  and  O_4 
ROOT
HETATM    1  C   UNK N   1      20.981  20.735   2.809  0.00  0.00     0.139 C 
HETATM    2  O   UNK N   1      20.321  20.612   3.830  0.00  0.00    -0.650 OA
ENDROOT
BRANCH   1   3
HETATM    3  C   UNK N   1      20.753  19.841   1.627  0.00  0.00     0.105 C 
HETATM    4  C   UNK N   1      20.310  18.445   2.033  0.00  0.00     0.016 C 
ENDBRANCH   1   3
BRANCH   1   5
HETATM    5  O   UNK N   1      21.928  21.687   2.740  0.00  0.00    -0.776 OA
HETATM    6  H   UNK N   1      22.510  21.822   3.462  0.00  0.00     0.167 HD
ENDBRANCH   1   5
TORSDOF 2
ENDMDL
MODEL 5
REMARK VINA RESULT:      -3.0     17.462     17.894
REMARK  2 active torsions:
REMARK  status: ('A' for Active; 'I' for Inactive)
REMARK    1  A    between atoms: C_2  and  C_3 
REMARK    2  A    between atoms: C_3  and  O_4 
ROOT
HETATM    1  C   UNK N   1      25.869  28.348  -3.775  0.00  0.00     0.139 C 
HETATM    2  O   UNK N   1      25.723  27.657  -2.778  0.00  0.00    -0.650 OA
ENDROOT
BRANCH   1   3
HETATM    3  C   UNK N   1      26.022  27.727  -5.132  0.00  0.00     0.105 C 
HETATM    4  C   UNK N   1      24.721  27.135  -5.647  0.00  0.00     0.016 C 
ENDBRANCH   1   3
BRANCH   1   5
HETATM    5  O   UNK N   1      25.895  29.687  -3.659  0.00  0.00    -0.776 OA
HETATM    6  H   UNK N   1      25.765  30.088  -2.821  0.00  0.00     0.167 HD
ENDBRANCH   1   5
TORSDOF 2
ENDMDL
MODEL 6
REMARK VINA RESULT:      -3.0     11.701     12.136
REMARK  2 active torsions:
REMARK  status: ('A' for Active; 'I' for Inactive)
REMARK    1  A    between atoms: C_2  and  C_3 
REMARK    2  A    between atoms: C_3  and  O_4 
ROOT
HETATM    1  C   UNK N   1      31.062  22.237  -2.520  0.00  0.00     0.139 C 
HETATM    2  O   UNK N   1      30.636  23.013  -1.677  0.00  0.00    -0.650 OA
ENDROOT
BRANCH   1   3
HETATM    3  C   UNK N   1      30.403  22.112  -3.862  0.00  0.00     0.105 C 
HETATM    4  C   UNK N   1      30.802  20.838  -4.587  0.00  0.00     0.016 C 
ENDBRANCH   1   3
BRANCH   1   5
HETATM    5  O   UNK N   1      32.140  21.482  -2.244  0.00  0.00    -0.776 OA
HETATM    6  H   UNK N   1      32.777  21.313  -2.910  0.00  0.00     0.167 HD
ENDBRANCH   1   5
TORSDOF 2
ENDMDL
MODEL 7
REMARK VINA RESULT:      -2.9      4.882      5.585
REMARK  2 active torsions:
REMARK  status: ('A' for Active; 'I' for Inactive)
REMARK    1  A    between atoms: C_2  and  C_3 
REMARK    2  A    between atoms: C_3  and  O_4 
ROOT
HETATM    1  C   UNK N   1      28.478  18.562   8.848  0.00  0.00     0.139 C 
HETATM    2  O   UNK N   1      28.377  19.042   7.729  0.00  0.00    -0.650 OA
ENDROOT
BRANCH   1   3
HETATM    3  C   UNK N   1      29.781  18.598   9.591  0.00  0.00     0.105 C 
HETATM    4  C   UNK N   1      30.947  18.126   8.740  0.00  0.00     0.016 C 
ENDBRANCH   1   3
BRANCH   1   5
HETATM    5  O   UNK N   1      27.407  17.991   9.426  0.00  0.00    -0.776 OA
HETATM    6  H   UNK N   1      26.711  18.527   9.755  0.00  0.00     0.167 HD
ENDBRANCH   1   5
TORSDOF 2
ENDMDL
MODEL 8
REMARK VINA RESULT:      -2.9     11.853     12.323
REMARK  2 active torsions:
REMARK  status: ('A' for Active; 'I' for Inactive)
REMARK    1  A    between atoms: C_2  and  C_3 
REMARK    2  A    between atoms: C_3  and  O_4 
ROOT
HETATM    1  C   UNK N   1      31.091  22.634  -2.422  0.00  0.00     0.139 C 
HETATM    2  O   UNK N   1      30.399  22.989  -1.480  0.00  0.00    -0.650 OA
ENDROOT
BRANCH   1   3
HETATM    3  C   UNK N   1      31.060  23.372  -3.727  0.00  0.00     0.105 C 
HETATM    4  C   UNK N   1      30.742  24.848  -3.551  0.00  0.00     0.016 C 
ENDBRANCH   1   3
BRANCH   1   5
HETATM    5  O   UNK N   1      31.896  21.565  -2.290  0.00  0.00    -0.776 OA
HETATM    6  H   UNK N   1      31.811  21.003  -1.544  0.00  0.00     0.167 HD
ENDBRANCH   1   5
TORSDOF 2
ENDMDL
MODEL 9
REMARK VINA RESULT:      -2.8     10.832     11.668
REMARK  2 active torsions:
REMARK  status: ('A' for Active; 'I' for Inactive)
REMARK    1  A    between atoms: C_2  and  C_3 
REMARK    2  A    between atoms: C_3  and  O_4 
ROOT
HETATM    1  C   UNK N   1      44.567  21.927   4.249  0.00  0.00     0.139 C 
HETATM    2  O   UNK N   1      43.828  22.520   5.021  0.00  0.00    -0.650 OA
ENDROOT
BRANCH   1   3
HETATM    3  C   UNK N   1      44.043  20.844   3.354  0.00  0.00     0.105 C 
HETATM    4  C   UNK N   1      42.539  20.664   3.480  0.00  0.00     0.016 C 
ENDBRANCH   1   3
BRANCH   1   5
HETATM    5  O   UNK N   1      45.871  22.248   4.198  0.00  0.00    -0.776 OA
HETATM    6  H   UNK N   1      46.516  21.575   4.097  0.00  0.00     0.167 HD
ENDBRANCH   1   5
TORSDOF 2
ENDMDL
