REMARK  7 active torsions:
REMARK  status: ('A' for Active; 'I' for Inactive)
REMARK    1  A    between atoms: C_2  and  O_1 
REMARK    2  A    between atoms: C_4  and  N_13 
REMARK    3  A    between atoms: C_6  and  C_7 
REMARK    4  A    between atoms: C_7  and  O_8 
REMARK    5  A    between atoms: O_8  and  P_9 
REMARK    6  A    between atoms: P_9  and  O_10 
REMARK    7  A    between atoms: P_9  and  O_11 
ROOT
HETATM    1  C   UNK N   1       0.742  -0.159   0.229  0.00  0.00     0.153 C 
HETATM    2  C   UNK N   1       1.917  -1.068   0.467  0.00  0.00     0.088 C 
HETATM    3  C   UNK N   1       1.232  -2.377   0.193  0.00  0.00     0.235 C 
HETATM    4  O   UNK N   1       0.496  -2.180  -0.982  0.00  0.00    -0.356 OA
HETATM    5  C   UNK N   1      -0.142  -0.951  -0.742  0.00  0.00     0.177 C 
ENDROOT
BRANCH   3   6
HETATM    6  N   UNK N   1       2.071  -3.573   0.104  0.00  0.00    -0.282 N 
HETATM    7  C   UNK N   1       3.433  -3.483   0.072  0.00  0.00     0.104 A 
HETATM    8  C   UNK N   1       4.216  -4.634   0.003  0.00  0.00     0.092 A 
HETATM    9  C   UNK N   1       3.588  -5.875  -0.024  0.00  0.00     0.250 A 
HETATM   10  O   UNK N   1       4.249  -6.894  -0.081  0.00  0.00    -0.268 OA
HETATM   11  N   UNK N   1       2.223  -5.949   0.018  0.00  0.00    -0.275 N 
HETATM   12  C   UNK N   1       1.465  -4.814   0.080  0.00  0.00     0.331 A 
HETATM   13  H   UNK N   1       1.782  -6.830   0.002  0.00  0.00     0.173 HD
HETATM   14  O   UNK N   1       0.247  -4.909   0.129  0.00  0.00    -0.246 OA
ENDBRANCH   3   6
BRANCH   1  15
HETATM   15  O   UNK N   1       1.166   1.033  -0.355  0.00  0.00    -0.393 OA
HETATM   16  H   UNK N   1       2.033   1.192  -0.762  0.00  0.00     0.210 HD
ENDBRANCH   1  15
BRANCH   5  17
HETATM   17  C   UNK N   1      -1.517  -1.264  -0.153  0.00  0.00     0.215 C 
BRANCH  17  18
HETATM   18  O   UNK N   1      -2.056  -0.172   0.532  0.00  0.00    -0.294 OA
BRANCH  18  19
HETATM   19  P   UNK N   1      -3.332   0.436  -0.476  0.00  0.00     0.390 P 
HETATM   20  O   UNK N   1      -2.632   1.724   0.035  0.00  0.00    -0.632 OA
BRANCH  19  21
HETATM   21  O   UNK N   1      -4.627   1.331   0.252  0.00  0.00    -0.307 OA
HETATM   22  H   UNK N   1      -4.556   2.209   0.659  0.00  0.00     0.222 HD
ENDBRANCH  19  21
BRANCH  19  23
HETATM   23  O   UNK N   1      -4.033  -0.449   0.846  0.00  0.00    -0.307 OA
HETATM   24  H   UNK N   1      -4.657  -0.357   1.583  0.00  0.00     0.222 HD
ENDBRANCH  19  23
ENDBRANCH  18  19
ENDBRANCH  17  18
ENDBRANCH   5  17
TORSDOF 7
