MODEL 1
REMARK VINA RESULT:      -5.1      0.000      0.000
REMARK  9 active torsions:
REMARK  status: ('A' for Active; 'I' for Inactive)
REMARK    1  A    between atoms: O_1  and  C_2 
REMARK    2  A    between atoms: C_2  and  C_3 
REMARK    3  A    between atoms: C_3  and  O_4 
REMARK    4  A    between atoms: C_3  and  C_5 
REMARK    5  A    between atoms: C_5  and  O_6 
REMARK    6  A    between atoms: C_5  and  C_7 
REMARK    7  A    between atoms: C_7  and  C_8 
REMARK    8  A    between atoms: C_8  and  C_10 
REMARK    9  A    between atoms: C_10  and  O_11 
ROOT
HETATM    1  C   UNK N   1      35.830  15.642  10.570  0.00  0.00     0.156 C 
ENDROOT
BRANCH   1   2
HETATM    2  C   UNK N   1      35.163  14.976  11.776  0.00  0.00     0.170 C 
BRANCH   2   3
HETATM    3  C   UNK N   1      35.913  13.747  12.263  0.00  0.00     0.198 C 
BRANCH   3   4
HETATM    4  O   UNK N   1      36.909  14.118  13.167  0.00  0.00    -0.398 OA
HETATM    5  H   UNK N   1      37.702  14.630  12.944  0.00  0.00     0.209 HD
ENDBRANCH   3   4
ENDBRANCH   2   3
BRANCH   2   6
HETATM    6  O   UNK N   1      33.863  14.600  11.432  0.00  0.00    -0.391 OA
HETATM    7  H   UNK N   1      33.689  13.765  10.968  0.00  0.00     0.210 HD
ENDBRANCH   2   6
ENDBRANCH   1   2
BRANCH   1   8
HETATM    8  O   UNK N   1      37.205  15.777  10.780  0.00  0.00    -0.393 OA
HETATM    9  H   UNK N   1      37.837  15.448  10.122  0.00  0.00     0.210 HD
ENDBRANCH   1   8
BRANCH   1  10
HETATM   10  C   UNK N   1      35.217  17.025  10.393  0.00  0.00     0.124 C 
BRANCH  10  11
HETATM   11  C   UNK N   1      34.390  17.165   9.151  0.00  0.00     0.224 C 
HETATM   12  O   UNK N   1      33.498  16.366   8.914  0.00  0.00    -0.286 OA
BRANCH  11  13
HETATM   13  C   UNK N   1      34.700  18.236   8.183  0.00  0.00     0.213 C 
HETATM   14  O   UNK N   1      35.280  19.246   8.547  0.00  0.00    -0.644 OA
BRANCH  13  15
HETATM   15  O   UNK N   1      34.362  18.094   6.885  0.00  0.00    -0.771 OA
HETATM   16  H   UNK N   1      33.992  17.304   6.543  0.00  0.00     0.167 HD
ENDBRANCH  13  15
ENDBRANCH  11  13
ENDBRANCH  10  11
ENDBRANCH   1  10
TORSDOF 9
ENDMDL
MODEL 2
REMARK VINA RESULT:      -4.9      1.628      1.926
REMARK  9 active torsions:
REMARK  status: ('A' for Active; 'I' for Inactive)
REMARK    1  A    between atoms: O_1  and  C_2 
REMARK    2  A    between atoms: C_2  and  C_3 
REMARK    3  A    between atoms: C_3  and  O_4 
REMARK    4  A    between atoms: C_3  and  C_5 
REMARK    5  A    between atoms: C_5  and  O_6 
REMARK    6  A    between atoms: C_5  and  C_7 
REMARK    7  A    between atoms: C_7  and  C_8 
REMARK    8  A    between atoms: C_8  and  C_10 
REMARK    9  A    between atoms: C_10  and  O_11 
ROOT
HETATM    1  C   UNK N   1      35.360  15.950  10.439  0.00  0.00     0.156 C 
ENDROOT
BRANCH   1   2
HETATM    2  C   UNK N   1      34.701  14.829  11.248  0.00  0.00     0.170 C 
BRANCH   2   3
HETATM    3  C   UNK N   1      35.079  13.442  10.753  0.00  0.00     0.198 C 
BRANCH   3   4
HETATM    4  O   UNK N   1      33.932  12.714  10.437  0.00  0.00    -0.398 OA
HETATM    5  H   UNK N   1      33.924  11.826  10.047  0.00  0.00     0.209 HD
ENDBRANCH   3   4
ENDBRANCH   2   3
BRANCH   2   6
HETATM    6  O   UNK N   1      33.314  14.966  11.177  0.00  0.00    -0.391 OA
HETATM    7  H   UNK N   1      32.844  15.607  11.734  0.00  0.00     0.210 HD
ENDBRANCH   2   6
ENDBRANCH   1   2
BRANCH   1   8
HETATM    8  O   UNK N   1      35.015  17.201  10.959  0.00  0.00    -0.393 OA
HETATM    9  H   UNK N   1      35.665  17.920  10.979  0.00  0.00     0.210 HD
ENDBRANCH   1   8
BRANCH   1  10
HETATM   10  C   UNK N   1      34.862  15.854   9.004  0.00  0.00     0.124 C 
BRANCH  10  11
HETATM   11  C   UNK N   1      33.948  16.974   8.605  0.00  0.00     0.224 C 
HETATM   12  O   UNK N   1      32.760  16.925   8.884  0.00  0.00    -0.286 OA
BRANCH  11  13
HETATM   13  C   UNK N   1      34.477  18.104   7.817  0.00  0.00     0.213 C 
HETATM   14  O   UNK N   1      34.355  18.119   6.603  0.00  0.00    -0.644 OA
BRANCH  13  15
HETATM   15  O   UNK N   1      35.081  19.137   8.437  0.00  0.00    -0.771 OA
HETATM   16  H   UNK N   1      35.012  20.021   8.132  0.00  0.00     0.167 HD
ENDBRANCH  13  15
ENDBRANCH  11  13
ENDBRANCH  10  11
ENDBRANCH   1  10
TORSDOF 9
ENDMDL
MODEL 3
REMARK VINA RESULT:      -4.7      1.100      2.054
REMARK  9 active torsions:
REMARK  status: ('A' for Active; 'I' for Inactive)
REMARK    1  A    between atoms: O_1  and  C_2 
REMARK    2  A    between atoms: C_2  and  C_3 
REMARK    3  A    between atoms: C_3  and  O_4 
REMARK    4  A    between atoms: C_3  and  C_5 
REMARK    5  A    between atoms: C_5  and  O_6 
REMARK    6  A    between atoms: C_5  and  C_7 
REMARK    7  A    between atoms: C_7  and  C_8 
REMARK    8  A    between atoms: C_8  and  C_10 
REMARK    9  A    between atoms: C_10  and  O_11 
ROOT
HETATM    1  C   UNK N   1      34.757  15.677  10.884  0.00  0.00     0.156 C 
ENDROOT
BRANCH   1   2
HETATM    2  C   UNK N   1      36.118  14.978  10.940  0.00  0.00     0.170 C 
BRANCH   2   3
HETATM    3  C   UNK N   1      36.312  14.162  12.209  0.00  0.00     0.198 C 
BRANCH   3   4
HETATM    4  O   UNK N   1      36.420  15.009  13.312  0.00  0.00    -0.398 OA
HETATM    5  H   UNK N   1      37.229  15.469  13.586  0.00  0.00     0.209 HD
ENDBRANCH   3   4
ENDBRANCH   2   3
BRANCH   2   6
HETATM    6  O   UNK N   1      37.130  15.936  10.864  0.00  0.00    -0.391 OA
HETATM    7  H   UNK N   1      36.943  16.876  11.018  0.00  0.00     0.210 HD
ENDBRANCH   2   6
ENDBRANCH   1   2
BRANCH   1   8
HETATM    8  O   UNK N   1      33.764  14.869  11.446  0.00  0.00    -0.393 OA
HETATM    9  H   UNK N   1      33.644  14.834  12.407  0.00  0.00     0.210 HD
ENDBRANCH   1   8
BRANCH   1  10
HETATM   10  C   UNK N   1      34.417  15.938   9.423  0.00  0.00     0.124 C 
BRANCH  10  11
HETATM   11  C   UNK N   1      34.637  17.358   8.995  0.00  0.00     0.224 C 
HETATM   12  O   UNK N   1      35.401  18.075   9.620  0.00  0.00    -0.286 OA
BRANCH  11  13
HETATM   13  C   UNK N   1      33.877  17.903   7.853  0.00  0.00     0.213 C 
HETATM   14  O   UNK N   1      34.424  18.078   6.777  0.00  0.00    -0.644 OA
BRANCH  13  15
HETATM   15  O   UNK N   1      32.567  18.191   7.988  0.00  0.00    -0.771 OA
HETATM   16  H   UNK N   1      32.205  19.022   7.752  0.00  0.00     0.167 HD
ENDBRANCH  13  15
ENDBRANCH  11  13
ENDBRANCH  10  11
ENDBRANCH   1  10
TORSDOF 9
ENDMDL
MODEL 4
REMARK VINA RESULT:      -4.7      1.704      4.406
REMARK  9 active torsions:
REMARK  status: ('A' for Active; 'I' for Inactive)
REMARK    1  A    between atoms: O_1  and  C_2 
REMARK    2  A    between atoms: C_2  and  C_3 
REMARK    3  A    between atoms: C_3  and  O_4 
REMARK    4  A    between atoms: C_3  and  C_5 
REMARK    5  A    between atoms: C_5  and  O_6 
REMARK    6  A    between atoms: C_5  and  C_7 
REMARK    7  A    between atoms: C_7  and  C_8 
REMARK    8  A    between atoms: C_8  and  C_10 
REMARK    9  A    between atoms: C_10  and  O_11 
ROOT
HETATM    1  C   UNK N   1      32.808  15.128   8.963  0.00  0.00     0.156 C 
ENDROOT
BRANCH   1   2
HETATM    2  C   UNK N   1      32.846  16.420   8.142  0.00  0.00     0.170 C 
BRANCH   2   3
HETATM    3  C   UNK N   1      34.091  16.535   7.278  0.00  0.00     0.198 C 
BRANCH   3   4
HETATM    4  O   UNK N   1      34.604  17.831   7.343  0.00  0.00    -0.398 OA
HETATM    5  H   UNK N   1      35.393  18.143   6.872  0.00  0.00     0.209 HD
ENDBRANCH   3   4
ENDBRANCH   2   3
BRANCH   2   6
HETATM    6  O   UNK N   1      32.798  17.515   9.007  0.00  0.00    -0.391 OA
HETATM    7  H   UNK N   1      33.416  18.257   8.910  0.00  0.00     0.210 HD
ENDBRANCH   2   6
ENDBRANCH   1   2
BRANCH   1   8
HETATM    8  O   UNK N   1      32.138  15.333  10.173  0.00  0.00    -0.393 OA
HETATM    9  H   UNK N   1      32.633  15.560  10.976  0.00  0.00     0.210 HD
ENDBRANCH   1   8
BRANCH   1  10
HETATM   10  C   UNK N   1      34.243  14.710   9.255  0.00  0.00     0.124 C 
BRANCH  10  11
HETATM   11  C   UNK N   1      34.757  15.194  10.577  0.00  0.00     0.224 C 
HETATM   12  O   UNK N   1      34.327  14.715  11.614  0.00  0.00    -0.286 OA
BRANCH  11  13
HETATM   13  C   UNK N   1      35.738  16.297  10.621  0.00  0.00     0.213 C 
HETATM   14  O   UNK N   1      35.390  17.439  10.371  0.00  0.00    -0.644 OA
BRANCH  13  15
HETATM   15  O   UNK N   1      37.019  16.050  10.959  0.00  0.00    -0.771 OA
HETATM   16  H   UNK N   1      37.500  15.322  10.617  0.00  0.00     0.167 HD
ENDBRANCH  13  15
ENDBRANCH  11  13
ENDBRANCH  10  11
ENDBRANCH   1  10
TORSDOF 9
ENDMDL
MODEL 5
REMARK VINA RESULT:      -4.7     14.313     16.514
REMARK  9 active torsions:
REMARK  status: ('A' for Active; 'I' for Inactive)
REMARK    1  A    between atoms: O_1  and  C_2 
REMARK    2  A    between atoms: C_2  and  C_3 
REMARK    3  A    between atoms: C_3  and  O_4 
REMARK    4  A    between atoms: C_3  and  C_5 
REMARK    5  A    between atoms: C_5  and  O_6 
REMARK    6  A    between atoms: C_5  and  C_7 
REMARK    7  A    between atoms: C_7  and  C_8 
REMARK    8  A    between atoms: C_8  and  C_10 
REMARK    9  A    between atoms: C_10  and  O_11 
ROOT
HETATM    1  C   UNK N   1      20.355  19.717   2.520  0.00  0.00     0.156 C 
ENDROOT
BRANCH   1   2
HETATM    2  C   UNK N   1      19.485  18.468   2.692  0.00  0.00     0.170 C 
BRANCH   2   3
HETATM    3  C   UNK N   1      19.942  17.305   1.825  0.00  0.00     0.198 C 
BRANCH   3   4
HETATM    4  O   UNK N   1      19.226  17.286   0.628  0.00  0.00    -0.398 OA
HETATM    5  H   UNK N   1      18.725  18.034   0.266  0.00  0.00     0.209 HD
ENDBRANCH   3   4
ENDBRANCH   2   3
BRANCH   2   6
HETATM    6  O   UNK N   1      18.165  18.779   2.363  0.00  0.00    -0.391 OA
HETATM    7  H   UNK N   1      17.876  18.827   1.438  0.00  0.00     0.210 HD
ENDBRANCH   2   6
ENDBRANCH   1   2
BRANCH   1   8
HETATM    8  O   UNK N   1      20.413  20.095   1.175  0.00  0.00    -0.393 OA
HETATM    9  H   UNK N   1      21.264  20.131   0.712  0.00  0.00     0.210 HD
ENDBRANCH   1   8
BRANCH   1  10
HETATM   10  C   UNK N   1      21.760  19.385   3.003  0.00  0.00     0.124 C 
BRANCH  10  11
HETATM   11  C   UNK N   1      22.718  20.535   2.914  0.00  0.00     0.224 C 
HETATM   12  O   UNK N   1      22.301  21.667   2.729  0.00  0.00    -0.286 OA
BRANCH  11  13
HETATM   13  C   UNK N   1      24.171  20.284   2.984  0.00  0.00     0.213 C 
HETATM   14  O   UNK N   1      24.625  19.535   3.833  0.00  0.00    -0.644 OA
BRANCH  13  15
HETATM   15  O   UNK N   1      25.002  20.866   2.097  0.00  0.00    -0.771 OA
HETATM   16  H   UNK N   1      25.090  20.565   1.214  0.00  0.00     0.167 HD
ENDBRANCH  13  15
ENDBRANCH  11  13
ENDBRANCH  10  11
ENDBRANCH   1  10
TORSDOF 9
ENDMDL
MODEL 6
REMARK VINA RESULT:      -4.6      3.505      5.698
REMARK  9 active torsions:
REMARK  status: ('A' for Active; 'I' for Inactive)
REMARK    1  A    between atoms: O_1  and  C_2 
REMARK    2  A    between atoms: C_2  and  C_3 
REMARK    3  A    between atoms: C_3  and  O_4 
REMARK    4  A    between atoms: C_3  and  C_5 
REMARK    5  A    between atoms: C_5  and  O_6 
REMARK    6  A    between atoms: C_5  and  C_7 
REMARK    7  A    between atoms: C_7  and  C_8 
REMARK    8  A    between atoms: C_8  and  C_10 
REMARK    9  A    between atoms: C_10  and  O_11 
ROOT
HETATM    1  C   UNK N   1      30.738  17.499   7.735  0.00  0.00     0.156 C 
ENDROOT
BRANCH   1   2
HETATM    2  C   UNK N   1      29.566  17.270   8.695  0.00  0.00     0.170 C 
BRANCH   2   3
HETATM    3  C   UNK N   1      28.626  18.462   8.774  0.00  0.00     0.198 C 
BRANCH   3   4
HETATM    4  O   UNK N   1      27.451  18.105   9.437  0.00  0.00    -0.398 OA
HETATM    5  H   UNK N   1      27.271  18.260  10.377  0.00  0.00     0.209 HD
ENDBRANCH   3   4
ENDBRANCH   2   3
BRANCH   2   6
HETATM    6  O   UNK N   1      30.064  17.007   9.972  0.00  0.00    -0.391 OA
HETATM    7  H   UNK N   1      29.916  17.625  10.705  0.00  0.00     0.210 HD
ENDBRANCH   2   6
ENDBRANCH   1   2
BRANCH   1   8
HETATM    8  O   UNK N   1      31.267  16.279   7.305  0.00  0.00    -0.393 OA
HETATM    9  H   UNK N   1      31.122  15.471   7.820  0.00  0.00     0.210 HD
ENDBRANCH   1   8
BRANCH   1  10
HETATM   10  C   UNK N   1      31.816  18.273   8.481  0.00  0.00     0.124 C 
BRANCH  10  11
HETATM   11  C   UNK N   1      33.149  17.587   8.500  0.00  0.00     0.224 C 
HETATM   12  O   UNK N   1      33.305  16.566   9.151  0.00  0.00    -0.286 OA
BRANCH  11  13
HETATM   13  C   UNK N   1      34.290  18.187   7.780  0.00  0.00     0.213 C 
HETATM   14  O   UNK N   1      34.526  17.868   6.626  0.00  0.00    -0.644 OA
BRANCH  13  15
HETATM   15  O   UNK N   1      35.066  19.106   8.389  0.00  0.00    -0.771 OA
HETATM   16  H   UNK N   1      35.637  19.679   7.915  0.00  0.00     0.167 HD
ENDBRANCH  13  15
ENDBRANCH  11  13
ENDBRANCH  10  11
ENDBRANCH   1  10
TORSDOF 9
ENDMDL
MODEL 7
REMARK VINA RESULT:      -4.4      1.719      5.394
REMARK  9 active torsions:
REMARK  status: ('A' for Active; 'I' for Inactive)
REMARK    1  A    between atoms: O_1  and  C_2 
REMARK    2  A    between atoms: C_2  and  C_3 
REMARK    3  A    between atoms: C_3  and  O_4 
REMARK    4  A    between atoms: C_3  and  C_5 
REMARK    5  A    between atoms: C_5  and  O_6 
REMARK    6  A    between atoms: C_5  and  C_7 
REMARK    7  A    between atoms: C_7  and  C_8 
REMARK    8  A    between atoms: C_8  and  C_10 
REMARK    9  A    between atoms: C_10  and  O_11 
ROOT
HETATM    1  C   UNK N   1      33.305  16.672   8.137  0.00  0.00     0.156 C 
ENDROOT
BRANCH   1   2
HETATM    2  C   UNK N   1      33.571  17.761   7.095  0.00  0.00     0.170 C 
BRANCH   2   3
HETATM    3  C   UNK N   1      33.717  17.209   5.686  0.00  0.00     0.198 C 
BRANCH   3   4
HETATM    4  O   UNK N   1      32.647  17.623   4.892  0.00  0.00    -0.398 OA
HETATM    5  H   UNK N   1      31.715  17.409   5.056  0.00  0.00     0.209 HD
ENDBRANCH   3   4
ENDBRANCH   2   3
BRANCH   2   6
HETATM    6  O   UNK N   1      34.741  18.444   7.432  0.00  0.00    -0.391 OA
HETATM    7  H   UNK N   1      35.606  18.145   7.110  0.00  0.00     0.210 HD
ENDBRANCH   2   6
ENDBRANCH   1   2
BRANCH   1   8
HETATM    8  O   UNK N   1      32.633  17.200   9.242  0.00  0.00    -0.393 OA
HETATM    9  H   UNK N   1      32.226  18.079   9.195  0.00  0.00     0.210 HD
ENDBRANCH   1   8
BRANCH   1  10
HETATM   10  C   UNK N   1      34.647  16.115   8.593  0.00  0.00     0.124 C 
BRANCH  10  11
HETATM   11  C   UNK N   1      34.981  16.433  10.019  0.00  0.00     0.224 C 
HETATM   12  O   UNK N   1      35.500  17.500  10.304  0.00  0.00    -0.286 OA
BRANCH  11  13
HETATM   13  C   UNK N   1      34.740  15.423  11.069  0.00  0.00     0.213 C 
HETATM   14  O   UNK N   1      35.658  15.035  11.772  0.00  0.00    -0.644 OA
BRANCH  13  15
HETATM   15  O   UNK N   1      33.497  14.940  11.269  0.00  0.00    -0.771 OA
HETATM   16  H   UNK N   1      32.948  14.651  10.567  0.00  0.00     0.167 HD
ENDBRANCH  13  15
ENDBRANCH  11  13
ENDBRANCH  10  11
ENDBRANCH   1  10
TORSDOF 9
ENDMDL
MODEL 8
REMARK VINA RESULT:      -4.4      2.097      2.781
REMARK  9 active torsions:
REMARK  status: ('A' for Active; 'I' for Inactive)
REMARK    1  A    between atoms: O_1  and  C_2 
REMARK    2  A    between atoms: C_2  and  C_3 
REMARK    3  A    between atoms: C_3  and  O_4 
REMARK    4  A    between atoms: C_3  and  C_5 
REMARK    5  A    between atoms: C_5  and  O_6 
REMARK    6  A    between atoms: C_5  and  C_7 
REMARK    7  A    between atoms: C_7  and  C_8 
REMARK    8  A    between atoms: C_8  and  C_10 
REMARK    9  A    between atoms: C_10  and  O_11 
ROOT
HETATM    1  C   UNK N   1      34.640  14.716   9.101  0.00  0.00     0.156 C 
ENDROOT
BRANCH   1   2
HETATM    2  C   UNK N   1      34.163  15.680  10.192  0.00  0.00     0.170 C 
BRANCH   2   3
HETATM    3  C   UNK N   1      35.307  16.416  10.872  0.00  0.00     0.198 C 
BRANCH   3   4
HETATM    4  O   UNK N   1      35.596  17.595  10.184  0.00  0.00    -0.398 OA
HETATM    5  H   UNK N   1      35.445  17.740   9.237  0.00  0.00     0.209 HD
ENDBRANCH   3   4
ENDBRANCH   2   3
BRANCH   2   6
HETATM    6  O   UNK N   1      33.455  14.964  11.159  0.00  0.00    -0.391 OA
HETATM    7  H   UNK N   1      32.947  15.420  11.849  0.00  0.00     0.210 HD
ENDBRANCH   2   6
ENDBRANCH   1   2
BRANCH   1   8
HETATM    8  O   UNK N   1      35.999  14.906   8.836  0.00  0.00    -0.393 OA
HETATM    9  H   UNK N   1      36.663  14.713   9.515  0.00  0.00     0.210 HD
ENDBRANCH   1   8
BRANCH   1  10
HETATM   10  C   UNK N   1      33.843  15.003   7.836  0.00  0.00     0.124 C 
BRANCH  10  11
HETATM   11  C   UNK N   1      34.482  16.016   6.935  0.00  0.00     0.224 C 
HETATM   12  O   UNK N   1      35.435  15.703   6.239  0.00  0.00    -0.286 OA
BRANCH  11  13
HETATM   13  C   UNK N   1      33.995  17.410   6.941  0.00  0.00     0.213 C 
HETATM   14  O   UNK N   1      32.920  17.688   6.436  0.00  0.00    -0.644 OA
BRANCH  13  15
HETATM   15  O   UNK N   1      34.728  18.380   7.523  0.00  0.00    -0.771 OA
HETATM   16  H   UNK N   1      35.664  18.392   7.494  0.00  0.00     0.167 HD
ENDBRANCH  13  15
ENDBRANCH  11  13
ENDBRANCH  10  11
ENDBRANCH   1  10
TORSDOF 9
ENDMDL
MODEL 9
REMARK VINA RESULT:      -4.4     12.577     14.318
REMARK  9 active torsions:
REMARK  status: ('A' for Active; 'I' for Inactive)
REMARK    1  A    between atoms: O_1  and  C_2 
REMARK    2  A    between atoms: C_2  and  C_3 
REMARK    3  A    between atoms: C_3  and  O_4 
REMARK    4  A    between atoms: C_3  and  C_5 
REMARK    5  A    between atoms: C_5  and  O_6 
REMARK    6  A    between atoms: C_5  and  C_7 
REMARK    7  A    between atoms: C_7  and  C_8 
REMARK    8  A    between atoms: C_8  and  C_10 
REMARK    9  A    between atoms: C_10  and  O_11 
ROOT
HETATM    1  C   UNK N   1      21.739  14.046   9.619  0.00  0.00     0.156 C 
ENDROOT
BRANCH   1   2
HETATM    2  C   UNK N   1      20.397  14.487   9.029  0.00  0.00     0.170 C 
BRANCH   2   3
HETATM    3  C   UNK N   1      20.303  15.992   8.831  0.00  0.00     0.198 C 
BRANCH   3   4
HETATM    4  O   UNK N   1      21.247  16.414   7.895  0.00  0.00    -0.398 OA
HETATM    5  H   UNK N   1      22.156  16.080   7.830  0.00  0.00     0.209 HD
ENDBRANCH   3   4
ENDBRANCH   2   3
BRANCH   2   6
HETATM    6  O   UNK N   1      19.366  14.082   9.879  0.00  0.00    -0.391 OA
HETATM    7  H   UNK N   1      19.111  13.148   9.949  0.00  0.00     0.210 HD
ENDBRANCH   2   6
ENDBRANCH   1   2
BRANCH   1   8
HETATM    8  O   UNK N   1      22.659  13.774   8.603  0.00  0.00    -0.393 OA
HETATM    9  H   UNK N   1      22.557  12.987   8.046  0.00  0.00     0.210 HD
ENDBRANCH   1   8
BRANCH   1  10
HETATM   10  C   UNK N   1      21.507  12.779  10.430  0.00  0.00     0.124 C 
BRANCH  10  11
HETATM   11  C   UNK N   1      22.733  11.931  10.592  0.00  0.00     0.224 C 
HETATM   12  O   UNK N   1      23.052  11.141   9.718  0.00  0.00    -0.286 OA
BRANCH  11  13
HETATM   13  C   UNK N   1      23.515  12.008  11.842  0.00  0.00     0.213 C 
HETATM   14  O   UNK N   1      22.972  11.829  12.920  0.00  0.00    -0.644 OA
BRANCH  13  15
HETATM   15  O   UNK N   1      24.839  12.257  11.797  0.00  0.00    -0.771 OA
HETATM   16  H   UNK N   1      25.187  13.103  11.593  0.00  0.00     0.167 HD
ENDBRANCH  13  15
ENDBRANCH  11  13
ENDBRANCH  10  11
ENDBRANCH   1  10
TORSDOF 9
ENDMDL
