MODEL 1
REMARK VINA RESULT:      -3.9      0.000      0.000
REMARK  1 active torsions:
REMARK  status: ('A' for Active; 'I' for Inactive)
REMARK    1  A    between atoms: C_2  and  C_4 
REMARK       I    between atoms: C_4  and  N_5 
ROOT
HETATM    1  C   UNK N   1      34.525  18.154   8.462  0.00  0.00     0.284 C 
HETATM    2  N   UNK N   1      34.435  17.384   9.567  0.00  0.00    -0.364 N 
HETATM    3  O   UNK N   1      35.254  19.132   8.468  0.00  0.00    -0.265 OA
HETATM    4  H   UNK N   1      34.955  17.613  10.370  0.00  0.00     0.159 HD
HETATM    5  H   UNK N   1      33.849  16.594   9.569  0.00  0.00     0.159 HD
ENDROOT
BRANCH   1   6
HETATM    6  C   UNK N   1      33.747  17.815   7.254  0.00  0.00     0.212 C 
HETATM    7  C   UNK N   1      32.322  17.383   7.373  0.00  0.00     0.102 C 
HETATM    8  O   UNK N   1      34.262  17.885   6.149  0.00  0.00    -0.288 OA
ENDBRANCH   1   6
TORSDOF 1
ENDMDL
MODEL 2
REMARK VINA RESULT:      -3.8      1.432      1.971
REMARK  1 active torsions:
REMARK  status: ('A' for Active; 'I' for Inactive)
REMARK    1  A    between atoms: C_2  and  C_4 
REMARK       I    between atoms: C_4  and  N_5 
ROOT
HETATM    1  C   UNK N   1      34.688  17.226   9.500  0.00  0.00     0.284 C 
HETATM    2  N   UNK N   1      33.720  16.298   9.649  0.00  0.00    -0.364 N 
HETATM    3  O   UNK N   1      35.598  17.282  10.312  0.00  0.00    -0.265 OA
HETATM    4  H   UNK N   1      33.751  15.672  10.407  0.00  0.00     0.159 HD
HETATM    5  H   UNK N   1      32.984  16.247   8.998  0.00  0.00     0.159 HD
ENDROOT
BRANCH   1   6
HETATM    6  C   UNK N   1      34.648  18.168   8.364  0.00  0.00     0.212 C 
HETATM    7  C   UNK N   1      33.857  17.838   7.141  0.00  0.00     0.102 C 
HETATM    8  O   UNK N   1      35.260  19.222   8.416  0.00  0.00    -0.288 OA
ENDBRANCH   1   6
TORSDOF 1
ENDMDL
MODEL 3
REMARK VINA RESULT:      -3.7     14.137     14.644
REMARK  1 active torsions:
REMARK  status: ('A' for Active; 'I' for Inactive)
REMARK    1  A    between atoms: C_2  and  C_4 
REMARK       I    between atoms: C_4  and  N_5 
ROOT
HETATM    1  C   UNK N   1      20.997  20.207   1.168  0.00  0.00     0.284 C 
HETATM    2  N   UNK N   1      20.324  19.063   0.922  0.00  0.00    -0.364 N 
HETATM    3  O   UNK N   1      21.266  20.958   0.245  0.00  0.00    -0.265 OA
HETATM    4  H   UNK N   1      20.055  18.839   0.003  0.00  0.00     0.159 HD
HETATM    5  H   UNK N   1      20.104  18.453   1.662  0.00  0.00     0.159 HD
ENDROOT
BRANCH   1   6
HETATM    6  C   UNK N   1      21.404  20.548   2.546  0.00  0.00     0.212 C 
HETATM    7  C   UNK N   1      20.779  19.852   3.710  0.00  0.00     0.102 C 
HETATM    8  O   UNK N   1      22.254  21.402   2.743  0.00  0.00    -0.288 OA
ENDBRANCH   1   6
TORSDOF 1
ENDMDL
MODEL 4
REMARK VINA RESULT:      -3.6     14.628     14.955
REMARK  1 active torsions:
REMARK  status: ('A' for Active; 'I' for Inactive)
REMARK    1  A    between atoms: C_2  and  C_4 
REMARK       I    between atoms: C_4  and  N_5 
ROOT
HETATM    1  C   UNK N   1      21.048  20.541   1.648  0.00  0.00     0.284 C 
HETATM    2  N   UNK N   1      20.425  20.738   0.467  0.00  0.00    -0.364 N 
HETATM    3  O   UNK N   1      22.234  20.808   1.754  0.00  0.00    -0.265 OA
HETATM    4  H   UNK N   1      20.927  21.096  -0.300  0.00  0.00     0.159 HD
HETATM    5  H   UNK N   1      19.469  20.525   0.374  0.00  0.00     0.159 HD
ENDROOT
BRANCH   1   6
HETATM    6  C   UNK N   1      20.301  20.005   2.802  0.00  0.00     0.212 C 
HETATM    7  C   UNK N   1      19.473  18.770   2.656  0.00  0.00     0.102 C 
HETATM    8  O   UNK N   1      20.354  20.566   3.885  0.00  0.00    -0.288 OA
ENDBRANCH   1   6
TORSDOF 1
ENDMDL
MODEL 5
REMARK VINA RESULT:      -3.4     15.178     15.484
REMARK  1 active torsions:
REMARK  status: ('A' for Active; 'I' for Inactive)
REMARK    1  A    between atoms: C_2  and  C_4 
REMARK       I    between atoms: C_4  and  N_5 
ROOT
HETATM    1  C   UNK N   1      18.719  19.156  10.485  0.00  0.00     0.284 C 
HETATM    2  N   UNK N   1      17.464  19.297  10.962  0.00  0.00    -0.364 N 
HETATM    3  O   UNK N   1      19.614  19.858  10.928  0.00  0.00    -0.265 OA
HETATM    4  H   UNK N   1      17.277  19.962  11.663  0.00  0.00     0.159 HD
HETATM    5  H   UNK N   1      16.738  18.735  10.609  0.00  0.00     0.159 HD
ENDROOT
BRANCH   1   6
HETATM    6  C   UNK N   1      19.007  18.160   9.433  0.00  0.00     0.212 C 
HETATM    7  C   UNK N   1      18.057  17.035   9.182  0.00  0.00     0.102 C 
HETATM    8  O   UNK N   1      20.022  18.249   8.762  0.00  0.00    -0.288 OA
ENDBRANCH   1   6
TORSDOF 1
ENDMDL
MODEL 6
REMARK VINA RESULT:      -3.3     11.615     12.063
REMARK  1 active torsions:
REMARK  status: ('A' for Active; 'I' for Inactive)
REMARK    1  A    between atoms: C_2  and  C_4 
REMARK       I    between atoms: C_4  and  N_5 
ROOT
HETATM    1  C   UNK N   1      31.658  21.727  -2.858  0.00  0.00     0.284 C 
HETATM    2  N   UNK N   1      31.340  20.968  -3.928  0.00  0.00    -0.364 N 
HETATM    3  O   UNK N   1      32.623  21.427  -2.173  0.00  0.00    -0.265 OA
HETATM    4  H   UNK N   1      31.885  20.179  -4.151  0.00  0.00     0.159 HD
HETATM    5  H   UNK N   1      30.564  21.204  -4.484  0.00  0.00     0.159 HD
ENDROOT
BRANCH   1   6
HETATM    6  C   UNK N   1      30.845  22.911  -2.518  0.00  0.00     0.212 C 
HETATM    7  C   UNK N   1      30.613  23.981  -3.533  0.00  0.00     0.102 C 
HETATM    8  O   UNK N   1      30.357  23.024  -1.405  0.00  0.00    -0.288 OA
ENDBRANCH   1   6
TORSDOF 1
ENDMDL
MODEL 7
REMARK VINA RESULT:      -3.3     15.102     15.275
REMARK  1 active torsions:
REMARK  status: ('A' for Active; 'I' for Inactive)
REMARK    1  A    between atoms: C_2  and  C_4 
REMARK       I    between atoms: C_4  and  N_5 
ROOT
HETATM    1  C   UNK N   1      19.638  18.702   2.887  0.00  0.00     0.284 C 
HETATM    2  N   UNK N   1      18.509  18.514   2.171  0.00  0.00    -0.364 N 
HETATM    3  O   UNK N   1      20.077  17.790   3.569  0.00  0.00    -0.265 OA
HETATM    4  H   UNK N   1      18.046  17.647   2.201  0.00  0.00     0.159 HD
HETATM    5  H   UNK N   1      18.150  19.245   1.619  0.00  0.00     0.159 HD
ENDROOT
BRANCH   1   6
HETATM    6  C   UNK N   1      20.337  20.001   2.846  0.00  0.00     0.212 C 
HETATM    7  C   UNK N   1      21.016  20.452   1.594  0.00  0.00     0.102 C 
HETATM    8  O   UNK N   1      20.366  20.717   3.835  0.00  0.00    -0.288 OA
ENDBRANCH   1   6
TORSDOF 1
ENDMDL
MODEL 8
REMARK VINA RESULT:      -3.2     11.789     12.514
REMARK  1 active torsions:
REMARK  status: ('A' for Active; 'I' for Inactive)
REMARK    1  A    between atoms: C_2  and  C_4 
REMARK       I    between atoms: C_4  and  N_5 
ROOT
HETATM    1  C   UNK N   1      24.261  12.230  10.468  0.00  0.00     0.284 C 
HETATM    2  N   UNK N   1      25.298  12.957  10.934  0.00  0.00    -0.364 N 
HETATM    3  O   UNK N   1      24.315  11.757   9.344  0.00  0.00    -0.265 OA
HETATM    4  H   UNK N   1      26.090  13.103  10.369  0.00  0.00     0.159 HD
HETATM    5  H   UNK N   1      25.262  13.341  11.839  0.00  0.00     0.159 HD
ENDROOT
BRANCH   1   6
HETATM    6  C   UNK N   1      23.070  12.007  11.311  0.00  0.00     0.212 C 
HETATM    7  C   UNK N   1      23.210  11.886  12.793  0.00  0.00     0.102 C 
HETATM    8  O   UNK N   1      21.964  11.921  10.804  0.00  0.00    -0.288 OA
ENDBRANCH   1   6
TORSDOF 1
ENDMDL
MODEL 9
REMARK VINA RESULT:      -3.2     11.128     11.377
REMARK  1 active torsions:
REMARK  status: ('A' for Active; 'I' for Inactive)
REMARK    1  A    between atoms: C_2  and  C_4 
REMARK       I    between atoms: C_4  and  N_5 
ROOT
HETATM    1  C   UNK N   1      44.362  22.041   4.366  0.00  0.00     0.284 C 
HETATM    2  N   UNK N   1      45.681  22.192   4.126  0.00  0.00    -0.364 N 
HETATM    3  O   UNK N   1      43.843  22.655   5.284  0.00  0.00    -0.265 OA
HETATM    4  H   UNK N   1      46.218  22.794   4.689  0.00  0.00     0.159 HD
HETATM    5  H   UNK N   1      46.106  21.700   3.387  0.00  0.00     0.159 HD
ENDROOT
BRANCH   1   6
HETATM    6  C   UNK N   1      43.551  21.139   3.523  0.00  0.00     0.212 C 
HETATM    7  C   UNK N   1      44.104  19.825   3.079  0.00  0.00     0.102 C 
HETATM    8  O   UNK N   1      42.423  21.461   3.185  0.00  0.00    -0.288 OA
ENDBRANCH   1   6
TORSDOF 1
ENDMDL
