MODEL 1
REMARK VINA RESULT:      -5.1      0.000      0.000
REMARK  26 active torsions:
REMARK  status: ('A' for Active; 'I' for Inactive)
REMARK    1  A    between atoms: C_5  and  C_3 
REMARK    2  A    between atoms: C_6  and  C_4 
REMARK    3  A    between atoms: C_7  and  C_5 
REMARK    4  A    between atoms: C_8  and  C_6 
REMARK    5  A    between atoms: C_9  and  C_7 
REMARK    6  A    between atoms: C_11  and  C_8 
REMARK    7  A    between atoms: C_10  and  C_9 
REMARK    8  A    between atoms: C_12  and  C_10 
REMARK    9  A    between atoms: C_13  and  C_11 
REMARK   10  A    between atoms: C_15  and  C_12 
REMARK   11  A    between atoms: C_17  and  C_13 
REMARK   12  A    between atoms: C_16  and  C_14 
REMARK   13  A    between atoms: N_21  and  C_14 
REMARK   14  A    between atoms: O_26  and  C_15 
REMARK   15  A    between atoms: O_27  and  C_16 
REMARK   16  A    between atoms: P_30  and  C_17 
REMARK   17  A    between atoms: C_20  and  C_18 
REMARK   18  A    between atoms: O_26  and  C_18 
REMARK   19  A    between atoms: C_20  and  C_19 
REMARK   20  A    between atoms: O_28  and  C_19 
REMARK   21  A    between atoms: C_20  and  O_29 
REMARK   22  A    between atoms: P_30  and  O_22 
REMARK   23  A    between atoms: P_31  and  O_24 
REMARK   24  A    between atoms: P_31  and  O_27 
REMARK   25  A    between atoms: P_31  and  O_28 
REMARK   26  A    between atoms: P_30  and  O_29 
ROOT
HETATM    1  C   UNK N   1      31.565  16.392   7.756  0.00  0.00     0.179 C 
ENDROOT
BRANCH   1   2
HETATM    2  C   UNK N   1      30.544  16.855   8.793  0.00  0.00     0.202 C 
BRANCH   2   3
HETATM    3  O   UNK N   1      30.670  18.225   9.040  0.00  0.00    -0.389 OA
BRANCH   3   4
HETATM    4  C   UNK N   1      29.414  18.633   9.510  0.00  0.00     0.167 C 
BRANCH   4   5
HETATM    5  C   UNK N   1      28.274  18.146   8.615  0.00  0.00     0.026 C 
BRANCH   5   6
HETATM    6  C   UNK N   1      28.116  19.030   7.392  0.00  0.00     0.002 C 
BRANCH   6   7
HETATM    7  C   UNK N   1      28.361  18.224   6.129  0.00  0.00     0.000 C 
BRANCH   7   8
HETATM    8  C   UNK N   1      28.376  19.154   4.931  0.00  0.00     0.000 C 
BRANCH   8   9
HETATM    9  C   UNK N   1      27.254  20.160   5.029  0.00  0.00    -0.000 C 
BRANCH   9  10
HETATM   10  C   UNK N   1      26.616  20.302   3.664  0.00  0.00    -0.005 C 
HETATM   11  C   UNK N   1      25.537  19.256   3.495  0.00  0.00     0.005 C 
ENDBRANCH   9  10
ENDBRANCH   8   9
ENDBRANCH   7   8
ENDBRANCH   6   7
ENDBRANCH   5   6
ENDBRANCH   4   5
ENDBRANCH   3   4
ENDBRANCH   2   3
ENDBRANCH   1   2
BRANCH   1  12
HETATM   12  C   UNK N   1      32.521  15.400   8.431  0.00  0.00     0.215 C 
BRANCH  12  13
HETATM   13  O   UNK N   1      32.918  15.691   9.759  0.00  0.00    -0.294 OA
BRANCH  13  14
HETATM   14  P   UNK N   1      34.668  15.743   9.937  0.00  0.00     0.393 P 
HETATM   15  O   UNK N   1      35.091  16.730  11.059  0.00  0.00    -0.631 OA
BRANCH  14  16
HETATM   16  O   UNK N   1      34.051  17.308   9.510  0.00  0.00    -0.307 OA
HETATM   17  H   UNK N   1      34.618  17.966   9.079  0.00  0.00     0.222 HD
ENDBRANCH  14  16
BRANCH  14  18
HETATM   18  O   UNK N   1      34.173  14.962  11.412  0.00  0.00    -0.295 OA
BRANCH  18  19
HETATM   19  C   UNK N   1      35.107  13.931  11.571  0.00  0.00     0.199 C 
BRANCH  19  20
HETATM   20  C   UNK N   1      35.562  13.853  13.011  0.00  0.00     0.138 C 
BRANCH  20  21
HETATM   21  N   UNK N   1      36.647  14.796  13.220  0.00  0.00    -0.428 N 
HETATM   22  H   UNK N   1      36.668  15.716  12.783  0.00  0.00     0.149 HD
HETATM   23  H   UNK N   1      37.419  14.526  13.830  0.00  0.00     0.149 HD
ENDBRANCH  20  21
ENDBRANCH  19  20
ENDBRANCH  18  19
ENDBRANCH  14  18
ENDBRANCH  13  14
ENDBRANCH  12  13
ENDBRANCH   1  12
BRANCH   1  24
HETATM   24  O   UNK N   1      32.223  17.462   7.085  0.00  0.00    -0.309 OA
BRANCH  24  25
HETATM   25  P   UNK N   1      33.368  16.859   5.895  0.00  0.00     0.238 P 
HETATM   26  O   UNK N   1      34.250  17.988   6.494  0.00  0.00    -0.653 OA
BRANCH  25  27
HETATM   27  C   UNK N   1      31.775  17.461   5.143  0.00  0.00     0.125 C 
BRANCH  27  28
HETATM   28  C   UNK N   1      31.609  16.856   3.758  0.00  0.00     0.012 C 
BRANCH  28  29
HETATM   29  C   UNK N   1      30.178  16.415   3.534  0.00  0.00     0.001 C 
BRANCH  29  30
HETATM   30  C   UNK N   1      30.164  15.037   2.906  0.00  0.00     0.000 C 
BRANCH  30  31
HETATM   31  C   UNK N   1      28.742  14.635   2.589  0.00  0.00    -0.000 C 
BRANCH  31  32
HETATM   32  C   UNK N   1      27.839  15.831   2.793  0.00  0.00    -0.005 C 
HETATM   33  C   UNK N   1      26.514  15.585   2.107  0.00  0.00     0.005 C 
ENDBRANCH  31  32
ENDBRANCH  30  31
ENDBRANCH  29  30
ENDBRANCH  28  29
ENDBRANCH  27  28
ENDBRANCH  25  27
BRANCH  25  34
HETATM   34  O   UNK N   1      33.521  17.881   4.498  0.00  0.00    -0.329 OA
HETATM   35  H   UNK N   1      33.595  18.847   4.521  0.00  0.00     0.220 HD
ENDBRANCH  25  34
ENDBRANCH  24  25
ENDBRANCH   1  24
TORSDOF 26
ENDMDL
MODEL 2
REMARK VINA RESULT:      -5.1      2.074      4.454
REMARK  26 active torsions:
REMARK  status: ('A' for Active; 'I' for Inactive)
REMARK    1  A    between atoms: C_5  and  C_3 
REMARK    2  A    between atoms: C_6  and  C_4 
REMARK    3  A    between atoms: C_7  and  C_5 
REMARK    4  A    between atoms: C_8  and  C_6 
REMARK    5  A    between atoms: C_9  and  C_7 
REMARK    6  A    between atoms: C_11  and  C_8 
REMARK    7  A    between atoms: C_10  and  C_9 
REMARK    8  A    between atoms: C_12  and  C_10 
REMARK    9  A    between atoms: C_13  and  C_11 
REMARK   10  A    between atoms: C_15  and  C_12 
REMARK   11  A    between atoms: C_17  and  C_13 
REMARK   12  A    between atoms: C_16  and  C_14 
REMARK   13  A    between atoms: N_21  and  C_14 
REMARK   14  A    between atoms: O_26  and  C_15 
REMARK   15  A    between atoms: O_27  and  C_16 
REMARK   16  A    between atoms: P_30  and  C_17 
REMARK   17  A    between atoms: C_20  and  C_18 
REMARK   18  A    between atoms: O_26  and  C_18 
REMARK   19  A    between atoms: C_20  and  C_19 
REMARK   20  A    between atoms: O_28  and  C_19 
REMARK   21  A    between atoms: C_20  and  O_29 
REMARK   22  A    between atoms: P_30  and  O_22 
REMARK   23  A    between atoms: P_31  and  O_24 
REMARK   24  A    between atoms: P_31  and  O_27 
REMARK   25  A    between atoms: P_31  and  O_28 
REMARK   26  A    between atoms: P_30  and  O_29 
ROOT
HETATM    1  C   UNK N   1      30.956  17.239   7.308  0.00  0.00     0.179 C 
ENDROOT
BRANCH   1   2
HETATM    2  C   UNK N   1      31.157  16.714   5.888  0.00  0.00     0.202 C 
BRANCH   2   3
HETATM    3  O   UNK N   1      30.513  17.534   4.956  0.00  0.00    -0.389 OA
BRANCH   3   4
HETATM    4  C   UNK N   1      30.220  16.701   3.869  0.00  0.00     0.167 C 
BRANCH   4   5
HETATM    5  C   UNK N   1      28.738  16.739   3.493  0.00  0.00     0.026 C 
BRANCH   5   6
HETATM    6  C   UNK N   1      28.258  15.385   3.002  0.00  0.00     0.002 C 
BRANCH   6   7
HETATM    7  C   UNK N   1      26.880  15.515   2.377  0.00  0.00     0.000 C 
BRANCH   7   8
HETATM    8  C   UNK N   1      26.189  16.746   2.932  0.00  0.00     0.000 C 
BRANCH   8   9
HETATM    9  C   UNK N   1      24.829  16.386   3.480  0.00  0.00    -0.000 C 
BRANCH   9  10
HETATM   10  C   UNK N   1      24.804  16.715   4.957  0.00  0.00    -0.005 C 
HETATM   11  C   UNK N   1      23.432  17.217   5.345  0.00  0.00     0.005 C 
ENDBRANCH   9  10
ENDBRANCH   8   9
ENDBRANCH   7   8
ENDBRANCH   6   7
ENDBRANCH   5   6
ENDBRANCH   4   5
ENDBRANCH   3   4
ENDBRANCH   2   3
ENDBRANCH   1   2
BRANCH   1  12
HETATM   12  C   UNK N   1      32.065  16.658   8.195  0.00  0.00     0.215 C 
BRANCH  12  13
HETATM   13  O   UNK N   1      32.890  17.582   8.882  0.00  0.00    -0.294 OA
BRANCH  13  14
HETATM   14  P   UNK N   1      34.575  17.467   8.389  0.00  0.00     0.393 P 
HETATM   15  O   UNK N   1      35.422  18.613   9.007  0.00  0.00    -0.631 OA
BRANCH  14  16
HETATM   16  O   UNK N   1      33.885  18.966   7.857  0.00  0.00    -0.307 OA
HETATM   17  H   UNK N   1      33.948  19.243   6.929  0.00  0.00     0.222 HD
ENDBRANCH  14  16
BRANCH  14  18
HETATM   18  O   UNK N   1      34.663  17.078  10.085  0.00  0.00    -0.295 OA
BRANCH  18  19
HETATM   19  C   UNK N   1      35.102  15.748  10.097  0.00  0.00     0.199 C 
BRANCH  19  20
HETATM   20  C   UNK N   1      34.383  14.969  11.175  0.00  0.00     0.138 C 
BRANCH  20  21
HETATM   21  N   UNK N   1      34.246  13.586  10.755  0.00  0.00    -0.428 N 
HETATM   22  H   UNK N   1      33.429  13.243  10.251  0.00  0.00     0.149 HD
HETATM   23  H   UNK N   1      34.999  12.932  10.971  0.00  0.00     0.149 HD
ENDBRANCH  20  21
ENDBRANCH  19  20
ENDBRANCH  18  19
ENDBRANCH  14  18
ENDBRANCH  13  14
ENDBRANCH  12  13
ENDBRANCH   1  12
BRANCH   1  24
HETATM   24  O   UNK N   1      29.642  17.027   7.814  0.00  0.00    -0.309 OA
BRANCH  24  25
HETATM   25  P   UNK N   1      29.189  18.288   8.953  0.00  0.00     0.238 P 
HETATM   26  O   UNK N   1      28.936  17.061   9.872  0.00  0.00    -0.653 OA
BRANCH  25  27
HETATM   27  C   UNK N   1      28.161  18.294   7.401  0.00  0.00     0.125 C 
BRANCH  27  28
HETATM   28  C   UNK N   1      27.908  19.730   6.968  0.00  0.00     0.012 C 
BRANCH  28  29
HETATM   29  C   UNK N   1      26.882  19.781   5.855  0.00  0.00     0.001 C 
BRANCH  29  30
HETATM   30  C   UNK N   1      27.588  19.921   4.523  0.00  0.00     0.000 C 
BRANCH  30  31
HETATM   31  C   UNK N   1      26.617  20.431   3.483  0.00  0.00    -0.000 C 
BRANCH  31  32
HETATM   32  C   UNK N   1      25.206  20.236   3.993  0.00  0.00    -0.005 C 
HETATM   33  C   UNK N   1      24.226  20.461   2.863  0.00  0.00     0.005 C 
ENDBRANCH  31  32
ENDBRANCH  30  31
ENDBRANCH  29  30
ENDBRANCH  28  29
ENDBRANCH  27  28
ENDBRANCH  25  27
BRANCH  25  34
HETATM   34  O   UNK N   1      27.471  18.439   9.174  0.00  0.00    -0.329 OA
HETATM   35  H   UNK N   1      27.042  18.806   9.962  0.00  0.00     0.220 HD
ENDBRANCH  25  34
ENDBRANCH  24  25
ENDBRANCH   1  24
TORSDOF 26
ENDMDL
MODEL 3
REMARK VINA RESULT:      -5.0      9.157     12.279
REMARK  26 active torsions:
REMARK  status: ('A' for Active; 'I' for Inactive)
REMARK    1  A    between atoms: C_5  and  C_3 
REMARK    2  A    between atoms: C_6  and  C_4 
REMARK    3  A    between atoms: C_7  and  C_5 
REMARK    4  A    between atoms: C_8  and  C_6 
REMARK    5  A    between atoms: C_9  and  C_7 
REMARK    6  A    between atoms: C_11  and  C_8 
REMARK    7  A    between atoms: C_10  and  C_9 
REMARK    8  A    between atoms: C_12  and  C_10 
REMARK    9  A    between atoms: C_13  and  C_11 
REMARK   10  A    between atoms: C_15  and  C_12 
REMARK   11  A    between atoms: C_17  and  C_13 
REMARK   12  A    between atoms: C_16  and  C_14 
REMARK   13  A    between atoms: N_21  and  C_14 
REMARK   14  A    between atoms: O_26  and  C_15 
REMARK   15  A    between atoms: O_27  and  C_16 
REMARK   16  A    between atoms: P_30  and  C_17 
REMARK   17  A    between atoms: C_20  and  C_18 
REMARK   18  A    between atoms: O_26  and  C_18 
REMARK   19  A    between atoms: C_20  and  C_19 
REMARK   20  A    between atoms: O_28  and  C_19 
REMARK   21  A    between atoms: C_20  and  O_29 
REMARK   22  A    between atoms: P_30  and  O_22 
REMARK   23  A    between atoms: P_31  and  O_24 
REMARK   24  A    between atoms: P_31  and  O_27 
REMARK   25  A    between atoms: P_31  and  O_28 
REMARK   26  A    between atoms: P_30  and  O_29 
ROOT
HETATM    1  C   UNK N   1      21.470  16.005   4.912  0.00  0.00     0.179 C 
ENDROOT
BRANCH   1   2
HETATM    2  C   UNK N   1      22.439  16.678   3.941  0.00  0.00     0.202 C 
BRANCH   2   3
HETATM    3  O   UNK N   1      21.943  17.914   3.516  0.00  0.00    -0.389 OA
BRANCH   3   4
HETATM    4  C   UNK N   1      22.716  18.873   4.183  0.00  0.00     0.167 C 
BRANCH   4   5
HETATM    5  C   UNK N   1      24.148  18.935   3.650  0.00  0.00     0.026 C 
BRANCH   5   6
HETATM    6  C   UNK N   1      24.465  20.304   3.076  0.00  0.00     0.002 C 
BRANCH   6   7
HETATM    7  C   UNK N   1      25.968  20.505   3.004  0.00  0.00     0.000 C 
BRANCH   7   8
HETATM    8  C   UNK N   1      26.661  19.423   3.810  0.00  0.00     0.000 C 
BRANCH   8   9
HETATM    9  C   UNK N   1      27.796  20.007   4.615  0.00  0.00    -0.000 C 
BRANCH   9  10
HETATM   10  C   UNK N   1      27.328  20.190   6.042  0.00  0.00    -0.005 C 
HETATM   11  C   UNK N   1      27.059  21.655   6.307  0.00  0.00     0.005 C 
ENDBRANCH   9  10
ENDBRANCH   8   9
ENDBRANCH   7   8
ENDBRANCH   6   7
ENDBRANCH   5   6
ENDBRANCH   4   5
ENDBRANCH   3   4
ENDBRANCH   2   3
ENDBRANCH   1   2
BRANCH   1  12
HETATM   12  C   UNK N   1      20.041  16.381   4.502  0.00  0.00     0.215 C 
BRANCH  12  13
HETATM   13  O   UNK N   1      19.310  15.421   3.761  0.00  0.00    -0.294 OA
BRANCH  13  14
HETATM   14  P   UNK N   1      19.374  13.822   4.493  0.00  0.00     0.393 P 
HETATM   15  O   UNK N   1      18.047  13.045   4.267  0.00  0.00    -0.631 OA
BRANCH  14  16
HETATM   16  O   UNK N   1      18.096  14.763   5.194  0.00  0.00    -0.307 OA
HETATM   17  H   UNK N   1      18.018  14.860   6.156  0.00  0.00     0.222 HD
ENDBRANCH  14  16
BRANCH  14  18
HETATM   18  O   UNK N   1      19.375  13.446   2.793  0.00  0.00    -0.295 OA
BRANCH  18  19
HETATM   19  C   UNK N   1      20.728  13.242   2.499  0.00  0.00     0.199 C 
BRANCH  19  20
HETATM   20  C   UNK N   1      21.058  13.806   1.135  0.00  0.00     0.138 C 
BRANCH  20  21
HETATM   21  N   UNK N   1      20.665  15.203   1.088  0.00  0.00    -0.428 N 
HETATM   22  H   UNK N   1      20.633  15.736   0.219  0.00  0.00     0.149 HD
HETATM   23  H   UNK N   1      20.409  15.669   1.958  0.00  0.00     0.149 HD
ENDBRANCH  20  21
ENDBRANCH  19  20
ENDBRANCH  18  19
ENDBRANCH  14  18
ENDBRANCH  13  14
ENDBRANCH  12  13
ENDBRANCH   1  12
BRANCH   1  24
HETATM   24  O   UNK N   1      21.765  16.263   6.282  0.00  0.00    -0.309 OA
BRANCH  24  25
HETATM   25  P   UNK N   1      20.335  16.806   7.148  0.00  0.00     0.238 P 
HETATM   26  O   UNK N   1      21.134  18.138   7.188  0.00  0.00    -0.653 OA
BRANCH  25  27
HETATM   27  C   UNK N   1      21.199  15.380   7.976  0.00  0.00     0.125 C 
BRANCH  27  28
HETATM   28  C   UNK N   1      20.465  15.020   9.258  0.00  0.00     0.012 C 
BRANCH  28  29
HETATM   29  C   UNK N   1      20.704  13.569   9.622  0.00  0.00     0.001 C 
BRANCH  29  30
HETATM   30  C   UNK N   1      22.151  13.381  10.028  0.00  0.00     0.000 C 
BRANCH  30  31
HETATM   31  C   UNK N   1      22.342  11.998  10.607  0.00  0.00    -0.000 C 
BRANCH  31  32
HETATM   32  C   UNK N   1      23.561  12.006  11.502  0.00  0.00    -0.005 C 
HETATM   33  C   UNK N   1      23.129  11.859  12.944  0.00  0.00     0.005 C 
ENDBRANCH  31  32
ENDBRANCH  30  31
ENDBRANCH  29  30
ENDBRANCH  28  29
ENDBRANCH  27  28
ENDBRANCH  25  27
BRANCH  25  34
HETATM   34  O   UNK N   1      20.575  16.950   8.863  0.00  0.00    -0.329 OA
HETATM   35  H   UNK N   1      19.875  17.130   9.510  0.00  0.00     0.220 HD
ENDBRANCH  25  34
ENDBRANCH  24  25
ENDBRANCH   1  24
TORSDOF 26
ENDMDL
MODEL 4
REMARK VINA RESULT:      -4.8      9.100     12.147
REMARK  26 active torsions:
REMARK  status: ('A' for Active; 'I' for Inactive)
REMARK    1  A    between atoms: C_5  and  C_3 
REMARK    2  A    between atoms: C_6  and  C_4 
REMARK    3  A    between atoms: C_7  and  C_5 
REMARK    4  A    between atoms: C_8  and  C_6 
REMARK    5  A    between atoms: C_9  and  C_7 
REMARK    6  A    between atoms: C_11  and  C_8 
REMARK    7  A    between atoms: C_10  and  C_9 
REMARK    8  A    between atoms: C_12  and  C_10 
REMARK    9  A    between atoms: C_13  and  C_11 
REMARK   10  A    between atoms: C_15  and  C_12 
REMARK   11  A    between atoms: C_17  and  C_13 
REMARK   12  A    between atoms: C_16  and  C_14 
REMARK   13  A    between atoms: N_21  and  C_14 
REMARK   14  A    between atoms: O_26  and  C_15 
REMARK   15  A    between atoms: O_27  and  C_16 
REMARK   16  A    between atoms: P_30  and  C_17 
REMARK   17  A    between atoms: C_20  and  C_18 
REMARK   18  A    between atoms: O_26  and  C_18 
REMARK   19  A    between atoms: C_20  and  C_19 
REMARK   20  A    between atoms: O_28  and  C_19 
REMARK   21  A    between atoms: C_20  and  O_29 
REMARK   22  A    between atoms: P_30  and  O_22 
REMARK   23  A    between atoms: P_31  and  O_24 
REMARK   24  A    between atoms: P_31  and  O_27 
REMARK   25  A    between atoms: P_31  and  O_28 
REMARK   26  A    between atoms: P_30  and  O_29 
ROOT
HETATM    1  C   UNK N   1      21.398  16.428   4.329  0.00  0.00     0.179 C 
ENDROOT
BRANCH   1   2
HETATM    2  C   UNK N   1      22.221  16.051   5.559  0.00  0.00     0.202 C 
BRANCH   2   3
HETATM    3  O   UNK N   1      21.603  15.024   6.278  0.00  0.00    -0.389 OA
BRANCH   3   4
HETATM    4  C   UNK N   1      20.708  15.665   7.145  0.00  0.00     0.167 C 
BRANCH   4   5
HETATM    5  C   UNK N   1      21.014  15.373   8.614  0.00  0.00     0.026 C 
BRANCH   5   6
HETATM    6  C   UNK N   1      21.122  13.881   8.870  0.00  0.00     0.002 C 
BRANCH   6   7
HETATM    7  C   UNK N   1      20.490  13.533  10.205  0.00  0.00     0.000 C 
BRANCH   7   8
HETATM    8  C   UNK N   1      21.215  12.348  10.814  0.00  0.00     0.000 C 
BRANCH   8   9
HETATM    9  C   UNK N   1      22.533  12.119  10.114  0.00  0.00    -0.000 C 
BRANCH   9  10
HETATM   10  C   UNK N   1      23.625  12.045  11.159  0.00  0.00    -0.005 C 
HETATM   11  C   UNK N   1      23.009  11.887  12.531  0.00  0.00     0.005 C 
ENDBRANCH   9  10
ENDBRANCH   8   9
ENDBRANCH   7   8
ENDBRANCH   6   7
ENDBRANCH   5   6
ENDBRANCH   4   5
ENDBRANCH   3   4
ENDBRANCH   2   3
ENDBRANCH   1   2
BRANCH   1  12
HETATM   12  C   UNK N   1      21.175  15.162   3.492  0.00  0.00     0.215 C 
BRANCH  12  13
HETATM   13  O   UNK N   1      19.880  14.965   2.954  0.00  0.00    -0.294 OA
BRANCH  13  14
HETATM   14  P   UNK N   1      19.898  14.845   1.199  0.00  0.00     0.393 P 
HETATM   15  O   UNK N   1      20.975  15.778   0.580  0.00  0.00    -0.631 OA
BRANCH  14  16
HETATM   16  O   UNK N   1      19.526  16.465   1.695  0.00  0.00    -0.307 OA
HETATM   17  H   UNK N   1      19.203  17.120   1.058  0.00  0.00     0.222 HD
ENDBRANCH  14  16
BRANCH  14  18
HETATM   18  O   UNK N   1      21.414  14.105   1.631  0.00  0.00    -0.295 OA
BRANCH  18  19
HETATM   19  C   UNK N   1      21.694  13.265   0.546  0.00  0.00     0.199 C 
BRANCH  19  20
HETATM   20  C   UNK N   1      23.188  13.134   0.357  0.00  0.00     0.138 C 
BRANCH  20  21
HETATM   21  N   UNK N   1      23.829  14.379   0.742  0.00  0.00    -0.428 N 
HETATM   22  H   UNK N   1      24.726  14.409   1.227  0.00  0.00     0.149 HD
HETATM   23  H   UNK N   1      23.365  15.259   0.517  0.00  0.00     0.149 HD
ENDBRANCH  20  21
ENDBRANCH  19  20
ENDBRANCH  18  19
ENDBRANCH  14  18
ENDBRANCH  13  14
ENDBRANCH  12  13
ENDBRANCH   1  12
BRANCH   1  24
HETATM   24  O   UNK N   1      21.941  17.519   3.592  0.00  0.00    -0.309 OA
BRANCH  24  25
HETATM   25  P   UNK N   1      21.259  19.049   4.123  0.00  0.00     0.238 P 
HETATM   26  O   UNK N   1      20.379  18.845   2.860  0.00  0.00    -0.653 OA
BRANCH  25  27
HETATM   27  C   UNK N   1      23.085  19.142   3.767  0.00  0.00     0.125 C 
BRANCH  27  28
HETATM   28  C   UNK N   1      23.372  20.373   2.921  0.00  0.00     0.012 C 
BRANCH  28  29
HETATM   29  C   UNK N   1      24.864  20.560   2.741  0.00  0.00     0.001 C 
BRANCH  29  30
HETATM   30  C   UNK N   1      25.578  20.210   4.030  0.00  0.00     0.000 C 
BRANCH  30  31
HETATM   31  C   UNK N   1      27.056  20.036   3.763  0.00  0.00    -0.000 C 
BRANCH  31  32
HETATM   32  C   UNK N   1      27.815  20.256   5.052  0.00  0.00    -0.005 C 
HETATM   33  C   UNK N   1      27.111  21.308   5.880  0.00  0.00     0.005 C 
ENDBRANCH  31  32
ENDBRANCH  30  31
ENDBRANCH  29  30
ENDBRANCH  28  29
ENDBRANCH  27  28
ENDBRANCH  25  27
BRANCH  25  34
HETATM   34  O   UNK N   1      21.786  20.410   3.179  0.00  0.00    -0.329 OA
HETATM   35  H   UNK N   1      22.679  20.525   2.819  0.00  0.00     0.220 HD
ENDBRANCH  25  34
ENDBRANCH  24  25
ENDBRANCH   1  24
TORSDOF 26
ENDMDL
MODEL 5
REMARK VINA RESULT:      -4.8      4.802     10.693
REMARK  26 active torsions:
REMARK  status: ('A' for Active; 'I' for Inactive)
REMARK    1  A    between atoms: C_5  and  C_3 
REMARK    2  A    between atoms: C_6  and  C_4 
REMARK    3  A    between atoms: C_7  and  C_5 
REMARK    4  A    between atoms: C_8  and  C_6 
REMARK    5  A    between atoms: C_9  and  C_7 
REMARK    6  A    between atoms: C_11  and  C_8 
REMARK    7  A    between atoms: C_10  and  C_9 
REMARK    8  A    between atoms: C_12  and  C_10 
REMARK    9  A    between atoms: C_13  and  C_11 
REMARK   10  A    between atoms: C_15  and  C_12 
REMARK   11  A    between atoms: C_17  and  C_13 
REMARK   12  A    between atoms: C_16  and  C_14 
REMARK   13  A    between atoms: N_21  and  C_14 
REMARK   14  A    between atoms: O_26  and  C_15 
REMARK   15  A    between atoms: O_27  and  C_16 
REMARK   16  A    between atoms: P_30  and  C_17 
REMARK   17  A    between atoms: C_20  and  C_18 
REMARK   18  A    between atoms: O_26  and  C_18 
REMARK   19  A    between atoms: C_20  and  C_19 
REMARK   20  A    between atoms: O_28  and  C_19 
REMARK   21  A    between atoms: C_20  and  O_29 
REMARK   22  A    between atoms: P_30  and  O_22 
REMARK   23  A    between atoms: P_31  and  O_24 
REMARK   24  A    between atoms: P_31  and  O_27 
REMARK   25  A    between atoms: P_31  and  O_28 
REMARK   26  A    between atoms: P_30  and  O_29 
ROOT
HETATM    1  C   UNK N   1      36.024  14.617  10.262  0.00  0.00     0.179 C 
ENDROOT
BRANCH   1   2
HETATM    2  C   UNK N   1      35.594  14.341  11.701  0.00  0.00     0.202 C 
BRANCH   2   3
HETATM    3  O   UNK N   1      36.315  15.133  12.599  0.00  0.00    -0.389 OA
BRANCH   3   4
HETATM    4  C   UNK N   1      36.122  14.541  13.854  0.00  0.00     0.167 C 
BRANCH   4   5
HETATM    5  C   UNK N   1      36.887  13.225  13.997  0.00  0.00     0.026 C 
BRANCH   5   6
HETATM    6  C   UNK N   1      36.634  12.583  15.349  0.00  0.00     0.002 C 
BRANCH   6   7
HETATM    7  C   UNK N   1      35.603  13.386  16.123  0.00  0.00     0.000 C 
BRANCH   7   8
HETATM    8  C   UNK N   1      35.169  12.603  17.347  0.00  0.00     0.000 C 
BRANCH   8   9
HETATM    9  C   UNK N   1      35.756  11.213  17.321  0.00  0.00    -0.000 C 
BRANCH   9  10
HETATM   10  C   UNK N   1      35.447  10.537  18.640  0.00  0.00    -0.005 C 
HETATM   11  C   UNK N   1      35.457  11.561  19.753  0.00  0.00     0.005 C 
ENDBRANCH   9  10
ENDBRANCH   8   9
ENDBRANCH   7   8
ENDBRANCH   6   7
ENDBRANCH   5   6
ENDBRANCH   4   5
ENDBRANCH   3   4
ENDBRANCH   2   3
ENDBRANCH   1   2
BRANCH   1  12
HETATM   12  C   UNK N   1      34.890  15.374   9.558  0.00  0.00     0.215 C 
BRANCH  12  13
HETATM   13  O   UNK N   1      35.262  16.318   8.570  0.00  0.00    -0.294 OA
BRANCH  13  14
HETATM   14  P   UNK N   1      34.200  17.721   8.553  0.00  0.00     0.393 P 
HETATM   15  O   UNK N   1      35.001  19.031   8.315  0.00  0.00    -0.631 OA
BRANCH  14  16
HETATM   16  O   UNK N   1      35.367  17.854   9.830  0.00  0.00    -0.307 OA
HETATM   17  H   UNK N   1      36.299  18.036   9.636  0.00  0.00     0.222 HD
ENDBRANCH  14  16
BRANCH  14  18
HETATM   18  O   UNK N   1      34.705  17.625   6.889  0.00  0.00    -0.295 OA
BRANCH  18  19
HETATM   19  C   UNK N   1      33.598  17.067   6.239  0.00  0.00     0.199 C 
BRANCH  19  20
HETATM   20  C   UNK N   1      34.050  16.053   5.213  0.00  0.00     0.138 C 
BRANCH  20  21
HETATM   21  N   UNK N   1      35.118  15.246   5.777  0.00  0.00    -0.428 N 
HETATM   22  H   UNK N   1      34.963  14.308   6.144  0.00  0.00     0.149 HD
HETATM   23  H   UNK N   1      36.061  15.634   5.806  0.00  0.00     0.149 HD
ENDBRANCH  20  21
ENDBRANCH  19  20
ENDBRANCH  18  19
ENDBRANCH  14  18
ENDBRANCH  13  14
ENDBRANCH  12  13
ENDBRANCH   1  12
BRANCH   1  24
HETATM   24  O   UNK N   1      36.461  13.454   9.564  0.00  0.00    -0.309 OA
BRANCH  24  25
HETATM   25  P   UNK N   1      37.990  12.867  10.203  0.00  0.00     0.238 P 
HETATM   26  O   UNK N   1      38.553  13.982   9.281  0.00  0.00    -0.653 OA
BRANCH  25  27
HETATM   27  C   UNK N   1      37.017  11.559   9.302  0.00  0.00     0.125 C 
BRANCH  27  28
HETATM   28  C   UNK N   1      36.749  10.393  10.240  0.00  0.00     0.012 C 
BRANCH  28  29
HETATM   29  C   UNK N   1      35.268  10.272  10.533  0.00  0.00     0.001 C 
BRANCH  29  30
HETATM   30  C   UNK N   1      34.988  10.764  11.938  0.00  0.00     0.000 C 
BRANCH  30  31
HETATM   31  C   UNK N   1      35.724   9.900  12.936  0.00  0.00    -0.000 C 
BRANCH  31  32
HETATM   32  C   UNK N   1      34.817   9.638  14.119  0.00  0.00    -0.005 C 
HETATM   33  C   UNK N   1      33.713  10.671  14.146  0.00  0.00     0.005 C 
ENDBRANCH  31  32
ENDBRANCH  30  31
ENDBRANCH  29  30
ENDBRANCH  28  29
ENDBRANCH  27  28
ENDBRANCH  25  27
BRANCH  25  34
HETATM   34  O   UNK N   1      38.883  11.890   9.078  0.00  0.00    -0.329 OA
HETATM   35  H   UNK N   1      38.835  10.923   9.019  0.00  0.00     0.220 HD
ENDBRANCH  25  34
ENDBRANCH  24  25
ENDBRANCH   1  24
TORSDOF 26
ENDMDL
MODEL 6
REMARK VINA RESULT:      -4.8      8.694     11.747
REMARK  26 active torsions:
REMARK  status: ('A' for Active; 'I' for Inactive)
REMARK    1  A    between atoms: C_5  and  C_3 
REMARK    2  A    between atoms: C_6  and  C_4 
REMARK    3  A    between atoms: C_7  and  C_5 
REMARK    4  A    between atoms: C_8  and  C_6 
REMARK    5  A    between atoms: C_9  and  C_7 
REMARK    6  A    between atoms: C_11  and  C_8 
REMARK    7  A    between atoms: C_10  and  C_9 
REMARK    8  A    between atoms: C_12  and  C_10 
REMARK    9  A    between atoms: C_13  and  C_11 
REMARK   10  A    between atoms: C_15  and  C_12 
REMARK   11  A    between atoms: C_17  and  C_13 
REMARK   12  A    between atoms: C_16  and  C_14 
REMARK   13  A    between atoms: N_21  and  C_14 
REMARK   14  A    between atoms: O_26  and  C_15 
REMARK   15  A    between atoms: O_27  and  C_16 
REMARK   16  A    between atoms: P_30  and  C_17 
REMARK   17  A    between atoms: C_20  and  C_18 
REMARK   18  A    between atoms: O_26  and  C_18 
REMARK   19  A    between atoms: C_20  and  C_19 
REMARK   20  A    between atoms: O_28  and  C_19 
REMARK   21  A    between atoms: C_20  and  O_29 
REMARK   22  A    between atoms: P_30  and  O_22 
REMARK   23  A    between atoms: P_31  and  O_24 
REMARK   24  A    between atoms: P_31  and  O_27 
REMARK   25  A    between atoms: P_31  and  O_28 
REMARK   26  A    between atoms: P_30  and  O_29 
ROOT
HETATM    1  C   UNK N   1      20.995  17.176   4.612  0.00  0.00     0.179 C 
ENDROOT
BRANCH   1   2
HETATM    2  C   UNK N   1      21.862  16.300   3.709  0.00  0.00     0.202 C 
BRANCH   2   3
HETATM    3  O   UNK N   1      21.449  16.393   2.377  0.00  0.00    -0.389 OA
BRANCH   3   4
HETATM    4  C   UNK N   1      20.936  15.129   2.058  0.00  0.00     0.167 C 
BRANCH   4   5
HETATM    5  C   UNK N   1      22.017  14.047   2.068  0.00  0.00     0.026 C 
BRANCH   5   6
HETATM    6  C   UNK N   1      22.745  13.981   0.737  0.00  0.00     0.002 C 
BRANCH   6   7
HETATM    7  C   UNK N   1      24.225  13.735   0.964  0.00  0.00     0.000 C 
BRANCH   7   8
HETATM    8  C   UNK N   1      24.818  14.901   1.733  0.00  0.00     0.000 C 
BRANCH   8   9
HETATM    9  C   UNK N   1      26.289  14.672   1.989  0.00  0.00    -0.000 C 
BRANCH   9  10
HETATM   10  C   UNK N   1      26.591  15.052   3.423  0.00  0.00    -0.005 C 
HETATM   11  C   UNK N   1      25.450  14.618   4.316  0.00  0.00     0.005 C 
ENDBRANCH   9  10
ENDBRANCH   8   9
ENDBRANCH   7   8
ENDBRANCH   6   7
ENDBRANCH   5   6
ENDBRANCH   4   5
ENDBRANCH   3   4
ENDBRANCH   2   3
ENDBRANCH   1   2
BRANCH   1  12
HETATM   12  C   UNK N   1      20.753  18.512   3.897  0.00  0.00     0.215 C 
BRANCH  12  13
HETATM   13  O   UNK N   1      21.655  19.566   4.179  0.00  0.00    -0.294 OA
BRANCH  13  14
HETATM   14  P   UNK N   1      22.382  20.232   2.722  0.00  0.00     0.393 P 
HETATM   15  O   UNK N   1      22.721  21.738   2.899  0.00  0.00    -0.631 OA
BRANCH  14  16
HETATM   16  O   UNK N   1      20.902  21.056   3.097  0.00  0.00    -0.307 OA
HETATM   17  H   UNK N   1      20.696  21.916   2.702  0.00  0.00     0.222 HD
ENDBRANCH  14  16
BRANCH  14  18
HETATM   18  O   UNK N   1      23.719  20.248   3.837  0.00  0.00    -0.295 OA
BRANCH  18  19
HETATM   19  C   UNK N   1      24.626  19.339   3.280  0.00  0.00     0.199 C 
BRANCH  19  20
HETATM   20  C   UNK N   1      25.142  18.396   4.343  0.00  0.00     0.138 C 
BRANCH  20  21
HETATM   21  N   UNK N   1      24.239  18.417   5.480  0.00  0.00    -0.428 N 
HETATM   22  H   UNK N   1      24.082  17.604   6.074  0.00  0.00     0.149 HD
HETATM   23  H   UNK N   1      23.741  19.282   5.693  0.00  0.00     0.149 HD
ENDBRANCH  20  21
ENDBRANCH  19  20
ENDBRANCH  18  19
ENDBRANCH  14  18
ENDBRANCH  13  14
ENDBRANCH  12  13
ENDBRANCH   1  12
BRANCH   1  24
HETATM   24  O   UNK N   1      21.507  17.314   5.934  0.00  0.00    -0.309 OA
BRANCH  24  25
HETATM   25  P   UNK N   1      20.208  17.338   7.119  0.00  0.00     0.238 P 
HETATM   26  O   UNK N   1      20.783  18.755   7.395  0.00  0.00    -0.653 OA
BRANCH  25  27
HETATM   27  C   UNK N   1      21.430  15.960   7.394  0.00  0.00     0.125 C 
BRANCH  27  28
HETATM   28  C   UNK N   1      20.678  14.660   7.636  0.00  0.00     0.012 C 
BRANCH  28  29
HETATM   29  C   UNK N   1      21.404  13.804   8.652  0.00  0.00     0.001 C 
BRANCH  29  30
HETATM   30  C   UNK N   1      20.591  13.733   9.928  0.00  0.00     0.000 C 
BRANCH  30  31
HETATM   31  C   UNK N   1      21.035  12.545  10.750  0.00  0.00    -0.000 C 
BRANCH  31  32
HETATM   32  C   UNK N   1      22.543  12.447  10.695  0.00  0.00    -0.005 C 
HETATM   33  C   UNK N   1      23.067  11.972  12.032  0.00  0.00     0.005 C 
ENDBRANCH  31  32
ENDBRANCH  30  31
ENDBRANCH  29  30
ENDBRANCH  28  29
ENDBRANCH  27  28
ENDBRANCH  25  27
BRANCH  25  34
HETATM   34  O   UNK N   1      20.756  17.117   8.754  0.00  0.00    -0.329 OA
HETATM   35  H   UNK N   1      21.671  17.227   9.054  0.00  0.00     0.220 HD
ENDBRANCH  25  34
ENDBRANCH  24  25
ENDBRANCH   1  24
TORSDOF 26
ENDMDL
MODEL 7
REMARK VINA RESULT:      -4.7      3.613      7.221
REMARK  26 active torsions:
REMARK  status: ('A' for Active; 'I' for Inactive)
REMARK    1  A    between atoms: C_5  and  C_3 
REMARK    2  A    between atoms: C_6  and  C_4 
REMARK    3  A    between atoms: C_7  and  C_5 
REMARK    4  A    between atoms: C_8  and  C_6 
REMARK    5  A    between atoms: C_9  and  C_7 
REMARK    6  A    between atoms: C_11  and  C_8 
REMARK    7  A    between atoms: C_10  and  C_9 
REMARK    8  A    between atoms: C_12  and  C_10 
REMARK    9  A    between atoms: C_13  and  C_11 
REMARK   10  A    between atoms: C_15  and  C_12 
REMARK   11  A    between atoms: C_17  and  C_13 
REMARK   12  A    between atoms: C_16  and  C_14 
REMARK   13  A    between atoms: N_21  and  C_14 
REMARK   14  A    between atoms: O_26  and  C_15 
REMARK   15  A    between atoms: O_27  and  C_16 
REMARK   16  A    between atoms: P_30  and  C_17 
REMARK   17  A    between atoms: C_20  and  C_18 
REMARK   18  A    between atoms: O_26  and  C_18 
REMARK   19  A    between atoms: C_20  and  C_19 
REMARK   20  A    between atoms: O_28  and  C_19 
REMARK   21  A    between atoms: C_20  and  O_29 
REMARK   22  A    between atoms: P_30  and  O_22 
REMARK   23  A    between atoms: P_31  and  O_24 
REMARK   24  A    between atoms: P_31  and  O_27 
REMARK   25  A    between atoms: P_31  and  O_28 
REMARK   26  A    between atoms: P_30  and  O_29 
ROOT
HETATM    1  C   UNK N   1      34.541  14.735  10.511  0.00  0.00     0.179 C 
ENDROOT
BRANCH   1   2
HETATM    2  C   UNK N   1      35.309  15.393   9.367  0.00  0.00     0.202 C 
BRANCH   2   3
HETATM    3  O   UNK N   1      35.378  16.778   9.542  0.00  0.00    -0.389 OA
BRANCH   3   4
HETATM    4  C   UNK N   1      34.151  17.272   9.082  0.00  0.00     0.167 C 
BRANCH   4   5
HETATM    5  C   UNK N   1      34.314  18.190   7.870  0.00  0.00     0.026 C 
BRANCH   5   6
HETATM    6  C   UNK N   1      33.558  17.657   6.667  0.00  0.00     0.002 C 
BRANCH   6   7
HETATM    7  C   UNK N   1      32.419  16.761   7.121  0.00  0.00     0.000 C 
BRANCH   7   8
HETATM    8  C   UNK N   1      31.191  17.039   6.276  0.00  0.00     0.000 C 
BRANCH   8   9
HETATM    9  C   UNK N   1      30.042  17.491   7.145  0.00  0.00    -0.000 C 
BRANCH   9  10
HETATM   10  C   UNK N   1      30.465  17.383   8.594  0.00  0.00    -0.005 C 
HETATM   11  C   UNK N   1      30.081  18.646   9.333  0.00  0.00     0.005 C 
ENDBRANCH   9  10
ENDBRANCH   8   9
ENDBRANCH   7   8
ENDBRANCH   6   7
ENDBRANCH   5   6
ENDBRANCH   4   5
ENDBRANCH   3   4
ENDBRANCH   2   3
ENDBRANCH   1   2
BRANCH   1  12
HETATM   12  C   UNK N   1      35.418  14.783  11.769  0.00  0.00     0.215 C 
BRANCH  12  13
HETATM   13  O   UNK N   1      35.009  13.991  12.870  0.00  0.00    -0.294 OA
BRANCH  13  14
HETATM   14  P   UNK N   1      36.368  13.464  13.855  0.00  0.00     0.393 P 
HETATM   15  O   UNK N   1      36.828  14.585  14.827  0.00  0.00    -0.631 OA
BRANCH  14  16
HETATM   16  O   UNK N   1      36.810  14.836  12.891  0.00  0.00    -0.307 OA
HETATM   17  H   UNK N   1      37.727  14.972  12.607  0.00  0.00     0.222 HD
ENDBRANCH  14  16
BRANCH  14  18
HETATM   18  O   UNK N   1      35.087  13.574  15.029  0.00  0.00    -0.295 OA
BRANCH  18  19
HETATM   19  C   UNK N   1      35.748  13.439  16.256  0.00  0.00     0.199 C 
BRANCH  19  20
HETATM   20  C   UNK N   1      34.749  13.424  17.391  0.00  0.00     0.138 C 
BRANCH  20  21
HETATM   21  N   UNK N   1      35.436  13.718  18.635  0.00  0.00    -0.428 N 
HETATM   22  H   UNK N   1      36.430  13.536  18.772  0.00  0.00     0.149 HD
HETATM   23  H   UNK N   1      34.903  14.124  19.405  0.00  0.00     0.149 HD
ENDBRANCH  20  21
ENDBRANCH  19  20
ENDBRANCH  18  19
ENDBRANCH  14  18
ENDBRANCH  13  14
ENDBRANCH  12  13
ENDBRANCH   1  12
BRANCH   1  24
HETATM   24  O   UNK N   1      34.053  13.434  10.197  0.00  0.00    -0.309 OA
BRANCH  24  25
HETATM   25  P   UNK N   1      33.782  13.256   8.470  0.00  0.00     0.238 P 
HETATM   26  O   UNK N   1      32.322  13.582   8.888  0.00  0.00    -0.653 OA
BRANCH  25  27
HETATM   27  C   UNK N   1      34.473  11.722   9.268  0.00  0.00     0.125 C 
BRANCH  27  28
HETATM   28  C   UNK N   1      33.331  10.795   9.653  0.00  0.00     0.012 C 
BRANCH  28  29
HETATM   29  C   UNK N   1      33.806   9.735  10.625  0.00  0.00     0.001 C 
BRANCH  29  30
HETATM   30  C   UNK N   1      34.202  10.389  11.933  0.00  0.00     0.000 C 
BRANCH  30  31
HETATM   31  C   UNK N   1      34.683   9.337  12.904  0.00  0.00    -0.000 C 
BRANCH  31  32
HETATM   32  C   UNK N   1      34.787   9.952  14.282  0.00  0.00    -0.005 C 
HETATM   33  C   UNK N   1      33.528  10.735  14.581  0.00  0.00     0.005 C 
ENDBRANCH  31  32
ENDBRANCH  30  31
ENDBRANCH  29  30
ENDBRANCH  28  29
ENDBRANCH  27  28
ENDBRANCH  25  27
BRANCH  25  34
HETATM   34  O   UNK N   1      33.014  11.757   8.038  0.00  0.00    -0.329 OA
HETATM   35  H   UNK N   1      32.974  10.970   8.603  0.00  0.00     0.220 HD
ENDBRANCH  25  34
ENDBRANCH  24  25
ENDBRANCH   1  24
TORSDOF 26
ENDMDL
MODEL 8
REMARK VINA RESULT:      -4.7      8.700     11.823
REMARK  26 active torsions:
REMARK  status: ('A' for Active; 'I' for Inactive)
REMARK    1  A    between atoms: C_5  and  C_3 
REMARK    2  A    between atoms: C_6  and  C_4 
REMARK    3  A    between atoms: C_7  and  C_5 
REMARK    4  A    between atoms: C_8  and  C_6 
REMARK    5  A    between atoms: C_9  and  C_7 
REMARK    6  A    between atoms: C_11  and  C_8 
REMARK    7  A    between atoms: C_10  and  C_9 
REMARK    8  A    between atoms: C_12  and  C_10 
REMARK    9  A    between atoms: C_13  and  C_11 
REMARK   10  A    between atoms: C_15  and  C_12 
REMARK   11  A    between atoms: C_17  and  C_13 
REMARK   12  A    between atoms: C_16  and  C_14 
REMARK   13  A    between atoms: N_21  and  C_14 
REMARK   14  A    between atoms: O_26  and  C_15 
REMARK   15  A    between atoms: O_27  and  C_16 
REMARK   16  A    between atoms: P_30  and  C_17 
REMARK   17  A    between atoms: C_20  and  C_18 
REMARK   18  A    between atoms: O_26  and  C_18 
REMARK   19  A    between atoms: C_20  and  C_19 
REMARK   20  A    between atoms: O_28  and  C_19 
REMARK   21  A    between atoms: C_20  and  O_29 
REMARK   22  A    between atoms: P_30  and  O_22 
REMARK   23  A    between atoms: P_31  and  O_24 
REMARK   24  A    between atoms: P_31  and  O_27 
REMARK   25  A    between atoms: P_31  and  O_28 
REMARK   26  A    between atoms: P_30  and  O_29 
ROOT
HETATM    1  C   UNK N   1      22.466  17.908   5.630  0.00  0.00     0.179 C 
ENDROOT
BRANCH   1   2
HETATM    2  C   UNK N   1      21.226  17.808   6.517  0.00  0.00     0.202 C 
BRANCH   2   3
HETATM    3  O   UNK N   1      20.511  16.639   6.246  0.00  0.00    -0.389 OA
BRANCH   3   4
HETATM    4  C   UNK N   1      19.633  16.483   7.327  0.00  0.00     0.167 C 
BRANCH   4   5
HETATM    5  C   UNK N   1      20.373  16.314   8.654  0.00  0.00     0.026 C 
BRANCH   5   6
HETATM    6  C   UNK N   1      20.145  14.933   9.242  0.00  0.00     0.002 C 
BRANCH   6   7
HETATM    7  C   UNK N   1      21.247  13.988   8.797  0.00  0.00     0.000 C 
BRANCH   7   8
HETATM    8  C   UNK N   1      21.925  13.393  10.016  0.00  0.00     0.000 C 
BRANCH   8   9
HETATM    9  C   UNK N   1      22.576  12.076   9.670  0.00  0.00    -0.000 C 
BRANCH   9  10
HETATM   10  C   UNK N   1      23.503  11.686  10.801  0.00  0.00    -0.005 C 
HETATM   11  C   UNK N   1      22.848  12.001  12.128  0.00  0.00     0.005 C 
ENDBRANCH   9  10
ENDBRANCH   8   9
ENDBRANCH   7   8
ENDBRANCH   6   7
ENDBRANCH   5   6
ENDBRANCH   4   5
ENDBRANCH   3   4
ENDBRANCH   2   3
ENDBRANCH   1   2
BRANCH   1  12
HETATM   12  C   UNK N   1      22.020  18.343   4.228  0.00  0.00     0.215 C 
BRANCH  12  13
HETATM   13  O   UNK N   1      21.944  19.735   3.979  0.00  0.00    -0.294 OA
BRANCH  13  14
HETATM   14  P   UNK N   1      20.615  20.149   2.903  0.00  0.00     0.393 P 
HETATM   15  O   UNK N   1      21.101  20.280   1.433  0.00  0.00    -0.631 OA
BRANCH  14  16
HETATM   16  O   UNK N   1      21.835  21.382   2.868  0.00  0.00    -0.307 OA
HETATM   17  H   UNK N   1      21.678  22.227   2.420  0.00  0.00     0.222 HD
ENDBRANCH  14  16
BRANCH  14  18
HETATM   18  O   UNK N   1      20.982  18.517   2.419  0.00  0.00    -0.295 OA
BRANCH  18  19
HETATM   19  C   UNK N   1      20.248  18.349   1.239  0.00  0.00     0.199 C 
BRANCH  19  20
HETATM   20  C   UNK N   1      20.028  16.878   0.964  0.00  0.00     0.138 C 
BRANCH  20  21
HETATM   21  N   UNK N   1      18.817  16.714   0.179  0.00  0.00    -0.428 N 
HETATM   22  H   UNK N   1      18.811  16.261  -0.734  0.00  0.00     0.149 HD
HETATM   23  H   UNK N   1      17.937  17.066   0.558  0.00  0.00     0.149 HD
ENDBRANCH  20  21
ENDBRANCH  19  20
ENDBRANCH  18  19
ENDBRANCH  14  18
ENDBRANCH  13  14
ENDBRANCH  12  13
ENDBRANCH   1  12
BRANCH   1  24
HETATM   24  O   UNK N   1      23.271  16.733   5.641  0.00  0.00    -0.309 OA
BRANCH  24  25
HETATM   25  P   UNK N   1      23.651  16.207   4.007  0.00  0.00     0.238 P 
HETATM   26  O   UNK N   1      22.756  15.007   4.421  0.00  0.00    -0.653 OA
BRANCH  25  27
HETATM   27  C   UNK N   1      25.158  16.431   5.077  0.00  0.00     0.125 C 
BRANCH  27  28
HETATM   28  C   UNK N   1      25.924  17.662   4.619  0.00  0.00     0.012 C 
BRANCH  28  29
HETATM   29  C   UNK N   1      27.404  17.505   4.898  0.00  0.00     0.001 C 
BRANCH  29  30
HETATM   30  C   UNK N   1      27.978  18.833   5.350  0.00  0.00     0.000 C 
BRANCH  30  31
HETATM   31  C   UNK N   1      27.629  19.906   4.345  0.00  0.00    -0.000 C 
BRANCH  31  32
HETATM   32  C   UNK N   1      26.838  20.991   5.042  0.00  0.00    -0.005 C 
HETATM   33  C   UNK N   1      27.503  21.334   6.357  0.00  0.00     0.005 C 
ENDBRANCH  31  32
ENDBRANCH  30  31
ENDBRANCH  29  30
ENDBRANCH  28  29
ENDBRANCH  27  28
ENDBRANCH  25  27
BRANCH  25  34
HETATM   34  O   UNK N   1      24.829  14.930   3.945  0.00  0.00    -0.329 OA
HETATM   35  H   UNK N   1      25.144  14.504   3.133  0.00  0.00     0.220 HD
ENDBRANCH  25  34
ENDBRANCH  24  25
ENDBRANCH   1  24
TORSDOF 26
ENDMDL
MODEL 9
REMARK VINA RESULT:      -4.7      2.642      4.980
REMARK  26 active torsions:
REMARK  status: ('A' for Active; 'I' for Inactive)
REMARK    1  A    between atoms: C_5  and  C_3 
REMARK    2  A    between atoms: C_6  and  C_4 
REMARK    3  A    between atoms: C_7  and  C_5 
REMARK    4  A    between atoms: C_8  and  C_6 
REMARK    5  A    between atoms: C_9  and  C_7 
REMARK    6  A    between atoms: C_11  and  C_8 
REMARK    7  A    between atoms: C_10  and  C_9 
REMARK    8  A    between atoms: C_12  and  C_10 
REMARK    9  A    between atoms: C_13  and  C_11 
REMARK   10  A    between atoms: C_15  and  C_12 
REMARK   11  A    between atoms: C_17  and  C_13 
REMARK   12  A    between atoms: C_16  and  C_14 
REMARK   13  A    between atoms: N_21  and  C_14 
REMARK   14  A    between atoms: O_26  and  C_15 
REMARK   15  A    between atoms: O_27  and  C_16 
REMARK   16  A    between atoms: P_30  and  C_17 
REMARK   17  A    between atoms: C_20  and  C_18 
REMARK   18  A    between atoms: O_26  and  C_18 
REMARK   19  A    between atoms: C_20  and  C_19 
REMARK   20  A    between atoms: O_28  and  C_19 
REMARK   21  A    between atoms: C_20  and  O_29 
REMARK   22  A    between atoms: P_30  and  O_22 
REMARK   23  A    between atoms: P_31  and  O_24 
REMARK   24  A    between atoms: P_31  and  O_27 
REMARK   25  A    between atoms: P_31  and  O_28 
REMARK   26  A    between atoms: P_30  and  O_29 
ROOT
HETATM    1  C   UNK N   1      30.621  17.157   7.134  0.00  0.00     0.179 C 
ENDROOT
BRANCH   1   2
HETATM    2  C   UNK N   1      31.033  15.943   6.304  0.00  0.00     0.202 C 
BRANCH   2   3
HETATM    3  O   UNK N   1      31.226  16.296   4.965  0.00  0.00    -0.389 OA
BRANCH   3   4
HETATM    4  C   UNK N   1      30.394  15.439   4.233  0.00  0.00     0.167 C 
BRANCH   4   5
HETATM    5  C   UNK N   1      29.402  16.205   3.356  0.00  0.00     0.026 C 
BRANCH   5   6
HETATM    6  C   UNK N   1      28.742  15.290   2.340  0.00  0.00     0.002 C 
BRANCH   6   7
HETATM    7  C   UNK N   1      27.237  15.292   2.536  0.00  0.00     0.000 C 
BRANCH   7   8
HETATM    8  C   UNK N   1      26.886  16.148   3.738  0.00  0.00     0.000 C 
BRANCH   8   9
HETATM    9  C   UNK N   1      25.520  16.768   3.566  0.00  0.00    -0.000 C 
BRANCH   9  10
HETATM   10  C   UNK N   1      24.872  16.888   4.928  0.00  0.00    -0.005 C 
HETATM   11  C   UNK N   1      23.410  16.508   4.832  0.00  0.00     0.005 C 
ENDBRANCH   9  10
ENDBRANCH   8   9
ENDBRANCH   7   8
ENDBRANCH   6   7
ENDBRANCH   5   6
ENDBRANCH   4   5
ENDBRANCH   3   4
ENDBRANCH   2   3
ENDBRANCH   1   2
BRANCH   1  12
HETATM   12  C   UNK N   1      31.832  17.608   7.960  0.00  0.00     0.215 C 
BRANCH  12  13
HETATM   13  O   UNK N   1      33.084  17.646   7.299  0.00  0.00    -0.294 OA
BRANCH  13  14
HETATM   14  P   UNK N   1      34.435  17.527   8.420  0.00  0.00     0.393 P 
HETATM   15  O   UNK N   1      34.646  16.063   8.895  0.00  0.00    -0.631 OA
BRANCH  14  16
HETATM   16  O   UNK N   1      32.964  17.013   9.181  0.00  0.00    -0.307 OA
HETATM   17  H   UNK N   1      32.347  17.658   9.561  0.00  0.00     0.222 HD
ENDBRANCH  14  16
BRANCH  14  18
HETATM   18  O   UNK N   1      35.050  16.699   7.017  0.00  0.00    -0.295 OA
BRANCH  18  19
HETATM   19  C   UNK N   1      34.677  15.366   7.229  0.00  0.00     0.199 C 
BRANCH  19  20
HETATM   20  C   UNK N   1      34.509  14.653   5.906  0.00  0.00     0.138 C 
BRANCH  20  21
HETATM   21  N   UNK N   1      34.204  15.626   4.873  0.00  0.00    -0.428 N 
HETATM   22  H   UNK N   1      34.786  16.446   4.701  0.00  0.00     0.149 HD
HETATM   23  H   UNK N   1      33.376  15.484   4.295  0.00  0.00     0.149 HD
ENDBRANCH  20  21
ENDBRANCH  19  20
ENDBRANCH  18  19
ENDBRANCH  14  18
ENDBRANCH  13  14
ENDBRANCH  12  13
ENDBRANCH   1  12
BRANCH   1  24
HETATM   24  O   UNK N   1      29.442  16.947   7.906  0.00  0.00    -0.309 OA
BRANCH  24  25
HETATM   25  P   UNK N   1      29.058  18.360   8.879  0.00  0.00     0.238 P 
HETATM   26  O   UNK N   1      28.919  17.285   9.991  0.00  0.00    -0.653 OA
BRANCH  25  27
HETATM   27  C   UNK N   1      27.898  18.118   7.442  0.00  0.00     0.125 C 
BRANCH  27  28
HETATM   28  C   UNK N   1      27.789  19.415   6.657  0.00  0.00     0.012 C 
BRANCH  28  29
HETATM   29  C   UNK N   1      28.082  19.179   5.190  0.00  0.00     0.001 C 
BRANCH  29  30
HETATM   30  C   UNK N   1      27.313  20.180   4.353  0.00  0.00     0.000 C 
BRANCH  30  31
HETATM   31  C   UNK N   1      25.976  20.463   4.998  0.00  0.00    -0.000 C 
BRANCH  31  32
HETATM   32  C   UNK N   1      24.895  20.377   3.944  0.00  0.00    -0.005 C 
HETATM   33  C   UNK N   1      25.525  20.438   2.570  0.00  0.00     0.005 C 
ENDBRANCH  31  32
ENDBRANCH  30  31
ENDBRANCH  29  30
ENDBRANCH  28  29
ENDBRANCH  27  28
ENDBRANCH  25  27
BRANCH  25  34
HETATM   34  O   UNK N   1      27.364  18.522   9.229  0.00  0.00    -0.329 OA
HETATM   35  H   UNK N   1      26.648  18.389   8.589  0.00  0.00     0.220 HD
ENDBRANCH  25  34
ENDBRANCH  24  25
ENDBRANCH   1  24
TORSDOF 26
ENDMDL
