MODEL 1
REMARK VINA RESULT:      -3.7      0.000      0.000
REMARK  4 active torsions:
REMARK  status: ('A' for Active; 'I' for Inactive)
REMARK    1  A    between atoms: O_1  and  C_2 
REMARK    2  A    between atoms: C_2  and  C_3 
REMARK    3  A    between atoms: C_3  and  C_4 
REMARK    4  A    between atoms: C_4  and  O_5 
ROOT
HETATM    1  C   UNK N   1      33.750  17.329   8.879  0.00  0.00     0.136 C 
ENDROOT
BRANCH   1   2
HETATM    2  C   UNK N   1      34.640  16.463   9.751  0.00  0.00     0.174 C 
BRANCH   2   3
HETATM    3  O   UNK N   1      35.086  17.222  10.831  0.00  0.00    -0.400 OA
HETATM    4  H   UNK N   1      35.993  17.116  11.157  0.00  0.00     0.209 HD
ENDBRANCH   2   3
ENDBRANCH   1   2
BRANCH   1   5
HETATM    5  C   UNK N   1      34.515  18.255   7.984  0.00  0.00     0.141 C 
HETATM    6  O   UNK N   1      34.452  18.159   6.769  0.00  0.00    -0.650 OA
BRANCH   5   7
HETATM    7  O   UNK N   1      35.286  19.210   8.538  0.00  0.00    -0.776 OA
HETATM    8  H   UNK N   1      36.190  19.039   8.714  0.00  0.00     0.167 HD
ENDBRANCH   5   7
ENDBRANCH   1   5
TORSDOF 4
ENDMDL
MODEL 2
REMARK VINA RESULT:      -3.6     15.084     15.884
REMARK  4 active torsions:
REMARK  status: ('A' for Active; 'I' for Inactive)
REMARK    1  A    between atoms: O_1  and  C_2 
REMARK    2  A    between atoms: C_2  and  C_3 
REMARK    3  A    between atoms: C_3  and  C_4 
REMARK    4  A    between atoms: C_4  and  O_5 
ROOT
HETATM    1  C   UNK N   1      20.597  19.543   1.872  0.00  0.00     0.136 C 
ENDROOT
BRANCH   1   2
HETATM    2  C   UNK N   1      19.779  18.384   2.414  0.00  0.00     0.174 C 
BRANCH   2   3
HETATM    3  O   UNK N   1      18.436  18.754   2.436  0.00  0.00    -0.400 OA
HETATM    4  H   UNK N   1      18.191  19.691   2.406  0.00  0.00     0.209 HD
ENDBRANCH   2   3
ENDBRANCH   1   2
BRANCH   1   5
HETATM    5  C   UNK N   1      20.845  20.619   2.886  0.00  0.00     0.141 C 
HETATM    6  O   UNK N   1      20.245  20.640   3.948  0.00  0.00    -0.650 OA
BRANCH   5   7
HETATM    7  O   UNK N   1      21.749  21.578   2.611  0.00  0.00    -0.776 OA
HETATM    8  H   UNK N   1      22.355  21.852   3.270  0.00  0.00     0.167 HD
ENDBRANCH   5   7
ENDBRANCH   1   5
TORSDOF 4
ENDMDL
MODEL 3
REMARK VINA RESULT:      -3.5     15.740     16.232
REMARK  4 active torsions:
REMARK  status: ('A' for Active; 'I' for Inactive)
REMARK    1  A    between atoms: O_1  and  C_2 
REMARK    2  A    between atoms: C_2  and  C_3 
REMARK    3  A    between atoms: C_3  and  C_4 
REMARK    4  A    between atoms: C_4  and  O_5 
ROOT
HETATM    1  C   UNK N   1      20.586  19.195   1.747  0.00  0.00     0.136 C 
ENDROOT
BRANCH   1   2
HETATM    2  C   UNK N   1      19.546  19.233   2.852  0.00  0.00     0.174 C 
BRANCH   2   3
HETATM    3  O   UNK N   1      18.351  18.711   2.362  0.00  0.00    -0.400 OA
HETATM    4  H   UNK N   1      18.358  17.899   1.832  0.00  0.00     0.209 HD
ENDBRANCH   2   3
ENDBRANCH   1   2
BRANCH   1   5
HETATM    5  C   UNK N   1      20.933  20.550   1.211  0.00  0.00     0.141 C 
HETATM    6  O   UNK N   1      21.105  20.734   0.017  0.00  0.00    -0.650 OA
BRANCH   5   7
HETATM    7  O   UNK N   1      21.055  21.581   2.069  0.00  0.00    -0.776 OA
HETATM    8  H   UNK N   1      21.763  21.598   2.682  0.00  0.00     0.167 HD
ENDBRANCH   5   7
ENDBRANCH   1   5
TORSDOF 4
ENDMDL
MODEL 4
REMARK VINA RESULT:      -3.5     12.793     13.493
REMARK  4 active torsions:
REMARK  status: ('A' for Active; 'I' for Inactive)
REMARK    1  A    between atoms: O_1  and  C_2 
REMARK    2  A    between atoms: C_2  and  C_3 
REMARK    3  A    between atoms: C_3  and  C_4 
REMARK    4  A    between atoms: C_4  and  O_5 
ROOT
HETATM    1  C   UNK N   1      22.959  11.607  10.789  0.00  0.00     0.136 C 
ENDROOT
BRANCH   1   2
HETATM    2  C   UNK N   1      21.618  12.313  10.867  0.00  0.00     0.174 C 
BRANCH   2   3
HETATM    3  O   UNK N   1      20.877  11.756  11.907  0.00  0.00    -0.400 OA
HETATM    4  H   UNK N   1      20.267  11.023  11.730  0.00  0.00     0.209 HD
ENDBRANCH   2   3
ENDBRANCH   1   2
BRANCH   1   5
HETATM    5  C   UNK N   1      23.916  12.029  11.862  0.00  0.00     0.141 C 
HETATM    6  O   UNK N   1      23.597  12.008  13.040  0.00  0.00    -0.650 OA
BRANCH   5   7
HETATM    7  O   UNK N   1      25.150  12.437  11.513  0.00  0.00    -0.776 OA
HETATM    8  H   UNK N   1      25.495  12.217  10.671  0.00  0.00     0.167 HD
ENDBRANCH   5   7
ENDBRANCH   1   5
TORSDOF 4
ENDMDL
MODEL 5
REMARK VINA RESULT:      -3.4      1.042      3.060
REMARK  4 active torsions:
REMARK  status: ('A' for Active; 'I' for Inactive)
REMARK    1  A    between atoms: O_1  and  C_2 
REMARK    2  A    between atoms: C_2  and  C_3 
REMARK    3  A    between atoms: C_3  and  C_4 
REMARK    4  A    between atoms: C_4  and  O_5 
ROOT
HETATM    1  C   UNK N   1      34.571  16.959   8.421  0.00  0.00     0.136 C 
ENDROOT
BRANCH   1   2
HETATM    2  C   UNK N   1      34.232  18.401   8.091  0.00  0.00     0.174 C 
BRANCH   2   3
HETATM    3  O   UNK N   1      35.292  19.214   8.487  0.00  0.00    -0.400 OA
HETATM    4  H   UNK N   1      35.643  19.148   9.388  0.00  0.00     0.209 HD
ENDBRANCH   2   3
ENDBRANCH   1   2
BRANCH   1   5
HETATM    5  C   UNK N   1      34.802  16.723   9.884  0.00  0.00     0.141 C 
HETATM    6  O   UNK N   1      35.700  17.292  10.483  0.00  0.00    -0.650 OA
BRANCH   5   7
HETATM    7  O   UNK N   1      33.999  15.866  10.541  0.00  0.00    -0.776 OA
HETATM    8  H   UNK N   1      34.310  15.428  11.309  0.00  0.00     0.167 HD
ENDBRANCH   5   7
ENDBRANCH   1   5
TORSDOF 4
ENDMDL
MODEL 6
REMARK VINA RESULT:      -3.4     15.772     16.446
REMARK  4 active torsions:
REMARK  status: ('A' for Active; 'I' for Inactive)
REMARK    1  A    between atoms: O_1  and  C_2 
REMARK    2  A    between atoms: C_2  and  C_3 
REMARK    3  A    between atoms: C_3  and  C_4 
REMARK    4  A    between atoms: C_4  and  O_5 
ROOT
HETATM    1  C   UNK N   1      20.727  19.590   2.522  0.00  0.00     0.136 C 
ENDROOT
BRANCH   1   2
HETATM    2  C   UNK N   1      20.866  20.459   1.286  0.00  0.00     0.174 C 
BRANCH   2   3
HETATM    3  O   UNK N   1      20.561  19.694   0.162  0.00  0.00    -0.400 OA
HETATM    4  H   UNK N   1      20.704  18.735   0.175  0.00  0.00     0.209 HD
ENDBRANCH   2   3
ENDBRANCH   1   2
BRANCH   1   5
HETATM    5  C   UNK N   1      19.745  18.470   2.354  0.00  0.00     0.141 C 
HETATM    6  O   UNK N   1      20.117  17.321   2.185  0.00  0.00    -0.650 OA
BRANCH   5   7
HETATM    7  O   UNK N   1      18.428  18.746   2.390  0.00  0.00    -0.776 OA
HETATM    8  H   UNK N   1      17.932  18.564   3.164  0.00  0.00     0.167 HD
ENDBRANCH   5   7
ENDBRANCH   1   5
TORSDOF 4
ENDMDL
MODEL 7
REMARK VINA RESULT:      -3.3      1.299      2.730
REMARK  4 active torsions:
REMARK  status: ('A' for Active; 'I' for Inactive)
REMARK    1  A    between atoms: O_1  and  C_2 
REMARK    2  A    between atoms: C_2  and  C_3 
REMARK    3  A    between atoms: C_3  and  C_4 
REMARK    4  A    between atoms: C_4  and  O_5 
ROOT
HETATM    1  C   UNK N   1      33.238  18.198   8.083  0.00  0.00     0.136 C 
ENDROOT
BRANCH   1   2
HETATM    2  C   UNK N   1      33.111  17.549   6.717  0.00  0.00     0.174 C 
BRANCH   2   3
HETATM    3  O   UNK N   1      34.361  17.549   6.102  0.00  0.00    -0.400 OA
HETATM    4  H   UNK N   1      34.438  17.771   5.161  0.00  0.00     0.209 HD
ENDBRANCH   2   3
ENDBRANCH   1   2
BRANCH   1   5
HETATM    5  C   UNK N   1      34.641  18.205   8.609  0.00  0.00     0.141 C 
HETATM    6  O   UNK N   1      35.128  17.215   9.130  0.00  0.00    -0.650 OA
BRANCH   5   7
HETATM    7  O   UNK N   1      35.373  19.330   8.501  0.00  0.00    -0.776 OA
HETATM    8  H   UNK N   1      35.574  19.678   7.655  0.00  0.00     0.167 HD
ENDBRANCH   5   7
ENDBRANCH   1   5
TORSDOF 4
ENDMDL
MODEL 8
REMARK VINA RESULT:      -3.3     16.115     16.567
REMARK  4 active torsions:
REMARK  status: ('A' for Active; 'I' for Inactive)
REMARK    1  A    between atoms: O_1  and  C_2 
REMARK    2  A    between atoms: C_2  and  C_3 
REMARK    3  A    between atoms: C_3  and  C_4 
REMARK    4  A    between atoms: C_4  and  O_5 
ROOT
HETATM    1  C   UNK N   1      17.735  18.198  10.019  0.00  0.00     0.136 C 
ENDROOT
BRANCH   1   2
HETATM    2  C   UNK N   1      19.077  17.865   9.394  0.00  0.00     0.174 C 
BRANCH   2   3
HETATM    3  O   UNK N   1      19.670  19.044   8.947  0.00  0.00    -0.400 OA
HETATM    4  H   UNK N   1      20.634  19.144   8.981  0.00  0.00     0.209 HD
ENDBRANCH   2   3
ENDBRANCH   1   2
BRANCH   1   5
HETATM    5  C   UNK N   1      17.849  19.039  11.255  0.00  0.00     0.141 C 
HETATM    6  O   UNK N   1      16.938  19.101  12.065  0.00  0.00    -0.650 OA
BRANCH   5   7
HETATM    7  O   UNK N   1      18.981  19.735  11.469  0.00  0.00    -0.776 OA
HETATM    8  H   UNK N   1      19.347  20.257  10.782  0.00  0.00     0.167 HD
ENDBRANCH   5   7
ENDBRANCH   1   5
TORSDOF 4
ENDMDL
MODEL 9
REMARK VINA RESULT:      -3.3      2.758      3.309
REMARK  4 active torsions:
REMARK  status: ('A' for Active; 'I' for Inactive)
REMARK    1  A    between atoms: O_1  and  C_2 
REMARK    2  A    between atoms: C_2  and  C_3 
REMARK    3  A    between atoms: C_3  and  C_4 
REMARK    4  A    between atoms: C_4  and  O_5 
ROOT
HETATM    1  C   UNK N   1      35.105  15.212   9.596  0.00  0.00     0.136 C 
ENDROOT
BRANCH   1   2
HETATM    2  C   UNK N   1      33.614  15.073   9.843  0.00  0.00     0.174 C 
BRANCH   2   3
HETATM    3  O   UNK N   1      33.394  14.957  11.214  0.00  0.00    -0.400 OA
HETATM    4  H   UNK N   1      33.799  14.228  11.709  0.00  0.00     0.209 HD
ENDBRANCH   2   3
ENDBRANCH   1   2
BRANCH   1   5
HETATM    5  C   UNK N   1      35.756  16.247  10.463  0.00  0.00     0.141 C 
HETATM    6  O   UNK N   1      35.174  17.274  10.770  0.00  0.00    -0.650 OA
BRANCH   5   7
HETATM    7  O   UNK N   1      37.009  16.032  10.906  0.00  0.00    -0.776 OA
HETATM    8  H   UNK N   1      37.207  15.256  11.392  0.00  0.00     0.167 HD
ENDBRANCH   5   7
ENDBRANCH   1   5
TORSDOF 4
ENDMDL
