MODEL 1
REMARK VINA RESULT:      -8.5      0.000      0.000
REMARK  4 active torsions:
REMARK  status: ('A' for Active; 'I' for Inactive)
REMARK    1  A    between atoms: C_17  and  C_18 
REMARK    2  A    between atoms: C_18  and  C_19 
REMARK    3  A    between atoms: C_19  and  C_21 
REMARK    4  A    between atoms: C_21  and  C_22 
ROOT
HETATM    1  C   UNK N   1      36.038  15.990  10.893  0.00  0.00     0.033 C 
HETATM    2  C   UNK N   1      34.947  15.688   9.860  0.00  0.00     0.126 C 
HETATM    3  C   UNK N   1      35.038  14.232   9.351  0.00  0.00    -0.017 C 
HETATM    4  C   UNK N   1      35.003  13.246  10.556  0.00  0.00     0.008 C 
HETATM    5  C   UNK N   1      36.069  13.572  11.653  0.00  0.00    -0.016 C 
HETATM    6  C   UNK N   1      35.934  15.038  12.091  0.00  0.00     0.016 C 
HETATM    7  C   UNK N   1      35.098  11.765  10.090  0.00  0.00     0.011 C 
HETATM    8  C   UNK N   1      35.799  10.823  11.090  0.00  0.00     0.036 C 
HETATM    9  C   UNK N   1      35.654  11.292  12.519  0.00  0.00    -0.068 C 
HETATM   10  C   UNK N   1      35.799  12.604  12.797  0.00  0.00    -0.068 C 
HETATM   11  C   UNK N   1      35.349  10.331  13.652  0.00  0.00    -0.013 C 
HETATM   12  C   UNK N   1      36.280  10.589  14.871  0.00  0.00    -0.029 C 
HETATM   13  C   UNK N   1      36.448  12.122  15.152  0.00  0.00     0.015 C 
HETATM   14  C   UNK N   1      35.641  13.054  14.228  0.00  0.00     0.036 C 
HETATM   15  C   UNK N   1      33.947  10.575  14.235  0.00  0.00     0.015 C 
HETATM   16  C   UNK N   1      34.067  10.396  15.756  0.00  0.00     0.007 C 
HETATM   17  C   UNK N   1      35.476   9.874  15.980  0.00  0.00    -0.002 C 
HETATM   18  C   UNK N   1      37.683  10.034  14.671  0.00  0.00     0.016 C 
HETATM   19  C   UNK N   1      37.503  13.348  11.161  0.00  0.00     0.020 C 
HETATM   20  C   UNK N   1      35.392   8.873  13.172  0.00  0.00     0.021 C 
HETATM   21  O   UNK N   1      33.694  15.954  10.420  0.00  0.00    -0.395 OA
HETATM   22  C   UNK N   1      36.312  14.074   8.527  0.00  0.00     0.018 C 
HETATM   23  C   UNK N   1      33.871  13.960   8.408  0.00  0.00     0.018 C 
HETATM   24  H   UNK N   1      32.824  16.122  10.816  0.00  0.00     0.210 HD
ENDROOT
BRANCH  17  25
HETATM   25  C   UNK N   1      35.925   9.985  17.451  0.00  0.00    -0.014 C 
HETATM   26  C   UNK N   1      36.963   9.027  18.007  0.00  0.00     0.010 C 
BRANCH  25  27
HETATM   27  C   UNK N   1      34.956  10.597  18.467  0.00  0.00     0.008 C 
BRANCH  27  28
HETATM   28  C   UNK N   1      34.615   9.712  19.663  0.00  0.00     0.028 C 
BRANCH  28  29
HETATM   29  C   UNK N   1      33.348   8.922  19.470  0.00  0.00    -0.025 C 
HETATM   30  C   UNK N   1      32.328   8.880  20.339  0.00  0.00    -0.091 C 
HETATM   31  C   UNK N   1      31.126   8.068  20.000  0.00  0.00     0.042 C 
HETATM   32  C   UNK N   1      32.344   9.644  21.623  0.00  0.00     0.042 C 
ENDBRANCH  28  29
ENDBRANCH  27  28
ENDBRANCH  25  27
ENDBRANCH  17  25
TORSDOF 4
ENDMDL
MODEL 2
REMARK VINA RESULT:      -8.4      4.719     11.020
REMARK  4 active torsions:
REMARK  status: ('A' for Active; 'I' for Inactive)
REMARK    1  A    between atoms: C_17  and  C_18 
REMARK    2  A    between atoms: C_18  and  C_19 
REMARK    3  A    between atoms: C_19  and  C_21 
REMARK    4  A    between atoms: C_21  and  C_22 
ROOT
HETATM    1  C   UNK N   1      35.111  11.582  10.697  0.00  0.00     0.033 C 
HETATM    2  C   UNK N   1      35.362  12.246  12.055  0.00  0.00     0.126 C 
HETATM    3  C   UNK N   1      35.925  13.675  11.890  0.00  0.00    -0.017 C 
HETATM    4  C   UNK N   1      34.979  14.517  10.983  0.00  0.00     0.008 C 
HETATM    5  C   UNK N   1      34.661  13.830   9.615  0.00  0.00    -0.016 C 
HETATM    6  C   UNK N   1      34.130  12.409   9.856  0.00  0.00     0.016 C 
HETATM    7  C   UNK N   1      35.511  15.965  10.784  0.00  0.00     0.011 C 
HETATM    8  C   UNK N   1      35.147  16.599   9.427  0.00  0.00     0.036 C 
HETATM    9  C   UNK N   1      33.861  16.046   8.859  0.00  0.00    -0.068 C 
HETATM   10  C   UNK N   1      33.631  14.718   8.931  0.00  0.00    -0.068 C 
HETATM   11  C   UNK N   1      32.819  16.938   8.212  0.00  0.00    -0.013 C 
HETATM   12  C   UNK N   1      32.329  16.337   6.863  0.00  0.00    -0.029 C 
HETATM   13  C   UNK N   1      32.094  14.791   6.973  0.00  0.00     0.015 C 
HETATM   14  C   UNK N   1      32.336  14.186   8.368  0.00  0.00     0.036 C 
HETATM   15  C   UNK N   1      31.531  16.997   9.048  0.00  0.00     0.015 C 
HETATM   16  C   UNK N   1      30.361  16.992   8.052  0.00  0.00     0.007 C 
HETATM   17  C   UNK N   1      31.009  17.120   6.684  0.00  0.00    -0.002 C 
HETATM   18  C   UNK N   1      33.324  16.540   5.730  0.00  0.00     0.016 C 
HETATM   19  C   UNK N   1      35.892  13.734   8.707  0.00  0.00     0.020 C 
HETATM   20  C   UNK N   1      33.332  18.378   8.067  0.00  0.00     0.021 C 
HETATM   21  O   UNK N   1      34.174  12.250  12.793  0.00  0.00    -0.395 OA
HETATM   22  C   UNK N   1      37.333  13.589  11.312  0.00  0.00     0.018 C 
HETATM   23  C   UNK N   1      36.056  14.321  13.265  0.00  0.00     0.018 C 
HETATM   24  H   UNK N   1      33.345  12.267  13.297  0.00  0.00     0.210 HD
ENDROOT
BRANCH  17  25
HETATM   25  C   UNK N   1      30.048  16.757   5.535  0.00  0.00    -0.014 C 
HETATM   26  C   UNK N   1      30.301  17.284   4.133  0.00  0.00     0.010 C 
BRANCH  25  27
HETATM   27  C   UNK N   1      28.594  16.414   5.876  0.00  0.00     0.008 C 
BRANCH  27  28
HETATM   28  C   UNK N   1      27.549  17.401   5.362  0.00  0.00     0.028 C 
BRANCH  28  29
HETATM   29  C   UNK N   1      27.613  18.739   6.049  0.00  0.00    -0.025 C 
HETATM   30  C   UNK N   1      27.506  19.925   5.434  0.00  0.00    -0.091 C 
HETATM   31  C   UNK N   1      27.567  21.169   6.252  0.00  0.00     0.042 C 
HETATM   32  C   UNK N   1      27.299  20.041   3.959  0.00  0.00     0.042 C 
ENDBRANCH  28  29
ENDBRANCH  27  28
ENDBRANCH  25  27
ENDBRANCH  17  25
TORSDOF 4
ENDMDL
MODEL 3
REMARK VINA RESULT:      -8.1      4.431     10.914
REMARK  4 active torsions:
REMARK  status: ('A' for Active; 'I' for Inactive)
REMARK    1  A    between atoms: C_17  and  C_18 
REMARK    2  A    between atoms: C_18  and  C_19 
REMARK    3  A    between atoms: C_19  and  C_21 
REMARK    4  A    between atoms: C_21  and  C_22 
ROOT
HETATM    1  C   UNK N   1      35.459  11.245   9.957  0.00  0.00     0.033 C 
HETATM    2  C   UNK N   1      35.255  11.524  11.451  0.00  0.00     0.126 C 
HETATM    3  C   UNK N   1      35.578  12.993  11.801  0.00  0.00    -0.017 C 
HETATM    4  C   UNK N   1      34.742  13.950  10.899  0.00  0.00     0.008 C 
HETATM    5  C   UNK N   1      34.887  13.644   9.372  0.00  0.00    -0.016 C 
HETATM    6  C   UNK N   1      34.576  12.164   9.104  0.00  0.00     0.016 C 
HETATM    7  C   UNK N   1      35.039  15.443  11.213  0.00  0.00     0.011 C 
HETATM    8  C   UNK N   1      34.903  16.391  10.004  0.00  0.00     0.036 C 
HETATM    9  C   UNK N   1      33.910  15.884   8.985  0.00  0.00    -0.068 C 
HETATM   10  C   UNK N   1      33.909  14.573   8.666  0.00  0.00    -0.068 C 
HETATM   11  C   UNK N   1      32.911  16.805   8.310  0.00  0.00    -0.013 C 
HETATM   12  C   UNK N   1      32.873  16.558   6.775  0.00  0.00    -0.029 C 
HETATM   13  C   UNK N   1      32.898  15.028   6.436  0.00  0.00     0.015 C 
HETATM   14  C   UNK N   1      32.903  14.084   7.654  0.00  0.00     0.036 C 
HETATM   15  C   UNK N   1      31.471  16.487   8.744  0.00  0.00     0.015 C 
HETATM   16  C   UNK N   1      30.593  16.636   7.492  0.00  0.00     0.007 C 
HETATM   17  C   UNK N   1      31.516  17.213   6.431  0.00  0.00    -0.002 C 
HETATM   18  C   UNK N   1      34.058  17.177   6.047  0.00  0.00     0.016 C 
HETATM   19  C   UNK N   1      36.297  13.940   8.847  0.00  0.00     0.020 C 
HETATM   20  C   UNK N   1      33.179  18.274   8.668  0.00  0.00     0.021 C 
HETATM   21  O   UNK N   1      33.945  11.192  11.807  0.00  0.00    -0.395 OA
HETATM   22  C   UNK N   1      37.076  13.225  11.634  0.00  0.00     0.018 C 
HETATM   23  C   UNK N   1      35.259  13.237  13.271  0.00  0.00     0.018 C 
HETATM   24  H   UNK N   1      33.030  10.977  12.050  0.00  0.00     0.210 HD
ENDROOT
BRANCH  17  25
HETATM   25  C   UNK N   1      30.938  17.086   5.008  0.00  0.00    -0.014 C 
HETATM   26  C   UNK N   1      29.994  15.946   4.666  0.00  0.00     0.010 C 
BRANCH  25  27
HETATM   27  C   UNK N   1      31.729  17.682   3.840  0.00  0.00     0.008 C 
BRANCH  27  28
HETATM   28  C   UNK N   1      32.017  16.726   2.686  0.00  0.00     0.028 C 
BRANCH  28  29
HETATM   29  C   UNK N   1      33.302  15.962   2.859  0.00  0.00    -0.025 C 
HETATM   30  C   UNK N   1      33.403  14.625   2.897  0.00  0.00    -0.091 C 
HETATM   31  C   UNK N   1      34.749  14.009   3.054  0.00  0.00     0.042 C 
HETATM   32  C   UNK N   1      32.212  13.733   2.757  0.00  0.00     0.042 C 
ENDBRANCH  28  29
ENDBRANCH  27  28
ENDBRANCH  25  27
ENDBRANCH  17  25
TORSDOF 4
ENDMDL
MODEL 4
REMARK VINA RESULT:      -8.1      5.838     11.467
REMARK  4 active torsions:
REMARK  status: ('A' for Active; 'I' for Inactive)
REMARK    1  A    between atoms: C_17  and  C_18 
REMARK    2  A    between atoms: C_18  and  C_19 
REMARK    3  A    between atoms: C_19  and  C_21 
REMARK    4  A    between atoms: C_21  and  C_22 
ROOT
HETATM    1  C   UNK N   1      34.839  14.625  11.407  0.00  0.00     0.033 C 
HETATM    2  C   UNK N   1      36.338  14.792  11.132  0.00  0.00     0.126 C 
HETATM    3  C   UNK N   1      36.771  14.013   9.869  0.00  0.00    -0.017 C 
HETATM    4  C   UNK N   1      35.893  14.440   8.656  0.00  0.00     0.008 C 
HETATM    5  C   UNK N   1      34.357  14.336   8.935  0.00  0.00    -0.016 C 
HETATM    6  C   UNK N   1      34.007  15.111  10.214  0.00  0.00     0.016 C 
HETATM    7  C   UNK N   1      36.290  13.676   7.361  0.00  0.00     0.011 C 
HETATM    8  C   UNK N   1      35.127  13.433   6.379  0.00  0.00     0.036 C 
HETATM    9  C   UNK N   1      34.054  14.491   6.485  0.00  0.00    -0.068 C 
HETATM   10  C   UNK N   1      33.670  14.915   7.707  0.00  0.00    -0.068 C 
HETATM   11  C   UNK N   1      33.396  15.093   5.258  0.00  0.00    -0.013 C 
HETATM   12  C   UNK N   1      31.850  15.142   5.421  0.00  0.00    -0.029 C 
HETATM   13  C   UNK N   1      31.436  15.614   6.856  0.00  0.00     0.015 C 
HETATM   14  C   UNK N   1      32.604  15.980   7.792  0.00  0.00     0.036 C 
HETATM   15  C   UNK N   1      33.769  16.575   5.089  0.00  0.00     0.015 C 
HETATM   16  C   UNK N   1      32.501  17.295   4.608  0.00  0.00     0.007 C 
HETATM   17  C   UNK N   1      31.498  16.186   4.336  0.00  0.00    -0.002 C 
HETATM   18  C   UNK N   1      31.190  13.787   5.208  0.00  0.00     0.016 C 
HETATM   19  C   UNK N   1      33.891  12.887   9.110  0.00  0.00     0.020 C 
HETATM   20  C   UNK N   1      33.835  14.367   3.978  0.00  0.00     0.021 C 
HETATM   21  O   UNK N   1      36.638  16.152  11.017  0.00  0.00    -0.395 OA
HETATM   22  C   UNK N   1      36.661  12.518  10.148  0.00  0.00     0.018 C 
HETATM   23  C   UNK N   1      38.241  14.298   9.588  0.00  0.00     0.018 C 
HETATM   24  H   UNK N   1      36.842  17.096  10.922  0.00  0.00     0.210 HD
ENDROOT
BRANCH  17  25
HETATM   25  C   UNK N   1      30.054  16.708   4.208  0.00  0.00    -0.014 C 
HETATM   26  C   UNK N   1      29.235  16.392   2.968  0.00  0.00     0.010 C 
BRANCH  25  27
HETATM   27  C   UNK N   1      29.663  17.977   4.971  0.00  0.00     0.008 C 
BRANCH  27  28
HETATM   28  C   UNK N   1      28.195  18.075   5.375  0.00  0.00     0.028 C 
BRANCH  28  29
HETATM   29  C   UNK N   1      27.853  19.380   6.044  0.00  0.00    -0.025 C 
HETATM   30  C   UNK N   1      27.228  20.408   5.452  0.00  0.00    -0.091 C 
HETATM   31  C   UNK N   1      26.938  21.631   6.250  0.00  0.00     0.042 C 
HETATM   32  C   UNK N   1      26.789  20.356   4.024  0.00  0.00     0.042 C 
ENDBRANCH  28  29
ENDBRANCH  27  28
ENDBRANCH  25  27
ENDBRANCH  17  25
TORSDOF 4
ENDMDL
MODEL 5
REMARK VINA RESULT:      -7.9     11.193     14.241
REMARK  4 active torsions:
REMARK  status: ('A' for Active; 'I' for Inactive)
REMARK    1  A    between atoms: C_17  and  C_18 
REMARK    2  A    between atoms: C_18  and  C_19 
REMARK    3  A    between atoms: C_19  and  C_21 
REMARK    4  A    between atoms: C_21  and  C_22 
ROOT
HETATM    1  C   UNK N   1      28.675  17.856   6.997  0.00  0.00     0.033 C 
HETATM    2  C   UNK N   1      28.187  19.308   7.038  0.00  0.00     0.126 C 
HETATM    3  C   UNK N   1      27.320  19.648   5.806  0.00  0.00    -0.017 C 
HETATM    4  C   UNK N   1      26.147  18.631   5.684  0.00  0.00     0.008 C 
HETATM    5  C   UNK N   1      26.618  17.139   5.702  0.00  0.00    -0.016 C 
HETATM    6  C   UNK N   1      27.491  16.882   6.939  0.00  0.00     0.016 C 
HETATM    7  C   UNK N   1      25.250  18.932   4.451  0.00  0.00     0.011 C 
HETATM    8  C   UNK N   1      24.596  17.687   3.816  0.00  0.00     0.036 C 
HETATM    9  C   UNK N   1      24.375  16.579   4.819  0.00  0.00    -0.068 C 
HETATM   10  C   UNK N   1      25.347  16.301   5.713  0.00  0.00    -0.068 C 
HETATM   11  C   UNK N   1      23.093  15.770   4.852  0.00  0.00    -0.013 C 
HETATM   12  C   UNK N   1      23.395  14.248   4.960  0.00  0.00    -0.029 C 
HETATM   13  C   UNK N   1      24.544  13.960   5.987  0.00  0.00     0.015 C 
HETATM   14  C   UNK N   1      25.104  15.198   6.713  0.00  0.00     0.036 C 
HETATM   15  C   UNK N   1      22.284  16.049   6.130  0.00  0.00     0.015 C 
HETATM   16  C   UNK N   1      21.696  14.703   6.579  0.00  0.00     0.007 C 
HETATM   17  C   UNK N   1      22.024  13.735   5.455  0.00  0.00    -0.002 C 
HETATM   18  C   UNK N   1      23.840  13.639   3.638  0.00  0.00     0.016 C 
HETATM   19  C   UNK N   1      27.429  16.766   4.456  0.00  0.00     0.020 C 
HETATM   20  C   UNK N   1      22.188  16.111   3.660  0.00  0.00     0.021 C 
HETATM   21  O   UNK N   1      27.486  19.526   8.228  0.00  0.00    -0.395 OA
HETATM   22  C   UNK N   1      28.204  19.642   4.562  0.00  0.00     0.018 C 
HETATM   23  C   UNK N   1      26.780  21.066   5.951  0.00  0.00     0.018 C 
HETATM   24  H   UNK N   1      26.985  19.671   9.046  0.00  0.00     0.210 HD
ENDROOT
BRANCH  17  25
HETATM   25  C   UNK N   1      21.856  12.261   5.871  0.00  0.00    -0.014 C 
HETATM   26  C   UNK N   1      21.315  11.245   4.881  0.00  0.00     0.010 C 
BRANCH  25  27
HETATM   27  C   UNK N   1      21.648  11.938   7.354  0.00  0.00     0.008 C 
BRANCH  27  28
HETATM   28  C   UNK N   1      22.915  11.617   8.141  0.00  0.00     0.028 C 
BRANCH  28  29
HETATM   29  C   UNK N   1      22.688  11.562   9.628  0.00  0.00    -0.025 C 
HETATM   30  C   UNK N   1      23.529  12.046  10.553  0.00  0.00    -0.091 C 
HETATM   31  C   UNK N   1      23.159  11.938  11.991  0.00  0.00     0.042 C 
HETATM   32  C   UNK N   1      24.813  12.718  10.187  0.00  0.00     0.042 C 
ENDBRANCH  28  29
ENDBRANCH  27  28
ENDBRANCH  25  27
ENDBRANCH  17  25
TORSDOF 4
ENDMDL
MODEL 6
REMARK VINA RESULT:      -7.9     21.444     24.490
REMARK  4 active torsions:
REMARK  status: ('A' for Active; 'I' for Inactive)
REMARK    1  A    between atoms: C_17  and  C_18 
REMARK    2  A    between atoms: C_18  and  C_19 
REMARK    3  A    between atoms: C_19  and  C_21 
REMARK    4  A    between atoms: C_21  and  C_22 
ROOT
HETATM    1  C   UNK N   1      25.279  24.654  -5.218  0.00  0.00     0.033 C 
HETATM    2  C   UNK N   1      25.414  26.134  -5.594  0.00  0.00     0.126 C 
HETATM    3  C   UNK N   1      26.605  26.796  -4.866  0.00  0.00    -0.017 C 
HETATM    4  C   UNK N   1      27.910  25.991  -5.142  0.00  0.00     0.008 C 
HETATM    5  C   UNK N   1      27.776  24.466  -4.822  0.00  0.00    -0.016 C 
HETATM    6  C   UNK N   1      26.560  23.884  -5.559  0.00  0.00     0.016 C 
HETATM    7  C   UNK N   1      29.136  26.620  -4.422  0.00  0.00     0.011 C 
HETATM    8  C   UNK N   1      30.218  25.606  -3.998  0.00  0.00     0.036 C 
HETATM    9  C   UNK N   1      30.247  24.388  -4.892  0.00  0.00    -0.068 C 
HETATM   10  C   UNK N   1      29.081  23.828  -5.276  0.00  0.00    -0.068 C 
HETATM   11  C   UNK N   1      31.549  23.776  -5.373  0.00  0.00    -0.013 C 
HETATM   12  C   UNK N   1      31.537  22.230  -5.201  0.00  0.00    -0.029 C 
HETATM   13  C   UNK N   1      30.162  21.614  -5.632  0.00  0.00     0.015 C 
HETATM   14  C   UNK N   1      29.131  22.620  -6.177  0.00  0.00     0.036 C 
HETATM   15  C   UNK N   1      31.726  23.950  -6.891  0.00  0.00     0.015 C 
HETATM   16  C   UNK N   1      32.348  22.646  -7.412  0.00  0.00     0.007 C 
HETATM   17  C   UNK N   1      32.681  21.844  -6.166  0.00  0.00    -0.002 C 
HETATM   18  C   UNK N   1      31.770  21.794  -3.762  0.00  0.00     0.016 C 
HETATM   19  C   UNK N   1      27.602  24.195  -3.324  0.00  0.00     0.020 C 
HETATM   20  C   UNK N   1      32.759  24.439  -4.698  0.00  0.00     0.021 C 
HETATM   21  O   UNK N   1      25.540  26.248  -6.982  0.00  0.00    -0.395 OA
HETATM   22  C   UNK N   1      26.293  26.872  -3.375  0.00  0.00     0.018 C 
HETATM   23  C   UNK N   1      26.753  28.232  -5.356  0.00  0.00     0.018 C 
HETATM   24  H   UNK N   1      25.645  26.324  -7.944  0.00  0.00     0.210 HD
ENDROOT
BRANCH  17  25
HETATM   25  C   UNK N   1      32.963  20.359  -6.472  0.00  0.00    -0.014 C 
HETATM   26  C   UNK N   1      33.641  19.481  -5.434  0.00  0.00     0.010 C 
BRANCH  25  27
HETATM   27  C   UNK N   1      33.131  19.932  -7.933  0.00  0.00     0.008 C 
BRANCH  27  28
HETATM   28  C   UNK N   1      32.010  19.063  -8.496  0.00  0.00     0.028 C 
BRANCH  28  29
HETATM   29  C   UNK N   1      30.850  19.865  -9.022  0.00  0.00    -0.025 C 
HETATM   30  C   UNK N   1      29.567  19.682  -8.676  0.00  0.00    -0.091 C 
HETATM   31  C   UNK N   1      28.527  20.569  -9.266  0.00  0.00     0.042 C 
HETATM   32  C   UNK N   1      29.151  18.634  -7.695  0.00  0.00     0.042 C 
ENDBRANCH  28  29
ENDBRANCH  27  28
ENDBRANCH  25  27
ENDBRANCH  17  25
TORSDOF 4
ENDMDL
MODEL 7
REMARK VINA RESULT:      -7.6     21.961     25.259
REMARK  4 active torsions:
REMARK  status: ('A' for Active; 'I' for Inactive)
REMARK    1  A    between atoms: C_17  and  C_18 
REMARK    2  A    between atoms: C_18  and  C_19 
REMARK    3  A    between atoms: C_19  and  C_21 
REMARK    4  A    between atoms: C_21  and  C_22 
ROOT
HETATM    1  C   UNK N   1      32.538  22.981  -4.494  0.00  0.00     0.033 C 
HETATM    2  C   UNK N   1      32.335  22.071  -5.711  0.00  0.00     0.126 C 
HETATM    3  C   UNK N   1      30.848  21.688  -5.889  0.00  0.00    -0.017 C 
HETATM    4  C   UNK N   1      29.974  22.975  -5.957  0.00  0.00     0.008 C 
HETATM    5  C   UNK N   1      30.210  23.948  -4.756  0.00  0.00    -0.016 C 
HETATM    6  C   UNK N   1      31.707  24.263  -4.626  0.00  0.00     0.016 C 
HETATM    7  C   UNK N   1      28.466  22.638  -6.131  0.00  0.00     0.011 C 
HETATM    8  C   UNK N   1      27.504  23.657  -5.489  0.00  0.00     0.036 C 
HETATM    9  C   UNK N   1      28.096  25.046  -5.426  0.00  0.00    -0.068 C 
HETATM   10  C   UNK N   1      29.386  25.192  -5.059  0.00  0.00    -0.068 C 
HETATM   11  C   UNK N   1      27.284  26.281  -5.764  0.00  0.00    -0.013 C 
HETATM   12  C   UNK N   1      27.484  27.392  -4.693  0.00  0.00    -0.029 C 
HETATM   13  C   UNK N   1      28.987  27.521  -4.270  0.00  0.00     0.015 C 
HETATM   14  C   UNK N   1      29.962  26.586  -5.012  0.00  0.00     0.036 C 
HETATM   15  C   UNK N   1      27.789  26.952  -7.051  0.00  0.00     0.015 C 
HETATM   16  C   UNK N   1      27.709  28.468  -6.816  0.00  0.00     0.007 C 
HETATM   17  C   UNK N   1      26.990  28.623  -5.487  0.00  0.00    -0.002 C 
HETATM   18  C   UNK N   1      26.701  27.128  -3.415  0.00  0.00     0.016 C 
HETATM   19  C   UNK N   1      29.726  23.363  -3.425  0.00  0.00     0.020 C 
HETATM   20  C   UNK N   1      25.805  25.932  -5.986  0.00  0.00     0.021 C 
HETATM   21  O   UNK N   1      32.836  22.705  -6.851  0.00  0.00    -0.395 OA
HETATM   22  C   UNK N   1      30.429  20.781  -4.736  0.00  0.00     0.018 C 
HETATM   23  C   UNK N   1      30.693  20.872  -7.166  0.00  0.00     0.018 C 
HETATM   24  H   UNK N   1      33.169  23.154  -7.644  0.00  0.00     0.210 HD
ENDROOT
BRANCH  17  25
HETATM   25  C   UNK N   1      27.140  30.036  -4.890  0.00  0.00    -0.014 C 
HETATM   26  C   UNK N   1      28.259  30.948  -5.362  0.00  0.00     0.010 C 
BRANCH  25  27
HETATM   27  C   UNK N   1      26.606  30.296  -3.478  0.00  0.00     0.008 C 
BRANCH  27  28
HETATM   28  C   UNK N   1      27.545  31.062  -2.551  0.00  0.00     0.028 C 
BRANCH  28  29
HETATM   29  C   UNK N   1      28.906  30.430  -2.437  0.00  0.00    -0.025 C 
HETATM   30  C   UNK N   1      29.420  29.907  -1.314  0.00  0.00    -0.091 C 
HETATM   31  C   UNK N   1      30.777  29.295  -1.359  0.00  0.00     0.042 C 
HETATM   32  C   UNK N   1      28.663  29.892  -0.025  0.00  0.00     0.042 C 
ENDBRANCH  28  29
ENDBRANCH  27  28
ENDBRANCH  25  27
ENDBRANCH  17  25
TORSDOF 4
ENDMDL
MODEL 8
REMARK VINA RESULT:      -7.6      3.097      9.444
REMARK  4 active torsions:
REMARK  status: ('A' for Active; 'I' for Inactive)
REMARK    1  A    between atoms: C_17  and  C_18 
REMARK    2  A    between atoms: C_18  and  C_19 
REMARK    3  A    between atoms: C_19  and  C_21 
REMARK    4  A    between atoms: C_21  and  C_22 
ROOT
HETATM    1  C   UNK N   1      35.250   9.809  13.601  0.00  0.00     0.033 C 
HETATM    2  C   UNK N   1      34.790  10.616  14.821  0.00  0.00     0.126 C 
HETATM    3  C   UNK N   1      35.403  12.033  14.825  0.00  0.00    -0.017 C 
HETATM    4  C   UNK N   1      35.084  12.754  13.481  0.00  0.00     0.008 C 
HETATM    5  C   UNK N   1      35.489  11.921  12.221  0.00  0.00    -0.016 C 
HETATM    6  C   UNK N   1      34.865  10.520  12.298  0.00  0.00     0.016 C 
HETATM    7  C   UNK N   1      35.688  14.186  13.438  0.00  0.00     0.011 C 
HETATM    8  C   UNK N   1      36.091  14.668  12.030  0.00  0.00     0.036 C 
HETATM    9  C   UNK N   1      35.261  14.027  10.943  0.00  0.00    -0.068 C 
HETATM   10  C   UNK N   1      34.984  12.708  11.020  0.00  0.00    -0.068 C 
HETATM   11  C   UNK N   1      34.727  14.822   9.766  0.00  0.00    -0.013 C 
HETATM   12  C   UNK N   1      34.978  14.073   8.426  0.00  0.00    -0.029 C 
HETATM   13  C   UNK N   1      34.671  12.542   8.555  0.00  0.00     0.015 C 
HETATM   14  C   UNK N   1      34.144  12.089   9.930  0.00  0.00     0.036 C 
HETATM   15  C   UNK N   1      33.195  14.935   9.812  0.00  0.00     0.015 C 
HETATM   16  C   UNK N   1      32.701  14.799   8.364  0.00  0.00     0.007 C 
HETATM   17  C   UNK N   1      33.962  14.800   7.517  0.00  0.00    -0.002 C 
HETATM   18  C   UNK N   1      36.419  14.182   7.949  0.00  0.00     0.016 C 
HETATM   19  C   UNK N   1      37.008  11.762  12.088  0.00  0.00     0.020 C 
HETATM   20  C   UNK N   1      35.287  16.252   9.760  0.00  0.00     0.021 C 
HETATM   21  O   UNK N   1      33.393  10.666  14.841  0.00  0.00    -0.395 OA
HETATM   22  C   UNK N   1      36.906  11.922  15.062  0.00  0.00     0.018 C 
HETATM   23  C   UNK N   1      34.832  12.821  15.998  0.00  0.00     0.018 C 
HETATM   24  H   UNK N   1      32.424  10.715  14.844  0.00  0.00     0.210 HD
ENDROOT
BRANCH  17  25
HETATM   25  C   UNK N   1      33.714  14.298   6.081  0.00  0.00    -0.014 C 
HETATM   26  C   UNK N   1      34.422  14.956   4.909  0.00  0.00     0.010 C 
BRANCH  25  27
HETATM   27  C   UNK N   1      32.384  13.607   5.766  0.00  0.00     0.008 C 
BRANCH  27  28
HETATM   28  C   UNK N   1      31.434  14.391   4.865  0.00  0.00     0.028 C 
BRANCH  28  29
HETATM   29  C   UNK N   1      30.426  15.202   5.635  0.00  0.00    -0.025 C 
HETATM   30  C   UNK N   1      30.525  16.516   5.884  0.00  0.00    -0.091 C 
HETATM   31  C   UNK N   1      29.435  17.189   6.643  0.00  0.00     0.042 C 
HETATM   32  C   UNK N   1      31.678  17.333   5.400  0.00  0.00     0.042 C 
ENDBRANCH  28  29
ENDBRANCH  27  28
ENDBRANCH  25  27
ENDBRANCH  17  25
TORSDOF 4
ENDMDL
MODEL 9
REMARK VINA RESULT:      -7.3     21.951     25.211
REMARK  4 active torsions:
REMARK  status: ('A' for Active; 'I' for Inactive)
REMARK    1  A    between atoms: C_17  and  C_18 
REMARK    2  A    between atoms: C_18  and  C_19 
REMARK    3  A    between atoms: C_19  and  C_21 
REMARK    4  A    between atoms: C_21  and  C_22 
ROOT
HETATM    1  C   UNK N   1      31.108  21.655  -9.832  0.00  0.00     0.033 C 
HETATM    2  C   UNK N   1      30.369  20.329  -9.621  0.00  0.00     0.126 C 
HETATM    3  C   UNK N   1      30.515  19.825  -8.168  0.00  0.00    -0.017 C 
HETATM    4  C   UNK N   1      30.048  20.929  -7.174  0.00  0.00     0.008 C 
HETATM    5  C   UNK N   1      30.746  22.309  -7.410  0.00  0.00    -0.016 C 
HETATM    6  C   UNK N   1      30.580  22.733  -8.877  0.00  0.00     0.016 C 
HETATM    7  C   UNK N   1      30.183  20.467  -5.696  0.00  0.00     0.011 C 
HETATM    8  C   UNK N   1      30.480  21.601  -4.694  0.00  0.00     0.036 C 
HETATM    9  C   UNK N   1      29.936  22.933  -5.157  0.00  0.00    -0.068 C 
HETATM   10  C   UNK N   1      30.076  23.284  -6.452  0.00  0.00    -0.068 C 
HETATM   11  C   UNK N   1      29.236  23.887  -4.208  0.00  0.00    -0.013 C 
HETATM   12  C   UNK N   1      29.764  25.339  -4.385  0.00  0.00    -0.029 C 
HETATM   13  C   UNK N   1      29.939  25.708  -5.898  0.00  0.00     0.015 C 
HETATM   14  C   UNK N   1      29.517  24.613  -6.896  0.00  0.00     0.036 C 
HETATM   15  C   UNK N   1      27.743  24.023  -4.547  0.00  0.00     0.015 C 
HETATM   16  C   UNK N   1      27.379  25.502  -4.343  0.00  0.00     0.007 C 
HETATM   17  C   UNK N   1      28.614  26.128  -3.718  0.00  0.00    -0.002 C 
HETATM   18  C   UNK N   1      31.121  25.558  -3.732  0.00  0.00     0.016 C 
HETATM   19  C   UNK N   1      32.244  22.270  -7.088  0.00  0.00     0.020 C 
HETATM   20  C   UNK N   1      29.327  23.396  -2.756  0.00  0.00     0.021 C 
HETATM   21  O   UNK N   1      29.025  20.490  -9.971  0.00  0.00    -0.395 OA
HETATM   22  C   UNK N   1      31.966  19.424  -7.927  0.00  0.00     0.018 C 
HETATM   23  C   UNK N   1      29.678  18.564  -7.992  0.00  0.00     0.018 C 
HETATM   24  H   UNK N   1      28.089  20.607 -10.198  0.00  0.00     0.210 HD
ENDROOT
BRANCH  17  25
HETATM   25  C   UNK N   1      28.597  27.668  -3.781  0.00  0.00    -0.014 C 
HETATM   26  C   UNK N   1      29.785  28.465  -3.271  0.00  0.00     0.010 C 
BRANCH  25  27
HETATM   27  C   UNK N   1      27.245  28.386  -3.770  0.00  0.00     0.008 C 
BRANCH  27  28
HETATM   28  C   UNK N   1      26.645  28.678  -5.142  0.00  0.00     0.028 C 
BRANCH  28  29
HETATM   29  C   UNK N   1      27.683  28.795  -6.227  0.00  0.00    -0.025 C 
HETATM   30  C   UNK N   1      27.740  28.025  -7.323  0.00  0.00    -0.091 C 
HETATM   31  C   UNK N   1      28.816  28.272  -8.322  0.00  0.00     0.042 C 
HETATM   32  C   UNK N   1      26.742  26.944  -7.589  0.00  0.00     0.042 C 
ENDBRANCH  28  29
ENDBRANCH  27  28
ENDBRANCH  25  27
ENDBRANCH  17  25
TORSDOF 4
ENDMDL
