MODEL 1
REMARK VINA RESULT:      -5.4      0.000      0.000
REMARK  4 active torsions:
REMARK  status: ('A' for Active; 'I' for Inactive)
REMARK    1  A    between atoms: C_2  and  N_1 
REMARK    2  A    between atoms: C_4  and  C_10 
REMARK    3  A    between atoms: C_6  and  O_7 
REMARK    4  A    between atoms: C_8  and  O_9 
ROOT
HETATM    1  C   UNK N   1      33.409  14.881   9.732  0.00  0.00     0.129 A 
HETATM    2  C   UNK N   1      33.585  16.094   8.875  0.00  0.00     0.014 A 
HETATM    3  C   UNK N   1      34.509  17.043   9.136  0.00  0.00     0.019 A 
HETATM    4  C   UNK N   1      35.465  16.970  10.327  0.00  0.00     0.079 A 
HETATM    5  C   UNK N   1      35.313  15.744  11.230  0.00  0.00     0.153 A 
HETATM    6  C   UNK N   1      34.291  14.678  10.932  0.00  0.00     0.173 A 
ENDROOT
BRANCH   1   7
HETATM    7  N   UNK N   1      32.398  13.899   9.388  0.00  0.00    -0.421 N 
HETATM    8  H   UNK N   1      32.625  13.132   8.755  0.00  0.00     0.150 HD
HETATM    9  H   UNK N   1      31.458  13.976   9.780  0.00  0.00     0.150 HD
ENDBRANCH   1   7
BRANCH   6  10
HETATM   10  O   UNK N   1      34.148  13.561  11.756  0.00  0.00    -0.391 OA
HETATM   11  H   UNK N   1      33.647  12.790  11.445  0.00  0.00     0.210 HD
ENDBRANCH   6  10
BRANCH   3  12
HETATM   12  C   UNK N   1      34.604  18.209   8.229  0.00  0.00     0.205 C 
HETATM   13  O   UNK N   1      35.343  19.284   8.576  0.00  0.00    -0.644 OA
HETATM   14  O   UNK N   1      34.013  18.208   7.161  0.00  0.00    -0.644 OA
ENDBRANCH   3  12
BRANCH   5  15
HETATM   15  O   UNK N   1      36.152  15.602  12.334  0.00  0.00    -0.393 OA
HETATM   16  H   UNK N   1      36.700  14.806  12.428  0.00  0.00     0.210 HD
ENDBRANCH   5  15
TORSDOF 4
ENDMDL
MODEL 2
REMARK VINA RESULT:      -5.4      1.694      2.540
REMARK  4 active torsions:
REMARK  status: ('A' for Active; 'I' for Inactive)
REMARK    1  A    between atoms: C_2  and  N_1 
REMARK    2  A    between atoms: C_4  and  C_10 
REMARK    3  A    between atoms: C_6  and  O_7 
REMARK    4  A    between atoms: C_8  and  O_9 
ROOT
HETATM    1  C   UNK N   1      35.283  15.785  11.099  0.00  0.00     0.129 A 
HETATM    2  C   UNK N   1      35.355  16.935  10.146  0.00  0.00     0.014 A 
HETATM    3  C   UNK N   1      34.495  17.080   9.114  0.00  0.00     0.019 A 
HETATM    4  C   UNK N   1      33.367  16.090   8.824  0.00  0.00     0.079 A 
HETATM    5  C   UNK N   1      33.263  14.897   9.777  0.00  0.00     0.153 A 
HETATM    6  C   UNK N   1      34.214  14.740  10.935  0.00  0.00     0.173 A 
ENDROOT
BRANCH   1   7
HETATM    7  N   UNK N   1      36.238  15.694  12.188  0.00  0.00    -0.421 N 
HETATM    8  H   UNK N   1      37.180  16.067  12.073  0.00  0.00     0.150 HD
HETATM    9  H   UNK N   1      35.967  15.257  13.069  0.00  0.00     0.150 HD
ENDBRANCH   1   7
BRANCH   6  10
HETATM   10  O   UNK N   1      34.125  13.652  11.803  0.00  0.00    -0.391 OA
HETATM   11  H   UNK N   1      34.931  13.200  12.100  0.00  0.00     0.210 HD
ENDBRANCH   6  10
BRANCH   3  12
HETATM   12  C   UNK N   1      34.650  18.252   8.223  0.00  0.00     0.205 C 
HETATM   13  O   UNK N   1      35.372  19.320   8.621  0.00  0.00    -0.644 OA
HETATM   14  O   UNK N   1      34.125  18.262   7.121  0.00  0.00    -0.644 OA
ENDBRANCH   3  12
BRANCH   5  15
HETATM   15  O   UNK N   1      32.257  13.953   9.581  0.00  0.00    -0.393 OA
HETATM   16  H   UNK N   1      32.464  13.104   9.159  0.00  0.00     0.210 HD
ENDBRANCH   5  15
TORSDOF 4
ENDMDL
MODEL 3
REMARK VINA RESULT:      -5.2     14.630     16.070
REMARK  4 active torsions:
REMARK  status: ('A' for Active; 'I' for Inactive)
REMARK    1  A    between atoms: C_2  and  N_1 
REMARK    2  A    between atoms: C_4  and  C_10 
REMARK    3  A    between atoms: C_6  and  O_7 
REMARK    4  A    between atoms: C_8  and  O_9 
ROOT
HETATM    1  C   UNK N   1      20.363  18.257   1.363  0.00  0.00     0.129 A 
HETATM    2  C   UNK N   1      20.440  17.538   2.672  0.00  0.00     0.014 A 
HETATM    3  C   UNK N   1      20.814  18.149   3.817  0.00  0.00     0.019 A 
HETATM    4  C   UNK N   1      21.191  19.629   3.888  0.00  0.00     0.079 A 
HETATM    5  C   UNK N   1      21.127  20.398   2.566  0.00  0.00     0.153 A 
HETATM    6  C   UNK N   1      20.698  19.721   1.290  0.00  0.00     0.173 A 
ENDROOT
BRANCH   1   7
HETATM    7  N   UNK N   1      19.949  17.538   0.173  0.00  0.00    -0.421 N 
HETATM    8  H   UNK N   1      20.566  16.840  -0.243  0.00  0.00     0.150 HD
HETATM    9  H   UNK N   1      19.040  17.730  -0.249  0.00  0.00     0.150 HD
ENDBRANCH   1   7
BRANCH   6  10
HETATM   10  O   UNK N   1      20.643  20.418   0.083  0.00  0.00    -0.391 OA
HETATM   11  H   UNK N   1      21.405  20.942  -0.210  0.00  0.00     0.210 HD
ENDBRANCH   6  10
BRANCH   3  12
HETATM   12  C   UNK N   1      20.862  17.351   5.063  0.00  0.00     0.205 C 
HETATM   13  O   UNK N   1      21.380  17.879   6.191  0.00  0.00    -0.644 OA
HETATM   14  O   UNK N   1      20.432  16.208   5.079  0.00  0.00    -0.644 OA
ENDBRANCH   3  12
BRANCH   5  15
HETATM   15  O   UNK N   1      21.451  21.753   2.550  0.00  0.00    -0.393 OA
HETATM   16  H   UNK N   1      21.395  22.255   1.721  0.00  0.00     0.210 HD
ENDBRANCH   5  15
TORSDOF 4
ENDMDL
MODEL 4
REMARK VINA RESULT:      -5.2     11.524     12.656
REMARK  4 active torsions:
REMARK  status: ('A' for Active; 'I' for Inactive)
REMARK    1  A    between atoms: C_2  and  N_1 
REMARK    2  A    between atoms: C_4  and  C_10 
REMARK    3  A    between atoms: C_6  and  O_7 
REMARK    4  A    between atoms: C_8  and  O_9 
ROOT
HETATM    1  C   UNK N   1      22.754  12.183  11.462  0.00  0.00     0.129 A 
HETATM    2  C   UNK N   1      21.533  12.733  10.795  0.00  0.00     0.014 A 
HETATM    3  C   UNK N   1      21.584  13.415   9.630  0.00  0.00     0.019 A 
HETATM    4  C   UNK N   1      22.888  13.687   8.880  0.00  0.00     0.079 A 
HETATM    5  C   UNK N   1      24.160  13.142   9.533  0.00  0.00     0.153 A 
HETATM    6  C   UNK N   1      24.103  12.370  10.827  0.00  0.00     0.173 A 
ENDROOT
BRANCH   1   7
HETATM    7  N   UNK N   1      22.624  11.457  12.711  0.00  0.00    -0.421 N 
HETATM    8  H   UNK N   1      22.898  11.899  13.589  0.00  0.00     0.150 HD
HETATM    9  H   UNK N   1      22.257  10.505  12.712  0.00  0.00     0.150 HD
ENDBRANCH   1   7
BRANCH   6  10
HETATM   10  O   UNK N   1      25.262  11.875  11.426  0.00  0.00    -0.391 OA
HETATM   11  H   UNK N   1      25.626  11.021  11.145  0.00  0.00     0.210 HD
ENDBRANCH   6  10
BRANCH   3  12
HETATM   12  C   UNK N   1      20.320  13.923   9.050  0.00  0.00     0.205 C 
HETATM   13  O   UNK N   1      19.290  14.261   9.853  0.00  0.00    -0.644 OA
HETATM   14  O   UNK N   1      20.200  14.039   7.841  0.00  0.00    -0.644 OA
ENDBRANCH   3  12
BRANCH   5  15
HETATM   15  O   UNK N   1      25.389  13.344   8.907  0.00  0.00    -0.393 OA
HETATM   16  H   UNK N   1      25.848  12.599   8.488  0.00  0.00     0.210 HD
ENDBRANCH   5  15
TORSDOF 4
ENDMDL
MODEL 5
REMARK VINA RESULT:      -5.0      2.260      3.647
REMARK  4 active torsions:
REMARK  status: ('A' for Active; 'I' for Inactive)
REMARK    1  A    between atoms: C_2  and  N_1 
REMARK    2  A    between atoms: C_4  and  C_10 
REMARK    3  A    between atoms: C_6  and  O_7 
REMARK    4  A    between atoms: C_8  and  O_9 
ROOT
HETATM    1  C   UNK N   1      33.244  15.952   9.277  0.00  0.00     0.129 A 
HETATM    2  C   UNK N   1      32.461  15.854   8.006  0.00  0.00     0.014 A 
HETATM    3  C   UNK N   1      32.603  16.737   6.993  0.00  0.00     0.019 A 
HETATM    4  C   UNK N   1      33.574  17.916   7.046  0.00  0.00     0.079 A 
HETATM    5  C   UNK N   1      34.391  18.051   8.333  0.00  0.00     0.153 A 
HETATM    6  C   UNK N   1      34.243  17.059   9.458  0.00  0.00     0.173 A 
ENDROOT
BRANCH   1   7
HETATM    7  N   UNK N   1      33.043  14.964  10.321  0.00  0.00    -0.421 N 
HETATM    8  H   UNK N   1      33.790  14.767  10.987  0.00  0.00     0.150 HD
HETATM    9  H   UNK N   1      32.154  14.468  10.389  0.00  0.00     0.150 HD
ENDBRANCH   1   7
BRANCH   6  10
HETATM   10  O   UNK N   1      34.984  17.182  10.634  0.00  0.00    -0.391 OA
HETATM   11  H   UNK N   1      34.738  16.667  11.418  0.00  0.00     0.210 HD
ENDBRANCH   6  10
BRANCH   3  12
HETATM   12  C   UNK N   1      31.780  16.556   5.776  0.00  0.00     0.205 C 
HETATM   13  O   UNK N   1      31.900  17.412   4.740  0.00  0.00    -0.644 OA
HETATM   14  O   UNK N   1      30.986  15.632   5.700  0.00  0.00    -0.644 OA
ENDBRANCH   3  12
BRANCH   5  15
HETATM   15  O   UNK N   1      35.303  19.098   8.455  0.00  0.00    -0.393 OA
HETATM   16  H   UNK N   1      36.245  18.907   8.586  0.00  0.00     0.210 HD
ENDBRANCH   5  15
TORSDOF 4
ENDMDL
MODEL 6
REMARK VINA RESULT:      -4.9     11.055     13.146
REMARK  4 active torsions:
REMARK  status: ('A' for Active; 'I' for Inactive)
REMARK    1  A    between atoms: C_2  and  N_1 
REMARK    2  A    between atoms: C_4  and  C_10 
REMARK    3  A    between atoms: C_6  and  O_7 
REMARK    4  A    between atoms: C_8  and  O_9 
ROOT
HETATM    1  C   UNK N   1      44.473  22.245   3.591  0.00  0.00     0.129 A 
HETATM    2  C   UNK N   1      43.612  21.030   3.725  0.00  0.00     0.014 A 
HETATM    3  C   UNK N   1      42.394  20.932   3.149  0.00  0.00     0.019 A 
HETATM    4  C   UNK N   1      41.781  22.048   2.303  0.00  0.00     0.079 A 
HETATM    5  C   UNK N   1      42.631  23.310   2.146  0.00  0.00     0.153 A 
HETATM    6  C   UNK N   1      43.995  23.416   2.778  0.00  0.00     0.173 A 
ENDROOT
BRANCH   1   7
HETATM    7  N   UNK N   1      45.773  22.279   4.235  0.00  0.00    -0.421 N 
HETATM    8  H   UNK N   1      46.372  21.454   4.219  0.00  0.00     0.150 HD
HETATM    9  H   UNK N   1      46.088  23.129   4.704  0.00  0.00     0.150 HD
ENDBRANCH   1   7
BRANCH   6  10
HETATM   10  O   UNK N   1      44.771  24.567   2.639  0.00  0.00    -0.391 OA
HETATM   11  H   UNK N   1      45.493  24.744   3.263  0.00  0.00     0.210 HD
ENDBRANCH   6  10
BRANCH   3  12
HETATM   12  C   UNK N   1      41.617  19.688   3.343  0.00  0.00     0.205 C 
HETATM   13  O   UNK N   1      42.122  18.500   2.948  0.00  0.00    -0.644 OA
HETATM   14  O   UNK N   1      40.512  19.726   3.861  0.00  0.00    -0.644 OA
ENDBRANCH   3  12
BRANCH   5  15
HETATM   15  O   UNK N   1      42.143  24.371   1.384  0.00  0.00    -0.393 OA
HETATM   16  H   UNK N   1      41.342  24.840   1.664  0.00  0.00     0.210 HD
ENDBRANCH   5  15
TORSDOF 4
ENDMDL
MODEL 7
REMARK VINA RESULT:      -4.8     13.762     15.177
REMARK  4 active torsions:
REMARK  status: ('A' for Active; 'I' for Inactive)
REMARK    1  A    between atoms: C_2  and  N_1 
REMARK    2  A    between atoms: C_4  and  C_10 
REMARK    3  A    between atoms: C_6  and  O_7 
REMARK    4  A    between atoms: C_8  and  O_9 
ROOT
HETATM    1  C   UNK N   1      21.217  17.365   4.389  0.00  0.00     0.129 A 
HETATM    2  C   UNK N   1      22.241  18.407   4.068  0.00  0.00     0.014 A 
HETATM    3  C   UNK N   1      21.985  19.455   3.256  0.00  0.00     0.019 A 
HETATM    4  C   UNK N   1      20.627  19.681   2.591  0.00  0.00     0.079 A 
HETATM    5  C   UNK N   1      19.553  18.634   2.893  0.00  0.00     0.153 A 
HETATM    6  C   UNK N   1      19.834  17.470   3.808  0.00  0.00     0.173 A 
ENDROOT
BRANCH   1   7
HETATM    7  N   UNK N   1      21.562  16.267   5.272  0.00  0.00    -0.421 N 
HETATM    8  H   UNK N   1      20.828  15.763   5.770  0.00  0.00     0.150 HD
HETATM    9  H   UNK N   1      22.539  16.000   5.396  0.00  0.00     0.150 HD
ENDBRANCH   1   7
BRANCH   6  10
HETATM   10  O   UNK N   1      18.858  16.512   4.083  0.00  0.00    -0.391 OA
HETATM   11  H   UNK N   1      19.078  15.568   4.036  0.00  0.00     0.210 HD
ENDBRANCH   6  10
BRANCH   3  12
HETATM   12  C   UNK N   1      23.066  20.432   2.997  0.00  0.00     0.205 C 
HETATM   13  O   UNK N   1      24.353  20.029   2.956  0.00  0.00    -0.644 OA
HETATM   14  O   UNK N   1      22.802  21.611   2.819  0.00  0.00    -0.644 OA
ENDBRANCH   3  12
BRANCH   5  15
HETATM   15  O   UNK N   1      18.286  18.773   2.328  0.00  0.00    -0.393 OA
HETATM   16  H   UNK N   1      17.788  17.987   2.056  0.00  0.00     0.210 HD
ENDBRANCH   5  15
TORSDOF 4
ENDMDL
MODEL 8
REMARK VINA RESULT:      -4.8      3.055      5.142
REMARK  4 active torsions:
REMARK  status: ('A' for Active; 'I' for Inactive)
REMARK    1  A    between atoms: C_2  and  N_1 
REMARK    2  A    between atoms: C_4  and  C_10 
REMARK    3  A    between atoms: C_6  and  O_7 
REMARK    4  A    between atoms: C_8  and  O_9 
ROOT
HETATM    1  C   UNK N   1      31.022  17.304   7.349  0.00  0.00     0.129 A 
HETATM    2  C   UNK N   1      32.209  17.663   8.185  0.00  0.00     0.014 A 
HETATM    3  C   UNK N   1      33.448  17.806   7.667  0.00  0.00     0.019 A 
HETATM    4  C   UNK N   1      33.758  17.619   6.182  0.00  0.00     0.079 A 
HETATM    5  C   UNK N   1      32.568  17.248   5.294  0.00  0.00     0.153 A 
HETATM    6  C   UNK N   1      31.183  17.100   5.868  0.00  0.00     0.173 A 
ENDROOT
BRANCH   1   7
HETATM    7  N   UNK N   1      29.719  17.171   7.972  0.00  0.00    -0.421 N 
HETATM    8  H   UNK N   1      29.576  17.490   8.930  0.00  0.00     0.150 HD
HETATM    9  H   UNK N   1      28.944  16.759   7.451  0.00  0.00     0.150 HD
ENDBRANCH   1   7
BRANCH   6  10
HETATM   10  O   UNK N   1      30.097  16.759   5.061  0.00  0.00    -0.391 OA
HETATM   11  H   UNK N   1      29.446  16.109   5.372  0.00  0.00     0.210 HD
ENDBRANCH   6  10
BRANCH   3  12
HETATM   12  C   UNK N   1      34.560  18.160   8.579  0.00  0.00     0.205 C 
HETATM   13  O   UNK N   1      34.832  17.390   9.653  0.00  0.00    -0.644 OA
HETATM   14  O   UNK N   1      35.239  19.151   8.365  0.00  0.00    -0.644 OA
ENDBRANCH   3  12
BRANCH   5  15
HETATM   15  O   UNK N   1      32.768  17.066   3.927  0.00  0.00    -0.393 OA
HETATM   16  H   UNK N   1      32.173  17.490   3.289  0.00  0.00     0.210 HD
ENDBRANCH   5  15
TORSDOF 4
ENDMDL
MODEL 9
REMARK VINA RESULT:      -4.8     14.698     16.395
REMARK  4 active torsions:
REMARK  status: ('A' for Active; 'I' for Inactive)
REMARK    1  A    between atoms: C_2  and  N_1 
REMARK    2  A    between atoms: C_4  and  C_10 
REMARK    3  A    between atoms: C_6  and  O_7 
REMARK    4  A    between atoms: C_8  and  O_9 
ROOT
HETATM    1  C   UNK N   1      20.824  20.095   2.482  0.00  0.00     0.129 A 
HETATM    2  C   UNK N   1      20.820  19.212   3.689  0.00  0.00     0.014 A 
HETATM    3  C   UNK N   1      20.627  17.877   3.615  0.00  0.00     0.019 A 
HETATM    4  C   UNK N   1      20.398  17.141   2.294  0.00  0.00     0.079 A 
HETATM    5  C   UNK N   1      20.392  18.012   1.037  0.00  0.00     0.153 A 
HETATM    6  C   UNK N   1      20.619  19.500   1.117  0.00  0.00     0.173 A 
ENDROOT
BRANCH   1   7
HETATM    7  N   UNK N   1      21.042  21.521   2.637  0.00  0.00    -0.421 N 
HETATM    8  H   UNK N   1      20.703  22.002   3.471  0.00  0.00     0.150 HD
HETATM    9  H   UNK N   1      21.534  22.044   1.912  0.00  0.00     0.150 HD
ENDBRANCH   1   7
BRANCH   6  10
HETATM   10  O   UNK N   1      20.610  20.297  -0.027  0.00  0.00    -0.391 OA
HETATM   11  H   UNK N   1      19.943  20.150  -0.717  0.00  0.00     0.210 HD
ENDBRANCH   6  10
BRANCH   3  12
HETATM   12  C   UNK N   1      20.638  17.089   4.867  0.00  0.00     0.205 C 
HETATM   13  O   UNK N   1      21.522  17.377   5.846  0.00  0.00    -0.644 OA
HETATM   14  O   UNK N   1      19.849  16.172   5.025  0.00  0.00    -0.644 OA
ENDBRANCH   3  12
BRANCH   5  15
HETATM   15  O   UNK N   1      20.194  17.414  -0.207  0.00  0.00    -0.393 OA
HETATM   16  H   UNK N   1      20.586  16.547  -0.395  0.00  0.00     0.210 HD
ENDBRANCH   5  15
TORSDOF 4
ENDMDL
