MODEL 1
REMARK VINA RESULT:      -8.7      0.000      0.000
REMARK  17 active torsions:
REMARK  status: ('A' for Active; 'I' for Inactive)
REMARK    1  A    between atoms: C_12  and  C_6 
REMARK    2  A    between atoms: O_41  and  C_6 
REMARK    3  A    between atoms: C_13  and  C_7 
REMARK    4  A    between atoms: O_42  and  C_7 
REMARK    5  A    between atoms: C_11  and  C_10 
REMARK    6  A    between atoms: C_15  and  O_33 
REMARK    7  A    between atoms: C_16  and  O_34 
REMARK    8  A    between atoms: C_17  and  O_35 
REMARK    9  A    between atoms: C_18  and  O_36 
REMARK   10  A    between atoms: N_23  and  C_19 
REMARK   11  A    between atoms: C_21  and  N_30 
REMARK   12  A    between atoms: C_22  and  N_31 
REMARK   13  A    between atoms: P_46  and  O_38 
REMARK   14  A    between atoms: P_46  and  O_41 
REMARK   15  A    between atoms: P_47  and  O_42 
REMARK   16  A    between atoms: P_46  and  O_45 
REMARK   17  A    between atoms: P_47  and  O_45 
ROOT
HETATM    1  O   UNK N   1      35.712  15.443   6.075  0.00  0.00    -0.624 OA
HETATM    2  O   UNK N   1      33.470  15.194   7.412  0.00  0.00    -0.624 OA
HETATM    3  P   UNK N   1      34.256  15.981   6.075  0.00  0.00     0.417 P 
ENDROOT
BRANCH   3   4
HETATM    4  O   UNK N   1      33.540  15.556   4.532  0.00  0.00    -0.287 OA
BRANCH   4   5
HETATM    5  C   UNK N   1      32.434  16.397   4.381  0.00  0.00     0.216 C 
BRANCH   5   6
HETATM    6  C   UNK N   1      31.403  16.118   5.471  0.00  0.00     0.180 C 
HETATM    7  C   UNK N   1      30.299  15.142   5.079  0.00  0.00     0.182 C 
HETATM    8  C   UNK N   1      29.119  15.613   5.943  0.00  0.00     0.198 C 
HETATM    9  C   UNK N   1      29.753  16.778   6.723  0.00  0.00     0.262 C 
HETATM   10  O   UNK N   1      30.731  17.294   5.851  0.00  0.00    -0.353 OA
BRANCH   7  11
HETATM   11  O   UNK N   1      30.669  13.818   5.327  0.00  0.00    -0.390 OA
HETATM   12  H   UNK N   1      30.682  13.251   6.114  0.00  0.00     0.210 HD
ENDBRANCH   7  11
BRANCH   8  13
HETATM   13  O   UNK N   1      28.133  16.091   5.075  0.00  0.00    -0.388 OA
HETATM   14  H   UNK N   1      27.257  15.914   4.699  0.00  0.00     0.210 HD
ENDBRANCH   8  13
BRANCH   9  15
HETATM   15  N   UNK N   1      28.867  17.840   7.217  0.00  0.00    -0.297 N 
HETATM   16  C   UNK N   1      28.446  17.921   8.509  0.00  0.00     0.188 A 
HETATM   17  N   UNK N   1      27.602  18.971   8.698  0.00  0.00    -0.346 N 
HETATM   18  C   UNK N   1      27.492  19.531   7.480  0.00  0.00     0.122 A 
ATOM     19  HN  UNK N   1      27.154  19.266   9.565  1.00  0.00     0.167 HD
HETATM   20  C   UNK N   1      26.733  20.614   7.075  0.00  0.00     0.131 A 
HETATM   21  C   UNK N   1      28.249  18.856   6.592  0.00  0.00     0.142 A 
HETATM   22  N   UNK N   1      26.776  20.966   5.756  0.00  0.00    -0.337 N 
HETATM   23  C   UNK N   1      27.544  20.261   4.862  0.00  0.00     0.183 A 
ATOM     24  HN  UNK N   1      26.227  21.763   5.430  1.00  0.00     0.168 HD
HETATM   25  N   UNK N   1      28.288  19.190   5.279  0.00  0.00    -0.336 N 
ATOM     26  HN  UNK N   1      28.855  18.657   4.619  1.00  0.00     0.168 HD
BRANCH  20  27
HETATM   27  N   UNK N   1      25.930  21.328   7.986  0.00  0.00    -0.383 N 
HETATM   28  H   UNK N   1      24.961  21.160   8.030  0.00  0.00     0.157 HD
HETATM   29  H   UNK N   1      26.338  21.997   8.581  0.00  0.00     0.157 HD
ENDBRANCH  20  27
ENDBRANCH   9  15
ENDBRANCH   5   6
ENDBRANCH   4   5
ENDBRANCH   3   4
BRANCH   3  30
HETATM   30  O   UNK N   1      34.340  17.693   6.370  0.00  0.00    -0.188 OA
BRANCH  30  31
HETATM   31  P   UNK N   1      34.231  17.932   8.091  0.00  0.00     0.402 P 
HETATM   32  O   UNK N   1      34.543  19.429   8.353  0.00  0.00    -0.631 OA
BRANCH  31  33
HETATM   33  O   UNK N   1      32.599  17.689   8.635  0.00  0.00    -0.307 OA
HETATM   34  H   UNK N   1      32.160  16.837   8.488  0.00  0.00     0.222 HD
ENDBRANCH  31  33
BRANCH  31  35
HETATM   35  O   UNK N   1      35.380  17.017   9.034  0.00  0.00    -0.294 OA
BRANCH  35  36
HETATM   36  C   UNK N   1      34.703  16.607  10.185  0.00  0.00     0.215 C 
BRANCH  36  37
HETATM   37  C   UNK N   1      35.561  15.646  11.012  0.00  0.00     0.180 C 
HETATM   38  C   UNK N   1      36.545  14.788  10.208  0.00  0.00     0.182 C 
HETATM   39  C   UNK N   1      36.689  13.551  11.087  0.00  0.00     0.198 C 
HETATM   40  C   UNK N   1      35.761  13.853  12.265  0.00  0.00     0.259 C 
HETATM   41  O   UNK N   1      34.784  14.748  11.771  0.00  0.00    -0.353 OA
BRANCH  38  42
HETATM   42  O   UNK N   1      35.983  14.384   8.993  0.00  0.00    -0.390 OA
HETATM   43  H   UNK N   1      35.363  14.493   8.256  0.00  0.00     0.210 HD
ENDBRANCH  38  42
BRANCH  39  44
HETATM   44  O   UNK N   1      38.005  13.353  11.515  0.00  0.00    -0.388 OA
HETATM   45  H   UNK N   1      38.226  13.235  12.452  0.00  0.00     0.210 HD
ENDBRANCH  39  44
BRANCH  40  46
HETATM   46  N   UNK N   1      35.169  12.648  12.866  0.00  0.00    -0.336 N 
HETATM   47  C   UNK N   1      34.792  12.670  14.179  0.00  0.00     0.093 A 
HETATM   48  C   UNK N   1      34.164  11.566  14.758  0.00  0.00     0.018 A 
HETATM   49  C   UNK N   1      33.885  10.449  13.974  0.00  0.00     0.018 A 
HETATM   50  C   UNK N   1      34.257  10.432  12.626  0.00  0.00     0.025 A 
HETATM   51  C   UNK N   1      34.916  11.549  12.094  0.00  0.00     0.108 A 
BRANCH  50  52
HETATM   52  C   UNK N   1      33.917   9.280  11.761  0.00  0.00     0.157 C 
HETATM   53  C   UNK N   1      32.955   9.432  10.628  0.00  0.00     0.097 C 
HETATM   54  O   UNK N   1      34.449   8.196  11.946  0.00  0.00    -0.293 OA
ENDBRANCH  50  52
ENDBRANCH  40  46
ENDBRANCH  36  37
ENDBRANCH  35  36
ENDBRANCH  31  35
ENDBRANCH  30  31
ENDBRANCH   3  30
TORSDOF 17
ENDMDL
MODEL 2
REMARK VINA RESULT:      -8.4      1.969      2.761
REMARK  17 active torsions:
REMARK  status: ('A' for Active; 'I' for Inactive)
REMARK    1  A    between atoms: C_12  and  C_6 
REMARK    2  A    between atoms: O_41  and  C_6 
REMARK    3  A    between atoms: C_13  and  C_7 
REMARK    4  A    between atoms: O_42  and  C_7 
REMARK    5  A    between atoms: C_11  and  C_10 
REMARK    6  A    between atoms: C_15  and  O_33 
REMARK    7  A    between atoms: C_16  and  O_34 
REMARK    8  A    between atoms: C_17  and  O_35 
REMARK    9  A    between atoms: C_18  and  O_36 
REMARK   10  A    between atoms: N_23  and  C_19 
REMARK   11  A    between atoms: C_21  and  N_30 
REMARK   12  A    between atoms: C_22  and  N_31 
REMARK   13  A    between atoms: P_46  and  O_38 
REMARK   14  A    between atoms: P_46  and  O_41 
REMARK   15  A    between atoms: P_47  and  O_42 
REMARK   16  A    between atoms: P_46  and  O_45 
REMARK   17  A    between atoms: P_47  and  O_45 
ROOT
HETATM    1  O   UNK N   1      35.304  15.438   5.682  0.00  0.00    -0.624 OA
HETATM    2  O   UNK N   1      33.491  15.375   7.574  0.00  0.00    -0.624 OA
HETATM    3  P   UNK N   1      34.025  16.191   6.133  0.00  0.00     0.417 P 
ENDROOT
BRANCH   3   4
HETATM    4  O   UNK N   1      32.860  16.076   4.828  0.00  0.00    -0.287 OA
BRANCH   4   5
HETATM    5  C   UNK N   1      31.898  17.056   5.088  0.00  0.00     0.216 C 
BRANCH   5   6
HETATM    6  C   UNK N   1      30.654  16.427   5.707  0.00  0.00     0.180 C 
HETATM    7  C   UNK N   1      30.381  14.988   5.282  0.00  0.00     0.182 C 
HETATM    8  C   UNK N   1      28.850  14.898   5.387  0.00  0.00     0.198 C 
HETATM    9  C   UNK N   1      28.491  16.306   5.893  0.00  0.00     0.262 C 
HETATM   10  O   UNK N   1      29.493  17.137   5.355  0.00  0.00    -0.353 OA
BRANCH   7  11
HETATM   11  O   UNK N   1      31.044  14.072   6.101  0.00  0.00    -0.390 OA
HETATM   12  H   UNK N   1      30.763  13.434   6.776  0.00  0.00     0.210 HD
ENDBRANCH   7  11
BRANCH   8  13
HETATM   13  O   UNK N   1      28.354  14.705   4.094  0.00  0.00    -0.388 OA
HETATM   14  H   UNK N   1      28.061  15.152   3.285  0.00  0.00     0.210 HD
ENDBRANCH   8  13
BRANCH   9  15
HETATM   15  N   UNK N   1      27.151  16.825   5.593  0.00  0.00    -0.297 N 
HETATM   16  C   UNK N   1      26.004  16.179   5.942  0.00  0.00     0.188 A 
HETATM   17  N   UNK N   1      24.900  16.848   5.512  0.00  0.00    -0.346 N 
HETATM   18  C   UNK N   1      25.392  17.919   4.866  0.00  0.00     0.122 A 
ATOM     19  HN  UNK N   1      23.922  16.594   5.649  1.00  0.00     0.167 HD
HETATM   20  C   UNK N   1      24.722  18.929   4.198  0.00  0.00     0.131 A 
HETATM   21  C   UNK N   1      26.739  17.908   4.914  0.00  0.00     0.142 A 
HETATM   22  N   UNK N   1      25.468  19.898   3.590  0.00  0.00    -0.337 N 
HETATM   23  C   UNK N   1      26.841  19.865   3.639  0.00  0.00     0.183 A 
ATOM     24  HN  UNK N   1      24.999  20.655   3.092  1.00  0.00     0.168 HD
HETATM   25  N   UNK N   1      27.489  18.858   4.303  0.00  0.00    -0.336 N 
ATOM     26  HN  UNK N   1      28.508  18.824   4.337  1.00  0.00     0.168 HD
BRANCH  20  27
HETATM   27  N   UNK N   1      23.314  18.954   4.131  0.00  0.00    -0.383 N 
HETATM   28  H   UNK N   1      22.823  18.196   3.740  0.00  0.00     0.157 HD
HETATM   29  H   UNK N   1      22.820  19.732   4.476  0.00  0.00     0.157 HD
ENDBRANCH  20  27
ENDBRANCH   9  15
ENDBRANCH   5   6
ENDBRANCH   4   5
ENDBRANCH   3   4
BRANCH   3  30
HETATM   30  O   UNK N   1      34.496  17.820   6.523  0.00  0.00    -0.188 OA
BRANCH  30  31
HETATM   31  P   UNK N   1      34.444  17.977   8.256  0.00  0.00     0.402 P 
HETATM   32  O   UNK N   1      34.866  19.435   8.582  0.00  0.00    -0.631 OA
BRANCH  31  33
HETATM   33  O   UNK N   1      32.813  17.819   8.831  0.00  0.00    -0.307 OA
HETATM   34  H   UNK N   1      32.451  18.473   9.449  0.00  0.00     0.222 HD
ENDBRANCH  31  33
BRANCH  31  35
HETATM   35  O   UNK N   1      35.548  16.940   9.121  0.00  0.00    -0.294 OA
BRANCH  35  36
HETATM   36  C   UNK N   1      34.960  16.690  10.363  0.00  0.00     0.215 C 
BRANCH  36  37
HETATM   37  C   UNK N   1      35.816  15.729  11.192  0.00  0.00     0.180 C 
HETATM   38  C   UNK N   1      36.490  14.603  10.401  0.00  0.00     0.182 C 
HETATM   39  C   UNK N   1      36.624  13.506  11.450  0.00  0.00     0.198 C 
HETATM   40  C   UNK N   1      35.997  14.138  12.694  0.00  0.00     0.259 C 
HETATM   41  O   UNK N   1      35.081  15.104  12.219  0.00  0.00    -0.353 OA
BRANCH  38  42
HETATM   42  O   UNK N   1      35.651  14.126   9.390  0.00  0.00    -0.390 OA
HETATM   43  H   UNK N   1      34.778  14.007   8.983  0.00  0.00     0.210 HD
ENDBRANCH  38  42
BRANCH  39  44
HETATM   44  O   UNK N   1      37.956  13.148  11.679  0.00  0.00    -0.388 OA
HETATM   45  H   UNK N   1      38.345  12.348  11.292  0.00  0.00     0.210 HD
ENDBRANCH  39  44
BRANCH  40  46
HETATM   46  N   UNK N   1      35.367  13.158  13.592  0.00  0.00    -0.336 N 
HETATM   47  C   UNK N   1      34.785  12.040  13.065  0.00  0.00     0.093 A 
HETATM   48  C   UNK N   1      34.243  11.059  13.896  0.00  0.00     0.018 A 
HETATM   49  C   UNK N   1      34.335  11.207  15.278  0.00  0.00     0.018 A 
HETATM   50  C   UNK N   1      34.943  12.344  15.820  0.00  0.00     0.025 A 
HETATM   51  C   UNK N   1      35.445  13.320  14.948  0.00  0.00     0.108 A 
BRANCH  50  52
HETATM   52  C   UNK N   1      35.104  12.492  17.283  0.00  0.00     0.157 C 
HETATM   53  C   UNK N   1      35.246  11.292  18.163  0.00  0.00     0.097 C 
HETATM   54  O   UNK N   1      35.158  13.604  17.785  0.00  0.00    -0.293 OA
ENDBRANCH  50  52
ENDBRANCH  40  46
ENDBRANCH  36  37
ENDBRANCH  35  36
ENDBRANCH  31  35
ENDBRANCH  30  31
ENDBRANCH   3  30
TORSDOF 17
ENDMDL
MODEL 3
REMARK VINA RESULT:      -8.4      2.846      4.489
REMARK  17 active torsions:
REMARK  status: ('A' for Active; 'I' for Inactive)
REMARK    1  A    between atoms: C_12  and  C_6 
REMARK    2  A    between atoms: O_41  and  C_6 
REMARK    3  A    between atoms: C_13  and  C_7 
REMARK    4  A    between atoms: O_42  and  C_7 
REMARK    5  A    between atoms: C_11  and  C_10 
REMARK    6  A    between atoms: C_15  and  O_33 
REMARK    7  A    between atoms: C_16  and  O_34 
REMARK    8  A    between atoms: C_17  and  O_35 
REMARK    9  A    between atoms: C_18  and  O_36 
REMARK   10  A    between atoms: N_23  and  C_19 
REMARK   11  A    between atoms: C_21  and  N_30 
REMARK   12  A    between atoms: C_22  and  N_31 
REMARK   13  A    between atoms: P_46  and  O_38 
REMARK   14  A    between atoms: P_46  and  O_41 
REMARK   15  A    between atoms: P_47  and  O_42 
REMARK   16  A    between atoms: P_46  and  O_45 
REMARK   17  A    between atoms: P_47  and  O_45 
ROOT
HETATM    1  O   UNK N   1      34.225  15.503  10.943  0.00  0.00    -0.624 OA
HETATM    2  O   UNK N   1      35.323  17.590   9.799  0.00  0.00    -0.624 OA
HETATM    3  P   UNK N   1      34.483  16.090   9.531  0.00  0.00     0.417 P 
ENDROOT
BRANCH   3   4
HETATM    4  O   UNK N   1      32.923  16.323   8.766  0.00  0.00    -0.287 OA
BRANCH   4   5
HETATM    5  C   UNK N   1      32.506  15.054   8.356  0.00  0.00     0.216 C 
BRANCH   5   6
HETATM    6  C   UNK N   1      31.917  15.118   6.950  0.00  0.00     0.180 C 
HETATM    7  C   UNK N   1      32.889  15.565   5.864  0.00  0.00     0.182 C 
HETATM    8  C   UNK N   1      31.957  16.238   4.844  0.00  0.00     0.198 C 
HETATM    9  C   UNK N   1      30.581  16.038   5.502  0.00  0.00     0.262 C 
HETATM   10  O   UNK N   1      30.851  16.033   6.885  0.00  0.00    -0.353 OA
BRANCH   7  11
HETATM   11  O   UNK N   1      33.600  14.487   5.332  0.00  0.00    -0.390 OA
HETATM   12  H   UNK N   1      34.504  14.364   5.004  0.00  0.00     0.210 HD
ENDBRANCH   7  11
BRANCH   8  13
HETATM   13  O   UNK N   1      32.287  17.597   4.812  0.00  0.00    -0.388 OA
HETATM   14  H   UNK N   1      32.867  18.260   4.408  0.00  0.00     0.210 HD
ENDBRANCH   8  13
BRANCH   9  15
HETATM   15  N   UNK N   1      29.514  16.991   5.172  0.00  0.00    -0.297 N 
HETATM   16  C   UNK N   1      29.059  17.193   3.905  0.00  0.00     0.188 A 
HETATM   17  N   UNK N   1      28.098  18.155   3.863  0.00  0.00    -0.346 N 
HETATM   18  C   UNK N   1      27.981  18.562   5.139  0.00  0.00     0.122 A 
ATOM     19  HN  UNK N   1      27.583  18.491   3.049  1.00  0.00     0.167 HD
HETATM   20  C   UNK N   1      27.174  19.548   5.678  0.00  0.00     0.131 A 
HETATM   21  C   UNK N   1      28.827  17.866   5.925  0.00  0.00     0.142 A 
HETATM   22  N   UNK N   1      27.270  19.791   7.019  0.00  0.00    -0.337 N 
HETATM   23  C   UNK N   1      28.146  19.079   7.802  0.00  0.00     0.183 A 
ATOM     24  HN  UNK N   1      26.685  20.511   7.443  1.00  0.00     0.168 HD
HETATM   25  N   UNK N   1      28.939  18.108   7.254  0.00  0.00    -0.336 N 
ATOM     26  HN  UNK N   1      29.596  17.581   7.829  1.00  0.00     0.168 HD
BRANCH  20  27
HETATM   27  N   UNK N   1      26.289  20.292   4.872  0.00  0.00    -0.383 N 
HETATM   28  H   UNK N   1      25.518  19.852   4.446  0.00  0.00     0.157 HD
HETATM   29  H   UNK N   1      26.441  21.254   4.735  0.00  0.00     0.157 HD
ENDBRANCH  20  27
ENDBRANCH   9  15
ENDBRANCH   5   6
ENDBRANCH   4   5
ENDBRANCH   3   4
BRANCH   3  30
HETATM   30  O   UNK N   1      35.525  14.977   8.693  0.00  0.00    -0.188 OA
BRANCH  30  31
HETATM   31  P   UNK N   1      36.754  14.468   9.815  0.00  0.00     0.402 P 
HETATM   32  O   UNK N   1      38.034  14.198   8.980  0.00  0.00    -0.631 OA
BRANCH  31  33
HETATM   33  O   UNK N   1      37.162  15.764  10.898  0.00  0.00    -0.307 OA
HETATM   34  H   UNK N   1      38.000  15.743  11.386  0.00  0.00     0.222 HD
ENDBRANCH  31  33
BRANCH  31  35
HETATM   35  O   UNK N   1      36.402  12.987  10.669  0.00  0.00    -0.294 OA
BRANCH  35  36
HETATM   36  C   UNK N   1      37.012  13.101  11.920  0.00  0.00     0.215 C 
BRANCH  36  37
HETATM   37  C   UNK N   1      36.345  12.176  12.941  0.00  0.00     0.180 C 
HETATM   38  C   UNK N   1      34.822  12.053  12.820  0.00  0.00     0.182 C 
HETATM   39  C   UNK N   1      34.409  11.725  14.249  0.00  0.00     0.198 C 
HETATM   40  C   UNK N   1      35.741  11.719  15.002  0.00  0.00     0.259 C 
HETATM   41  O   UNK N   1      36.604  12.565  14.270  0.00  0.00    -0.353 OA
BRANCH  38  42
HETATM   42  O   UNK N   1      34.245  13.280  12.480  0.00  0.00    -0.390 OA
HETATM   43  H   UNK N   1      33.616  13.824  11.981  0.00  0.00     0.210 HD
ENDBRANCH  38  42
BRANCH  39  44
HETATM   44  O   UNK N   1      33.765  10.488  14.346  0.00  0.00    -0.388 OA
HETATM   45  H   UNK N   1      32.919  10.387  14.809  0.00  0.00     0.210 HD
ENDBRANCH  39  44
BRANCH  40  46
HETATM   46  N   UNK N   1      35.617  12.122  16.411  0.00  0.00    -0.336 N 
HETATM   47  C   UNK N   1      35.475  13.445  16.721  0.00  0.00     0.093 A 
HETATM   48  C   UNK N   1      35.284  13.852  18.042  0.00  0.00     0.018 A 
HETATM   49  C   UNK N   1      35.198  12.891  19.047  0.00  0.00     0.018 A 
HETATM   50  C   UNK N   1      35.330  11.535  18.730  0.00  0.00     0.025 A 
HETATM   51  C   UNK N   1      35.553  11.174  17.394  0.00  0.00     0.108 A 
BRANCH  50  52
HETATM   52  C   UNK N   1      35.183  10.496  19.773  0.00  0.00     0.157 C 
HETATM   53  C   UNK N   1      34.219   9.366  19.597  0.00  0.00     0.097 C 
HETATM   54  O   UNK N   1      35.876  10.532  20.778  0.00  0.00    -0.293 OA
ENDBRANCH  50  52
ENDBRANCH  40  46
ENDBRANCH  36  37
ENDBRANCH  35  36
ENDBRANCH  31  35
ENDBRANCH  30  31
ENDBRANCH   3  30
TORSDOF 17
ENDMDL
MODEL 4
REMARK VINA RESULT:      -8.2      2.708      3.865
REMARK  17 active torsions:
REMARK  status: ('A' for Active; 'I' for Inactive)
REMARK    1  A    between atoms: C_12  and  C_6 
REMARK    2  A    between atoms: O_41  and  C_6 
REMARK    3  A    between atoms: C_13  and  C_7 
REMARK    4  A    between atoms: O_42  and  C_7 
REMARK    5  A    between atoms: C_11  and  C_10 
REMARK    6  A    between atoms: C_15  and  O_33 
REMARK    7  A    between atoms: C_16  and  O_34 
REMARK    8  A    between atoms: C_17  and  O_35 
REMARK    9  A    between atoms: C_18  and  O_36 
REMARK   10  A    between atoms: N_23  and  C_19 
REMARK   11  A    between atoms: C_21  and  N_30 
REMARK   12  A    between atoms: C_22  and  N_31 
REMARK   13  A    between atoms: P_46  and  O_38 
REMARK   14  A    between atoms: P_46  and  O_41 
REMARK   15  A    between atoms: P_47  and  O_42 
REMARK   16  A    between atoms: P_46  and  O_45 
REMARK   17  A    between atoms: P_47  and  O_45 
ROOT
HETATM    1  O   UNK N   1      33.462  18.294   8.220  0.00  0.00    -0.624 OA
HETATM    2  O   UNK N   1      34.047  17.582   5.765  0.00  0.00    -0.624 OA
HETATM    3  P   UNK N   1      33.773  17.021   7.389  0.00  0.00     0.417 P 
ENDROOT
BRANCH   3   4
HETATM    4  O   UNK N   1      32.379  15.965   7.506  0.00  0.00    -0.287 OA
BRANCH   4   5
HETATM    5  C   UNK N   1      31.508  16.369   6.490  0.00  0.00     0.216 C 
BRANCH   5   6
HETATM    6  C   UNK N   1      30.577  17.467   6.996  0.00  0.00     0.180 C 
HETATM    7  C   UNK N   1      29.902  17.175   8.331  0.00  0.00     0.182 C 
HETATM    8  C   UNK N   1      28.585  17.958   8.214  0.00  0.00     0.198 C 
HETATM    9  C   UNK N   1      28.733  18.607   6.827  0.00  0.00     0.262 C 
HETATM   10  O   UNK N   1      29.521  17.696   6.096  0.00  0.00    -0.353 OA
BRANCH   7  11
HETATM   11  O   UNK N   1      30.691  17.583   9.409  0.00  0.00    -0.390 OA
HETATM   12  H   UNK N   1      30.863  18.433   9.844  0.00  0.00     0.210 HD
ENDBRANCH   7  11
BRANCH   8  13
HETATM   13  O   UNK N   1      27.545  17.024   8.204  0.00  0.00    -0.388 OA
HETATM   14  H   UNK N   1      27.147  16.289   7.713  0.00  0.00     0.210 HD
ENDBRANCH   8  13
BRANCH   9  15
HETATM   15  N   UNK N   1      27.509  18.958   6.095  0.00  0.00    -0.297 N 
HETATM   16  C   UNK N   1      26.950  20.198   6.128  0.00  0.00     0.188 A 
HETATM   17  N   UNK N   1      25.801  20.251   5.401  0.00  0.00    -0.346 N 
HETATM   18  C   UNK N   1      25.649  19.001   4.930  0.00  0.00     0.122 A 
ATOM     19  HN  UNK N   1      25.193  21.056   5.248  1.00  0.00     0.167 HD
HETATM   20  C   UNK N   1      24.634  18.469   4.156  0.00  0.00     0.131 A 
HETATM   21  C   UNK N   1      26.672  18.225   5.344  0.00  0.00     0.142 A 
HETATM   22  N   UNK N   1      24.702  17.143   3.836  0.00  0.00    -0.337 N 
HETATM   23  C   UNK N   1      25.745  16.364   4.275  0.00  0.00     0.183 A 
ATOM     24  HN  UNK N   1      23.967  16.725   3.264  1.00  0.00     0.168 HD
HETATM   25  N   UNK N   1      26.741  16.905   5.042  0.00  0.00    -0.336 N 
ATOM     26  HN  UNK N   1      27.515  16.331   5.378  1.00  0.00     0.168 HD
BRANCH  20  27
HETATM   27  N   UNK N   1      23.553  19.261   3.720  0.00  0.00    -0.383 N 
HETATM   28  H   UNK N   1      23.208  19.987   4.290  0.00  0.00     0.157 HD
HETATM   29  H   UNK N   1      23.142  19.090   2.843  0.00  0.00     0.157 HD
ENDBRANCH  20  27
ENDBRANCH   9  15
ENDBRANCH   5   6
ENDBRANCH   4   5
ENDBRANCH   3   4
BRANCH   3  30
HETATM   30  O   UNK N   1      35.239  16.334   8.027  0.00  0.00    -0.188 OA
BRANCH  30  31
HETATM   31  P   UNK N   1      34.994  16.075   9.731  0.00  0.00     0.402 P 
HETATM   32  O   UNK N   1      35.487  17.358  10.451  0.00  0.00    -0.631 OA
BRANCH  31  33
HETATM   33  O   UNK N   1      33.298  15.957  10.090  0.00  0.00    -0.307 OA
HETATM   34  H   UNK N   1      32.720  15.413   9.532  0.00  0.00     0.222 HD
ENDBRANCH  31  33
BRANCH  31  35
HETATM   35  O   UNK N   1      35.901  14.749  10.411  0.00  0.00    -0.294 OA
BRANCH  35  36
HETATM   36  C   UNK N   1      36.125  15.073  11.751  0.00  0.00     0.215 C 
BRANCH  36  37
HETATM   37  C   UNK N   1      36.444  13.821  12.571  0.00  0.00     0.180 C 
HETATM   38  C   UNK N   1      35.585  12.592  12.254  0.00  0.00     0.182 C 
HETATM   39  C   UNK N   1      35.603  11.835  13.577  0.00  0.00     0.198 C 
HETATM   40  C   UNK N   1      36.451  12.733  14.479  0.00  0.00     0.259 C 
HETATM   41  O   UNK N   1      36.322  14.040  13.958  0.00  0.00    -0.353 OA
BRANCH  38  42
HETATM   42  O   UNK N   1      34.262  12.958  11.990  0.00  0.00    -0.390 OA
HETATM   43  H   UNK N   1      33.592  13.469  11.510  0.00  0.00     0.210 HD
ENDBRANCH  38  42
BRANCH  39  44
HETATM   44  O   UNK N   1      36.166  10.561  13.453  0.00  0.00    -0.388 OA
HETATM   45  H   UNK N   1      35.711   9.844  12.985  0.00  0.00     0.210 HD
ENDBRANCH  39  44
BRANCH  40  46
HETATM   46  N   UNK N   1      36.079  12.652  15.900  0.00  0.00    -0.336 N 
HETATM   47  C   UNK N   1      35.663  13.780  16.549  0.00  0.00     0.093 A 
HETATM   48  C   UNK N   1      35.236  13.721  17.876  0.00  0.00     0.018 A 
HETATM   49  C   UNK N   1      35.199  12.491  18.529  0.00  0.00     0.018 A 
HETATM   50  C   UNK N   1      35.612  11.333  17.861  0.00  0.00     0.025 A 
HETATM   51  C   UNK N   1      36.064  11.444  16.538  0.00  0.00     0.108 A 
BRANCH  50  52
HETATM   52  C   UNK N   1      35.524  10.009  18.514  0.00  0.00     0.157 C 
HETATM   53  C   UNK N   1      34.296   9.167  18.377  0.00  0.00     0.097 C 
HETATM   54  O   UNK N   1      36.473   9.574  19.149  0.00  0.00    -0.293 OA
ENDBRANCH  50  52
ENDBRANCH  40  46
ENDBRANCH  36  37
ENDBRANCH  35  36
ENDBRANCH  31  35
ENDBRANCH  30  31
ENDBRANCH   3  30
TORSDOF 17
ENDMDL
MODEL 5
REMARK VINA RESULT:      -8.1      2.605      3.613
REMARK  17 active torsions:
REMARK  status: ('A' for Active; 'I' for Inactive)
REMARK    1  A    between atoms: C_12  and  C_6 
REMARK    2  A    between atoms: O_41  and  C_6 
REMARK    3  A    between atoms: C_13  and  C_7 
REMARK    4  A    between atoms: O_42  and  C_7 
REMARK    5  A    between atoms: C_11  and  C_10 
REMARK    6  A    between atoms: C_15  and  O_33 
REMARK    7  A    between atoms: C_16  and  O_34 
REMARK    8  A    between atoms: C_17  and  O_35 
REMARK    9  A    between atoms: C_18  and  O_36 
REMARK   10  A    between atoms: N_23  and  C_19 
REMARK   11  A    between atoms: C_21  and  N_30 
REMARK   12  A    between atoms: C_22  and  N_31 
REMARK   13  A    between atoms: P_46  and  O_38 
REMARK   14  A    between atoms: P_46  and  O_41 
REMARK   15  A    between atoms: P_47  and  O_42 
REMARK   16  A    between atoms: P_46  and  O_45 
REMARK   17  A    between atoms: P_47  and  O_45 
ROOT
HETATM    1  O   UNK N   1      32.446  13.739   8.682  0.00  0.00    -0.624 OA
HETATM    2  O   UNK N   1      32.220  16.344   8.874  0.00  0.00    -0.624 OA
HETATM    3  P   UNK N   1      33.114  15.037   8.155  0.00  0.00     0.417 P 
ENDROOT
BRANCH   3   4
HETATM    4  O   UNK N   1      32.988  15.021   6.407  0.00  0.00    -0.287 OA
BRANCH   4   5
HETATM    5  C   UNK N   1      31.947  14.137   6.108  0.00  0.00     0.216 C 
BRANCH   5   6
HETATM    6  C   UNK N   1      30.824  14.868   5.379  0.00  0.00     0.180 C 
HETATM    7  C   UNK N   1      31.243  15.575   4.095  0.00  0.00     0.182 C 
HETATM    8  C   UNK N   1      30.247  16.743   4.021  0.00  0.00     0.198 C 
HETATM    9  C   UNK N   1      29.387  16.496   5.272  0.00  0.00     0.262 C 
HETATM   10  O   UNK N   1      30.264  15.875   6.184  0.00  0.00    -0.353 OA
BRANCH   7  11
HETATM   11  O   UNK N   1      31.176  14.723   2.990  0.00  0.00    -0.390 OA
HETATM   12  H   UNK N   1      30.966  13.784   2.866  0.00  0.00     0.210 HD
ENDBRANCH   7  11
BRANCH   8  13
HETATM   13  O   UNK N   1      30.981  17.925   4.162  0.00  0.00    -0.388 OA
HETATM   14  H   UNK N   1      31.661  18.487   3.759  0.00  0.00     0.210 HD
ENDBRANCH   8  13
BRANCH   9  15
HETATM   15  N   UNK N   1      28.711  17.647   5.883  0.00  0.00    -0.297 N 
HETATM   16  C   UNK N   1      28.574  17.806   7.228  0.00  0.00     0.188 A 
HETATM   17  N   UNK N   1      27.875  18.932   7.533  0.00  0.00    -0.346 N 
HETATM   18  C   UNK N   1      27.562  19.462   6.337  0.00  0.00     0.122 A 
ATOM     19  HN  UNK N   1      27.641  19.293   8.457  1.00  0.00     0.167 HD
HETATM   20  C   UNK N   1      26.826  20.595   6.042  0.00  0.00     0.131 A 
HETATM   21  C   UNK N   1      28.062  18.694   5.347  0.00  0.00     0.142 A 
HETATM   22  N   UNK N   1      26.623  20.901   4.726  0.00  0.00    -0.337 N 
HETATM   23  C   UNK N   1      27.131  20.102   3.731  0.00  0.00     0.183 A 
ATOM     24  HN  UNK N   1      26.086  21.733   4.480  1.00  0.00     0.168 HD
HETATM   25  N   UNK N   1      27.856  18.982   4.039  0.00  0.00    -0.336 N 
ATOM     26  HN  UNK N   1      28.229  18.381   3.305  1.00  0.00     0.168 HD
BRANCH  20  27
HETATM   27  N   UNK N   1      26.288  21.406   7.061  0.00  0.00    -0.383 N 
HETATM   28  H   UNK N   1      26.786  21.543   7.900  0.00  0.00     0.157 HD
HETATM   29  H   UNK N   1      25.413  21.838   6.935  0.00  0.00     0.157 HD
ENDBRANCH  20  27
ENDBRANCH   9  15
ENDBRANCH   5   6
ENDBRANCH   4   5
ENDBRANCH   3   4
BRANCH   3  30
HETATM   30  O   UNK N   1      34.750  15.050   8.748  0.00  0.00    -0.188 OA
BRANCH  30  31
HETATM   31  P   UNK N   1      34.679  14.866  10.478  0.00  0.00     0.402 P 
HETATM   32  O   UNK N   1      35.378  16.112  11.085  0.00  0.00    -0.631 OA
BRANCH  31  33
HETATM   33  O   UNK N   1      33.033  14.935  11.029  0.00  0.00    -0.307 OA
HETATM   34  H   UNK N   1      32.315  14.636  10.450  0.00  0.00     0.222 HD
ENDBRANCH  31  33
BRANCH  31  35
HETATM   35  O   UNK N   1      35.523  13.473  11.104  0.00  0.00    -0.294 OA
BRANCH  35  36
HETATM   36  C   UNK N   1      34.766  13.008  12.182  0.00  0.00     0.215 C 
BRANCH  36  37
HETATM   37  C   UNK N   1      35.258  13.615  13.498  0.00  0.00     0.180 C 
HETATM   38  C   UNK N   1      36.781  13.704  13.651  0.00  0.00     0.182 C 
HETATM   39  C   UNK N   1      36.958  13.638  15.163  0.00  0.00     0.198 C 
HETATM   40  C   UNK N   1      35.523  13.503  15.676  0.00  0.00     0.259 C 
HETATM   41  O   UNK N   1      34.790  12.908  14.624  0.00  0.00    -0.353 OA
BRANCH  38  42
HETATM   42  O   UNK N   1      37.408  12.583  13.099  0.00  0.00    -0.390 OA
HETATM   43  H   UNK N   1      37.838  11.718  13.171  0.00  0.00     0.210 HD
ENDBRANCH  38  42
BRANCH  39  44
HETATM   44  O   UNK N   1      37.575  14.783  15.677  0.00  0.00    -0.388 OA
HETATM   45  H   UNK N   1      38.026  15.421  15.103  0.00  0.00     0.210 HD
ENDBRANCH  39  44
BRANCH  40  46
HETATM   46  N   UNK N   1      35.420  12.747  16.933  0.00  0.00    -0.336 N 
HETATM   47  C   UNK N   1      35.371  13.422  18.120  0.00  0.00     0.093 A 
HETATM   48  C   UNK N   1      35.202  12.736  19.323  0.00  0.00     0.018 A 
HETATM   49  C   UNK N   1      35.043  11.353  19.305  0.00  0.00     0.018 A 
HETATM   50  C   UNK N   1      35.079  10.661  18.090  0.00  0.00     0.025 A 
HETATM   51  C   UNK N   1      35.283  11.387  16.908  0.00  0.00     0.108 A 
BRANCH  50  52
HETATM   52  C   UNK N   1      34.852   9.200  18.042  0.00  0.00     0.157 C 
HETATM   53  C   UNK N   1      34.023   8.520  19.084  0.00  0.00     0.097 C 
HETATM   54  O   UNK N   1      35.315   8.537  17.127  0.00  0.00    -0.293 OA
ENDBRANCH  50  52
ENDBRANCH  40  46
ENDBRANCH  36  37
ENDBRANCH  35  36
ENDBRANCH  31  35
ENDBRANCH  30  31
ENDBRANCH   3  30
TORSDOF 17
ENDMDL
MODEL 6
REMARK VINA RESULT:      -8.0      1.531      2.303
REMARK  17 active torsions:
REMARK  status: ('A' for Active; 'I' for Inactive)
REMARK    1  A    between atoms: C_12  and  C_6 
REMARK    2  A    between atoms: O_41  and  C_6 
REMARK    3  A    between atoms: C_13  and  C_7 
REMARK    4  A    between atoms: O_42  and  C_7 
REMARK    5  A    between atoms: C_11  and  C_10 
REMARK    6  A    between atoms: C_15  and  O_33 
REMARK    7  A    between atoms: C_16  and  O_34 
REMARK    8  A    between atoms: C_17  and  O_35 
REMARK    9  A    between atoms: C_18  and  O_36 
REMARK   10  A    between atoms: N_23  and  C_19 
REMARK   11  A    between atoms: C_21  and  N_30 
REMARK   12  A    between atoms: C_22  and  N_31 
REMARK   13  A    between atoms: P_46  and  O_38 
REMARK   14  A    between atoms: P_46  and  O_41 
REMARK   15  A    between atoms: P_47  and  O_42 
REMARK   16  A    between atoms: P_46  and  O_45 
REMARK   17  A    between atoms: P_47  and  O_45 
ROOT
HETATM    1  O   UNK N   1      33.241  15.933   4.871  0.00  0.00    -0.624 OA
HETATM    2  O   UNK N   1      34.832  14.534   6.415  0.00  0.00    -0.624 OA
HETATM    3  P   UNK N   1      33.726  15.875   6.344  0.00  0.00     0.417 P 
ENDROOT
BRANCH   3   4
HETATM    4  O   UNK N   1      32.313  15.632   7.352  0.00  0.00    -0.287 OA
BRANCH   4   5
HETATM    5  C   UNK N   1      31.211  15.891   6.533  0.00  0.00     0.216 C 
BRANCH   5   6
HETATM    6  C   UNK N   1      30.446  17.109   7.042  0.00  0.00     0.180 C 
HETATM    7  C   UNK N   1      29.713  16.902   8.364  0.00  0.00     0.182 C 
HETATM    8  C   UNK N   1      28.530  17.875   8.240  0.00  0.00     0.198 C 
HETATM    9  C   UNK N   1      28.796  18.513   6.865  0.00  0.00     0.262 C 
HETATM   10  O   UNK N   1      29.451  17.505   6.131  0.00  0.00    -0.353 OA
BRANCH   7  11
HETATM   11  O   UNK N   1      30.536  17.173   9.459  0.00  0.00    -0.390 OA
HETATM   12  H   UNK N   1      31.250  17.805   9.634  0.00  0.00     0.210 HD
ENDBRANCH   7  11
BRANCH   8  13
HETATM   13  O   UNK N   1      27.362  17.108   8.200  0.00  0.00    -0.388 OA
HETATM   14  H   UNK N   1      26.450  17.038   8.522  0.00  0.00     0.210 HD
ENDBRANCH   8  13
BRANCH   9  15
HETATM   15  N   UNK N   1      27.651  19.054   6.122  0.00  0.00    -0.297 N 
HETATM   16  C   UNK N   1      27.093  20.267   6.388  0.00  0.00     0.188 A 
HETATM   17  N   UNK N   1      26.022  20.514   5.587  0.00  0.00    -0.346 N 
HETATM   18  C   UNK N   1      25.914  19.410   4.827  0.00  0.00     0.122 A 
ATOM     19  HN  UNK N   1      25.434  21.347   5.567  1.00  0.00     0.167 HD
HETATM   20  C   UNK N   1      24.979  19.096   3.858  0.00  0.00     0.131 A 
HETATM   21  C   UNK N   1      26.889  18.534   5.146  0.00  0.00     0.142 A 
HETATM   22  N   UNK N   1      25.075  17.878   3.247  0.00  0.00    -0.337 N 
HETATM   23  C   UNK N   1      26.068  16.994   3.592  0.00  0.00     0.183 A 
ATOM     24  HN  UNK N   1      24.399  17.622   2.527  1.00  0.00     0.168 HD
HETATM   25  N   UNK N   1      26.986  17.318   4.554  0.00  0.00    -0.336 N 
ATOM     26  HN  UNK N   1      27.721  16.663   4.820  1.00  0.00     0.168 HD
BRANCH  20  27
HETATM   27  N   UNK N   1      23.948  19.994   3.516  0.00  0.00    -0.383 N 
HETATM   28  H   UNK N   1      23.225  19.712   2.911  0.00  0.00     0.157 HD
HETATM   29  H   UNK N   1      23.950  20.907   3.884  0.00  0.00     0.157 HD
ENDBRANCH  20  27
ENDBRANCH   9  15
ENDBRANCH   5   6
ENDBRANCH   4   5
ENDBRANCH   3   4
BRANCH   3  30
HETATM   30  O   UNK N   1      34.580  17.357   6.664  0.00  0.00    -0.188 OA
BRANCH  30  31
HETATM   31  P   UNK N   1      34.300  17.769   8.332  0.00  0.00     0.402 P 
HETATM   32  O   UNK N   1      35.351  18.849   8.704  0.00  0.00    -0.631 OA
BRANCH  31  33
HETATM   33  O   UNK N   1      32.752  18.536   8.516  0.00  0.00    -0.307 OA
HETATM   34  H   UNK N   1      32.324  18.954   7.754  0.00  0.00     0.222 HD
ENDBRANCH  31  33
BRANCH  31  35
HETATM   35  O   UNK N   1      34.521  16.457   9.460  0.00  0.00    -0.294 OA
BRANCH  35  36
HETATM   36  C   UNK N   1      35.359  16.942  10.467  0.00  0.00     0.215 C 
BRANCH  36  37
HETATM   37  C   UNK N   1      36.099  15.797  11.163  0.00  0.00     0.180 C 
HETATM   38  C   UNK N   1      36.941  14.905  10.243  0.00  0.00     0.182 C 
HETATM   39  C   UNK N   1      36.938  13.577  10.990  0.00  0.00     0.198 C 
HETATM   40  C   UNK N   1      36.086  13.875  12.224  0.00  0.00     0.259 C 
HETATM   41  O   UNK N   1      35.227  14.935  11.857  0.00  0.00    -0.353 OA
BRANCH  38  42
HETATM   42  O   UNK N   1      36.303  14.706   9.015  0.00  0.00    -0.390 OA
HETATM   43  H   UNK N   1      36.164  14.907   8.077  0.00  0.00     0.210 HD
ENDBRANCH  38  42
BRANCH  39  44
HETATM   44  O   UNK N   1      38.225  13.166  11.348  0.00  0.00    -0.388 OA
HETATM   45  H   UNK N   1      38.964  13.792  11.407  0.00  0.00     0.210 HD
ENDBRANCH  39  44
BRANCH  40  46
HETATM   46  N   UNK N   1      35.352  12.702  12.725  0.00  0.00    -0.336 N 
HETATM   47  C   UNK N   1      34.952  12.667  14.031  0.00  0.00     0.093 A 
HETATM   48  C   UNK N   1      34.194  11.601  14.516  0.00  0.00     0.018 A 
HETATM   49  C   UNK N   1      33.809  10.584  13.645  0.00  0.00     0.018 A 
HETATM   50  C   UNK N   1      34.206  10.625  12.304  0.00  0.00     0.025 A 
HETATM   51  C   UNK N   1      34.995  11.699  11.868  0.00  0.00     0.108 A 
BRANCH  50  52
HETATM   52  C   UNK N   1      33.758   9.587  11.350  0.00  0.00     0.157 C 
HETATM   53  C   UNK N   1      32.800   9.919  10.252  0.00  0.00     0.097 C 
HETATM   54  O   UNK N   1      34.197   8.450  11.431  0.00  0.00    -0.293 OA
ENDBRANCH  50  52
ENDBRANCH  40  46
ENDBRANCH  36  37
ENDBRANCH  35  36
ENDBRANCH  31  35
ENDBRANCH  30  31
ENDBRANCH   3  30
TORSDOF 17
ENDMDL
MODEL 7
REMARK VINA RESULT:      -8.0      8.539     13.289
REMARK  17 active torsions:
REMARK  status: ('A' for Active; 'I' for Inactive)
REMARK    1  A    between atoms: C_12  and  C_6 
REMARK    2  A    between atoms: O_41  and  C_6 
REMARK    3  A    between atoms: C_13  and  C_7 
REMARK    4  A    between atoms: O_42  and  C_7 
REMARK    5  A    between atoms: C_11  and  C_10 
REMARK    6  A    between atoms: C_15  and  O_33 
REMARK    7  A    between atoms: C_16  and  O_34 
REMARK    8  A    between atoms: C_17  and  O_35 
REMARK    9  A    between atoms: C_18  and  O_36 
REMARK   10  A    between atoms: N_23  and  C_19 
REMARK   11  A    between atoms: C_21  and  N_30 
REMARK   12  A    between atoms: C_22  and  N_31 
REMARK   13  A    between atoms: P_46  and  O_38 
REMARK   14  A    between atoms: P_46  and  O_41 
REMARK   15  A    between atoms: P_47  and  O_42 
REMARK   16  A    between atoms: P_46  and  O_45 
REMARK   17  A    between atoms: P_47  and  O_45 
ROOT
HETATM    1  O   UNK N   1      20.979  16.478   8.698  0.00  0.00    -0.624 OA
HETATM    2  O   UNK N   1      18.576  16.441   7.649  0.00  0.00    -0.624 OA
HETATM    3  P   UNK N   1      20.170  15.745   7.595  0.00  0.00     0.417 P 
ENDROOT
BRANCH   3   4
HETATM    4  O   UNK N   1      20.168  14.038   7.993  0.00  0.00    -0.287 OA
BRANCH   4   5
HETATM    5  C   UNK N   1      21.000  13.905   9.108  0.00  0.00     0.216 C 
BRANCH   5   6
HETATM    6  C   UNK N   1      22.191  13.011   8.778  0.00  0.00     0.180 C 
HETATM    7  C   UNK N   1      23.503  13.414   9.444  0.00  0.00     0.182 C 
HETATM    8  C   UNK N   1      24.551  12.917   8.436  0.00  0.00     0.198 C 
HETATM    9  C   UNK N   1      23.663  12.273   7.358  0.00  0.00     0.262 C 
HETATM   10  O   UNK N   1      22.466  13.016   7.399  0.00  0.00    -0.353 OA
BRANCH   7  11
HETATM   11  O   UNK N   1      23.638  12.838  10.709  0.00  0.00    -0.390 OA
HETATM   12  H   UNK N   1      24.000  13.137  11.558  0.00  0.00     0.210 HD
ENDBRANCH   7  11
BRANCH   8  13
HETATM   13  O   UNK N   1      25.200  14.043   7.921  0.00  0.00    -0.388 OA
HETATM   14  H   UNK N   1      25.549  14.922   8.135  0.00  0.00     0.210 HD
ENDBRANCH   8  13
BRANCH   9  15
HETATM   15  N   UNK N   1      24.190  12.189   5.990  0.00  0.00    -0.297 N 
HETATM   16  C   UNK N   1      24.801  11.079   5.492  0.00  0.00     0.188 A 
HETATM   17  N   UNK N   1      25.234  11.273   4.217  0.00  0.00    -0.346 N 
HETATM   18  C   UNK N   1      24.894  12.544   3.941  0.00  0.00     0.122 A 
ATOM     19  HN  UNK N   1      25.709  10.606   3.609  1.00  0.00     0.167 HD
HETATM   20  C   UNK N   1      25.120  13.288   2.797  0.00  0.00     0.131 A 
HETATM   21  C   UNK N   1      24.268  13.095   5.001  0.00  0.00     0.142 A 
HETATM   22  N   UNK N   1      24.695  14.586   2.783  0.00  0.00    -0.337 N 
HETATM   23  C   UNK N   1      24.068  15.134   3.876  0.00  0.00     0.183 A 
ATOM     24  HN  UNK N   1      24.847  15.156   1.951  1.00  0.00     0.168 HD
HETATM   25  N   UNK N   1      23.854  14.386   5.002  0.00  0.00    -0.336 N 
ATOM     26  HN  UNK N   1      23.396  14.788   5.820  1.00  0.00     0.168 HD
BRANCH  20  27
HETATM   27  N   UNK N   1      25.779  12.733   1.681  0.00  0.00    -0.383 N 
HETATM   28  H   UNK N   1      26.564  13.185   1.294  0.00  0.00     0.157 HD
HETATM   29  H   UNK N   1      25.455  11.892   1.288  0.00  0.00     0.157 HD
ENDBRANCH  20  27
ENDBRANCH   9  15
ENDBRANCH   5   6
ENDBRANCH   4   5
ENDBRANCH   3   4
BRANCH   3  30
HETATM   30  O   UNK N   1      20.921  16.118   6.071  0.00  0.00    -0.188 OA
BRANCH  30  31
HETATM   31  P   UNK N   1      19.857  15.555   4.814  0.00  0.00     0.402 P 
HETATM   32  O   UNK N   1      20.744  14.810   3.781  0.00  0.00    -0.631 OA
BRANCH  31  33
HETATM   33  O   UNK N   1      18.758  14.362   5.437  0.00  0.00    -0.307 OA
HETATM   34  H   UNK N   1      18.428  13.657   4.859  0.00  0.00     0.222 HD
ENDBRANCH  31  33
BRANCH  31  35
HETATM   35  O   UNK N   1      19.028  16.814   3.935  0.00  0.00    -0.294 OA
BRANCH  35  36
HETATM   36  C   UNK N   1      19.881  17.194   2.897  0.00  0.00     0.215 C 
BRANCH  36  37
HETATM   37  C   UNK N   1      20.624  18.487   3.245  0.00  0.00     0.180 C 
HETATM   38  C   UNK N   1      20.549  19.592   2.185  0.00  0.00     0.182 C 
HETATM   39  C   UNK N   1      21.842  20.361   2.427  0.00  0.00     0.198 C 
HETATM   40  C   UNK N   1      22.493  19.590   3.577  0.00  0.00     0.259 C 
HETATM   41  O   UNK N   1      21.994  18.270   3.492  0.00  0.00    -0.353 OA
BRANCH  38  42
HETATM   42  O   UNK N   1      20.607  19.056   0.895  0.00  0.00    -0.390 OA
HETATM   43  H   UNK N   1      20.971  18.448   0.233  0.00  0.00     0.210 HD
ENDBRANCH  38  42
BRANCH  39  44
HETATM   44  O   UNK N   1      21.610  21.694   2.777  0.00  0.00    -0.388 OA
HETATM   45  H   UNK N   1      20.907  21.946   3.396  0.00  0.00     0.210 HD
ENDBRANCH  39  44
BRANCH  40  46
HETATM   46  N   UNK N   1      23.963  19.639   3.554  0.00  0.00    -0.336 N 
HETATM   47  C   UNK N   1      24.592  20.568   2.774  0.00  0.00     0.093 A 
HETATM   48  C   UNK N   1      25.982  20.686   2.786  0.00  0.00     0.018 A 
HETATM   49  C   UNK N   1      26.730  19.872   3.635  0.00  0.00     0.018 A 
HETATM   50  C   UNK N   1      26.086  18.931   4.445  0.00  0.00     0.025 A 
HETATM   51  C   UNK N   1      24.690  18.824   4.377  0.00  0.00     0.108 A 
BRANCH  50  52
HETATM   52  C   UNK N   1      26.856  18.099   5.397  0.00  0.00     0.157 C 
HETATM   53  C   UNK N   1      28.138  18.595   5.985  0.00  0.00     0.097 C 
HETATM   54  O   UNK N   1      26.430  17.007   5.740  0.00  0.00    -0.293 OA
ENDBRANCH  50  52
ENDBRANCH  40  46
ENDBRANCH  36  37
ENDBRANCH  35  36
ENDBRANCH  31  35
ENDBRANCH  30  31
ENDBRANCH   3  30
TORSDOF 17
ENDMDL
MODEL 8
REMARK VINA RESULT:      -7.9      3.463     11.875
REMARK  17 active torsions:
REMARK  status: ('A' for Active; 'I' for Inactive)
REMARK    1  A    between atoms: C_12  and  C_6 
REMARK    2  A    between atoms: O_41  and  C_6 
REMARK    3  A    between atoms: C_13  and  C_7 
REMARK    4  A    between atoms: O_42  and  C_7 
REMARK    5  A    between atoms: C_11  and  C_10 
REMARK    6  A    between atoms: C_15  and  O_33 
REMARK    7  A    between atoms: C_16  and  O_34 
REMARK    8  A    between atoms: C_17  and  O_35 
REMARK    9  A    between atoms: C_18  and  O_36 
REMARK   10  A    between atoms: N_23  and  C_19 
REMARK   11  A    between atoms: C_21  and  N_30 
REMARK   12  A    between atoms: C_22  and  N_31 
REMARK   13  A    between atoms: P_46  and  O_38 
REMARK   14  A    between atoms: P_46  and  O_41 
REMARK   15  A    between atoms: P_47  and  O_42 
REMARK   16  A    between atoms: P_46  and  O_45 
REMARK   17  A    between atoms: P_47  and  O_45 
ROOT
HETATM    1  O   UNK N   1      32.167  14.850   5.600  0.00  0.00    -0.624 OA
HETATM    2  O   UNK N   1      32.128  17.460   5.838  0.00  0.00    -0.624 OA
HETATM    3  P   UNK N   1      32.221  15.949   6.694  0.00  0.00     0.417 P 
ENDROOT
BRANCH   3   4
HETATM    4  O   UNK N   1      33.736  15.758   7.554  0.00  0.00    -0.287 OA
BRANCH   4   5
HETATM    5  C   UNK N   1      33.509  14.767   8.513  0.00  0.00     0.216 C 
BRANCH   5   6
HETATM    6  C   UNK N   1      34.024  15.219   9.876  0.00  0.00     0.180 C 
HETATM    7  C   UNK N   1      35.069  16.328   9.834  0.00  0.00     0.182 C 
HETATM    8  C   UNK N   1      35.895  16.052  11.100  0.00  0.00     0.198 C 
HETATM    9  C   UNK N   1      35.162  14.834  11.688  0.00  0.00     0.262 C 
HETATM   10  O   UNK N   1      34.643  14.161  10.564  0.00  0.00    -0.353 OA
BRANCH   7  11
HETATM   11  O   UNK N   1      34.479  17.594   9.826  0.00  0.00    -0.390 OA
HETATM   12  H   UNK N   1      34.616  18.406   9.314  0.00  0.00     0.210 HD
ENDBRANCH   7  11
BRANCH   8  13
HETATM   13  O   UNK N   1      37.182  15.691  10.687  0.00  0.00    -0.388 OA
HETATM   14  H   UNK N   1      37.745  15.513   9.919  0.00  0.00     0.210 HD
ENDBRANCH   8  13
BRANCH   9  15
HETATM   15  N   UNK N   1      35.923  13.921  12.550  0.00  0.00    -0.297 N 
HETATM   16  C   UNK N   1      36.363  14.260  13.793  0.00  0.00     0.188 A 
HETATM   17  N   UNK N   1      37.077  13.254  14.366  0.00  0.00    -0.346 N 
HETATM   18  C   UNK N   1      37.087  12.284  13.436  0.00  0.00     0.122 A 
ATOM     19  HN  UNK N   1      37.506  13.239  15.291  1.00  0.00     0.167 HD
HETATM   20  C   UNK N   1      37.697  11.042  13.465  0.00  0.00     0.131 A 
HETATM   21  C   UNK N   1      36.396  12.680  12.348  0.00  0.00     0.142 A 
HETATM   22  N   UNK N   1      37.579  10.246  12.361  0.00  0.00    -0.337 N 
HETATM   23  C   UNK N   1      36.880  10.671  11.257  0.00  0.00     0.183 A 
ATOM     24  HN  UNK N   1      38.017   9.325  12.357  1.00  0.00     0.168 HD
HETATM   25  N   UNK N   1      36.284  11.903  11.243  0.00  0.00    -0.336 N 
ATOM     26  HN  UNK N   1      35.770  12.227  10.424  1.00  0.00     0.168 HD
BRANCH  20  27
HETATM   27  N   UNK N   1      38.429  10.612  14.589  0.00  0.00    -0.383 N 
HETATM   28  H   UNK N   1      39.300  10.167  14.473  0.00  0.00     0.157 HD
HETATM   29  H   UNK N   1      38.071  10.758  15.494  0.00  0.00     0.157 HD
ENDBRANCH  20  27
ENDBRANCH   9  15
ENDBRANCH   5   6
ENDBRANCH   4   5
ENDBRANCH   3   4
BRANCH   3  30
HETATM   30  O   UNK N   1      30.809  15.752   7.692  0.00  0.00    -0.188 OA
BRANCH  30  31
HETATM   31  P   UNK N   1      30.517  17.273   8.487  0.00  0.00     0.402 P 
HETATM   32  O   UNK N   1      29.900  16.939   9.871  0.00  0.00    -0.631 OA
BRANCH  31  33
HETATM   33  O   UNK N   1      32.018  18.081   8.823  0.00  0.00    -0.307 OA
HETATM   34  H   UNK N   1      32.365  18.739   8.202  0.00  0.00     0.222 HD
ENDBRANCH  31  33
BRANCH  31  35
HETATM   35  O   UNK N   1      29.377  18.318   7.678  0.00  0.00    -0.294 OA
BRANCH  35  36
HETATM   36  C   UNK N   1      28.461  17.479   7.040  0.00  0.00     0.215 C 
BRANCH  36  37
HETATM   37  C   UNK N   1      27.735  18.217   5.912  0.00  0.00     0.180 C 
HETATM   38  C   UNK N   1      27.458  19.702   6.171  0.00  0.00     0.182 C 
HETATM   39  C   UNK N   1      26.214  19.951   5.327  0.00  0.00     0.198 C 
HETATM   40  C   UNK N   1      25.933  18.579   4.711  0.00  0.00     0.259 C 
HETATM   41  O   UNK N   1      26.492  17.632   5.599  0.00  0.00    -0.353 OA
BRANCH  38  42
HETATM   42  O   UNK N   1      27.116  19.923   7.509  0.00  0.00    -0.390 OA
HETATM   43  H   UNK N   1      27.177  20.419   8.340  0.00  0.00     0.210 HD
ENDBRANCH  38  42
BRANCH  39  44
HETATM   44  O   UNK N   1      26.426  20.917   4.340  0.00  0.00    -0.388 OA
HETATM   45  H   UNK N   1      27.119  21.592   4.424  0.00  0.00     0.210 HD
ENDBRANCH  39  44
BRANCH  40  46
HETATM   46  N   UNK N   1      24.506  18.336   4.452  0.00  0.00    -0.336 N 
HETATM   47  C   UNK N   1      23.907  17.228   4.981  0.00  0.00     0.093 A 
HETATM   48  C   UNK N   1      22.540  17.007   4.812  0.00  0.00     0.018 A 
HETATM   49  C   UNK N   1      21.774  17.951   4.131  0.00  0.00     0.018 A 
HETATM   50  C   UNK N   1      22.383  19.093   3.600  0.00  0.00     0.025 A 
HETATM   51  C   UNK N   1      23.765  19.258   3.765  0.00  0.00     0.108 A 
BRANCH  50  52
HETATM   52  C   UNK N   1      21.580  20.136   2.926  0.00  0.00     0.157 C 
HETATM   53  C   UNK N   1      20.157  19.879   2.544  0.00  0.00     0.097 C 
HETATM   54  O   UNK N   1      22.063  21.235   2.704  0.00  0.00    -0.293 OA
ENDBRANCH  50  52
ENDBRANCH  40  46
ENDBRANCH  36  37
ENDBRANCH  35  36
ENDBRANCH  31  35
ENDBRANCH  30  31
ENDBRANCH   3  30
TORSDOF 17
ENDMDL
MODEL 9
REMARK VINA RESULT:      -7.9      8.919     13.052
REMARK  17 active torsions:
REMARK  status: ('A' for Active; 'I' for Inactive)
REMARK    1  A    between atoms: C_12  and  C_6 
REMARK    2  A    between atoms: O_41  and  C_6 
REMARK    3  A    between atoms: C_13  and  C_7 
REMARK    4  A    between atoms: O_42  and  C_7 
REMARK    5  A    between atoms: C_11  and  C_10 
REMARK    6  A    between atoms: C_15  and  O_33 
REMARK    7  A    between atoms: C_16  and  O_34 
REMARK    8  A    between atoms: C_17  and  O_35 
REMARK    9  A    between atoms: C_18  and  O_36 
REMARK   10  A    between atoms: N_23  and  C_19 
REMARK   11  A    between atoms: C_21  and  N_30 
REMARK   12  A    between atoms: C_22  and  N_31 
REMARK   13  A    between atoms: P_46  and  O_38 
REMARK   14  A    between atoms: P_46  and  O_41 
REMARK   15  A    between atoms: P_47  and  O_42 
REMARK   16  A    between atoms: P_46  and  O_45 
REMARK   17  A    between atoms: P_47  and  O_45 
ROOT
HETATM    1  O   UNK N   1      22.048  12.652   2.004  0.00  0.00    -0.624 OA
HETATM    2  O   UNK N   1      23.815  13.936   0.554  0.00  0.00    -0.624 OA
HETATM    3  P   UNK N   1      22.731  14.042   1.911  0.00  0.00     0.417 P 
ENDROOT
BRANCH   3   4
HETATM    4  O   UNK N   1      23.576  14.315   3.422  0.00  0.00    -0.287 OA
BRANCH   4   5
HETATM    5  C   UNK N   1      24.032  13.060   3.836  0.00  0.00     0.216 C 
BRANCH   5   6
HETATM    6  C   UNK N   1      23.669  12.820   5.298  0.00  0.00     0.180 C 
HETATM    7  C   UNK N   1      22.837  11.569   5.557  0.00  0.00     0.182 C 
HETATM    8  C   UNK N   1      22.034  11.959   6.808  0.00  0.00     0.198 C 
HETATM    9  C   UNK N   1      22.565  13.376   7.087  0.00  0.00     0.262 C 
HETATM   10  O   UNK N   1      22.904  13.880   5.815  0.00  0.00    -0.353 OA
BRANCH   7  11
HETATM   11  O   UNK N   1      23.641  10.444   5.749  0.00  0.00    -0.390 OA
HETATM   12  H   UNK N   1      23.854   9.660   5.218  0.00  0.00     0.210 HD
ENDBRANCH   7  11
BRANCH   8  13
HETATM   13  O   UNK N   1      20.686  12.011   6.439  0.00  0.00    -0.388 OA
HETATM   14  H   UNK N   1      19.989  11.572   5.927  0.00  0.00     0.210 HD
ENDBRANCH   8  13
BRANCH   9  15
HETATM   15  N   UNK N   1      21.694  14.309   7.814  0.00  0.00    -0.297 N 
HETATM   16  C   UNK N   1      20.992  13.961   8.927  0.00  0.00     0.188 A 
HETATM   17  N   UNK N   1      20.231  14.992   9.384  0.00  0.00    -0.346 N 
HETATM   18  C   UNK N   1      20.464  15.988   8.511  0.00  0.00     0.122 A 
ATOM     19  HN  UNK N   1      19.624  15.007  10.203  1.00  0.00     0.167 HD
HETATM   20  C   UNK N   1      19.930  17.263   8.467  0.00  0.00     0.131 A 
HETATM   21  C   UNK N   1      21.341  15.581   7.570  0.00  0.00     0.142 A 
HETATM   22  N   UNK N   1      20.313  18.082   7.443  0.00  0.00    -0.337 N 
HETATM   23  C   UNK N   1      21.199  17.647   6.487  0.00  0.00     0.183 A 
ATOM     24  HN  UNK N   1      19.936  19.028   7.388  1.00  0.00     0.168 HD
HETATM   25  N   UNK N   1      21.718  16.382   6.544  0.00  0.00    -0.336 N 
ATOM     26  HN  UNK N   1      22.370  16.051   5.833  1.00  0.00     0.168 HD
BRANCH  20  27
HETATM   27  N   UNK N   1      19.007  17.704   9.436  0.00  0.00    -0.383 N 
HETATM   28  H   UNK N   1      18.350  18.403   9.214  0.00  0.00     0.157 HD
HETATM   29  H   UNK N   1      19.018  17.313  10.339  0.00  0.00     0.157 HD
ENDBRANCH  20  27
ENDBRANCH   9  15
ENDBRANCH   5   6
ENDBRANCH   4   5
ENDBRANCH   3   4
BRANCH   3  30
HETATM   30  O   UNK N   1      21.484  15.207   1.575  0.00  0.00    -0.188 OA
BRANCH  30  31
HETATM   31  P   UNK N   1      20.235  14.993   2.769  0.00  0.00     0.402 P 
HETATM   32  O   UNK N   1      19.063  14.264   2.061  0.00  0.00    -0.631 OA
BRANCH  31  33
HETATM   33  O   UNK N   1      20.772  13.915   4.022  0.00  0.00    -0.307 OA
HETATM   34  H   UNK N   1      20.314  13.897   4.876  0.00  0.00     0.222 HD
ENDBRANCH  31  33
BRANCH  31  35
HETATM   35  O   UNK N   1      19.576  16.473   3.417  0.00  0.00    -0.294 OA
BRANCH  35  36
HETATM   36  C   UNK N   1      19.690  17.429   2.404  0.00  0.00     0.215 C 
BRANCH  36  37
HETATM   37  C   UNK N   1      20.491  18.642   2.884  0.00  0.00     0.180 C 
HETATM   38  C   UNK N   1      20.570  19.809   1.893  0.00  0.00     0.182 C 
HETATM   39  C   UNK N   1      21.891  20.467   2.273  0.00  0.00     0.198 C 
HETATM   40  C   UNK N   1      22.401  19.586   3.415  0.00  0.00     0.259 C 
HETATM   41  O   UNK N   1      21.820  18.313   3.213  0.00  0.00    -0.353 OA
BRANCH  38  42
HETATM   42  O   UNK N   1      20.688  19.345   0.579  0.00  0.00    -0.390 OA
HETATM   43  H   UNK N   1      20.758  18.635  -0.078  0.00  0.00     0.210 HD
ENDBRANCH  38  42
BRANCH  39  44
HETATM   44  O   UNK N   1      21.725  21.791   2.689  0.00  0.00    -0.388 OA
HETATM   45  H   UNK N   1      22.332  22.209   3.320  0.00  0.00     0.210 HD
ENDBRANCH  39  44
BRANCH  40  46
HETATM   46  N   UNK N   1      23.868  19.530   3.499  0.00  0.00    -0.336 N 
HETATM   47  C   UNK N   1      24.610  20.553   2.981  0.00  0.00     0.093 A 
HETATM   48  C   UNK N   1      25.999  20.562   3.109  0.00  0.00     0.018 A 
HETATM   49  C   UNK N   1      26.628  19.535   3.808  0.00  0.00     0.018 A 
HETATM   50  C   UNK N   1      25.869  18.493   4.351  0.00  0.00     0.025 A 
HETATM   51  C   UNK N   1      24.479  18.507   4.171  0.00  0.00     0.108 A 
BRANCH  50  52
HETATM   52  C   UNK N   1      26.510  17.424   5.148  0.00  0.00     0.157 C 
HETATM   53  C   UNK N   1      25.708  16.284   5.686  0.00  0.00     0.097 C 
HETATM   54  O   UNK N   1      27.716  17.445   5.345  0.00  0.00    -0.293 OA
ENDBRANCH  50  52
ENDBRANCH  40  46
ENDBRANCH  36  37
ENDBRANCH  35  36
ENDBRANCH  31  35
ENDBRANCH  30  31
ENDBRANCH   3  30
TORSDOF 17
ENDMDL
