MODEL 1
REMARK VINA RESULT:      -4.0      0.000      0.000
REMARK  2 active torsions:
REMARK  status: ('A' for Active; 'I' for Inactive)
REMARK    1  A    between atoms: S_1  and  C_2 
REMARK    2  A    between atoms: C_2  and  C_3 
ROOT
HETATM    1  C   UNK N   1      35.239  11.875  16.770  0.00  0.00    -0.033 A 
HETATM    2  C   UNK N   1      35.122  13.230  17.111  0.00  0.00     0.009 A 
HETATM    3  C   UNK N   1      35.135  13.655  18.438  0.00  0.00     0.001 A 
HETATM    4  C   UNK N   1      35.267  12.724  19.461  0.00  0.00     0.001 A 
HETATM    5  C   UNK N   1      35.384  11.370  19.156  0.00  0.00     0.019 A 
HETATM    6  C   UNK N   1      35.373  10.920  17.829  0.00  0.00     0.013 A 
HETATM    7  I   UNK N   1      35.568   8.816  17.650  0.00  0.00    -0.044 I 
ENDROOT
BRANCH   1   8
HETATM    8  C   UNK N   1      35.203  11.615  15.279  0.00  0.00     0.110 C 
BRANCH   8   9
HETATM    9  S   UNK N   1      33.795  10.808  14.462  0.00  0.00    -0.178 SA
HETATM   10  H   UNK N   1      32.542  11.314  14.609  0.00  0.00     0.101 HD
ENDBRANCH   8   9
ENDBRANCH   1   8
TORSDOF 2
ENDMDL
MODEL 2
REMARK VINA RESULT:      -4.0     26.253     27.551
REMARK  2 active torsions:
REMARK  status: ('A' for Active; 'I' for Inactive)
REMARK    1  A    between atoms: S_1  and  C_2 
REMARK    2  A    between atoms: C_2  and  C_3 
ROOT
HETATM    1  C   UNK N   1      26.508  25.316  -4.012  0.00  0.00    -0.033 A 
HETATM    2  C   UNK N   1      26.316  26.546  -3.367  0.00  0.00     0.009 A 
HETATM    3  C   UNK N   1      25.632  27.594  -3.979  0.00  0.00     0.001 A 
HETATM    4  C   UNK N   1      25.121  27.432  -5.261  0.00  0.00     0.001 A 
HETATM    5  C   UNK N   1      25.294  26.222  -5.929  0.00  0.00     0.019 A 
HETATM    6  C   UNK N   1      25.979  25.155  -5.333  0.00  0.00     0.013 A 
HETATM    7  I   UNK N   1      26.098  23.435  -6.568  0.00  0.00    -0.044 I 
ENDROOT
BRANCH   1   8
HETATM    8  C   UNK N   1      27.275  24.306  -3.184  0.00  0.00     0.110 C 
BRANCH   8   9
HETATM    9  S   UNK N   1      29.009  23.882  -3.522  0.00  0.00    -0.178 SA
HETATM   10  H   UNK N   1      29.363  22.588  -3.741  0.00  0.00     0.101 HD
ENDBRANCH   8   9
ENDBRANCH   1   8
TORSDOF 2
ENDMDL
MODEL 3
REMARK VINA RESULT:      -4.0     13.751     14.609
REMARK  2 active torsions:
REMARK  status: ('A' for Active; 'I' for Inactive)
REMARK    1  A    between atoms: S_1  and  C_2 
REMARK    2  A    between atoms: C_2  and  C_3 
ROOT
HETATM    1  C   UNK N   1      22.359  12.885   9.696  0.00  0.00    -0.033 A 
HETATM    2  C   UNK N   1      21.942  12.413  10.949  0.00  0.00     0.009 A 
HETATM    3  C   UNK N   1      22.853  11.949  11.896  0.00  0.00     0.001 A 
HETATM    4  C   UNK N   1      24.212  11.946  11.606  0.00  0.00     0.001 A 
HETATM    5  C   UNK N   1      24.658  12.408  10.370  0.00  0.00     0.019 A 
HETATM    6  C   UNK N   1      23.761  12.880   9.403  0.00  0.00     0.013 A 
HETATM    7  I   UNK N   1      24.707  13.521   7.616  0.00  0.00    -0.044 I 
ENDROOT
BRANCH   1   8
HETATM    8  C   UNK N   1      21.222  13.346   8.808  0.00  0.00     0.110 C 
BRANCH   8   9
HETATM    9  S   UNK N   1      20.390  14.944   9.039  0.00  0.00    -0.178 SA
HETATM   10  H   UNK N   1      21.075  16.000   9.553  0.00  0.00     0.101 HD
ENDBRANCH   8   9
ENDBRANCH   1   8
TORSDOF 2
ENDMDL
MODEL 4
REMARK VINA RESULT:      -3.8      2.109      2.917
REMARK  2 active torsions:
REMARK  status: ('A' for Active; 'I' for Inactive)
REMARK    1  A    between atoms: S_1  and  C_2 
REMARK    2  A    between atoms: C_2  and  C_3 
ROOT
HETATM    1  C   UNK N   1      35.266  11.053  18.540  0.00  0.00    -0.033 A 
HETATM    2  C   UNK N   1      35.260  12.113  19.457  0.00  0.00     0.009 A 
HETATM    3  C   UNK N   1      35.220  13.441  19.040  0.00  0.00     0.001 A 
HETATM    4  C   UNK N   1      35.184  13.741  17.684  0.00  0.00     0.001 A 
HETATM    5  C   UNK N   1      35.189  12.710  16.746  0.00  0.00     0.019 A 
HETATM    6  C   UNK N   1      35.230  11.367  17.143  0.00  0.00     0.013 A 
HETATM    7  I   UNK N   1      35.228  10.007  15.515  0.00  0.00    -0.044 I 
ENDROOT
BRANCH   1   8
HETATM    8  C   UNK N   1      35.312   9.685  19.187  0.00  0.00     0.110 C 
BRANCH   8   9
HETATM    9  S   UNK N   1      33.863   8.591  19.261  0.00  0.00    -0.178 SA
HETATM   10  H   UNK N   1      32.892   8.683  18.314  0.00  0.00     0.101 HD
ENDBRANCH   8   9
ENDBRANCH   1   8
TORSDOF 2
ENDMDL
MODEL 5
REMARK VINA RESULT:      -3.8     11.896     13.278
REMARK  2 active torsions:
REMARK  status: ('A' for Active; 'I' for Inactive)
REMARK    1  A    between atoms: S_1  and  C_2 
REMARK    2  A    between atoms: C_2  and  C_3 
ROOT
HETATM    1  C   UNK N   1      31.338  17.221   6.741  0.00  0.00    -0.033 A 
HETATM    2  C   UNK N   1      30.588  17.125   5.560  0.00  0.00     0.009 A 
HETATM    3  C   UNK N   1      31.181  17.236   4.305  0.00  0.00     0.001 A 
HETATM    4  C   UNK N   1      32.550  17.448   4.202  0.00  0.00     0.001 A 
HETATM    5  C   UNK N   1      33.325  17.548   5.356  0.00  0.00     0.019 A 
HETATM    6  C   UNK N   1      32.750  17.440   6.629  0.00  0.00     0.013 A 
HETATM    7  I   UNK N   1      34.153  17.629   8.208  0.00  0.00    -0.044 I 
ENDROOT
BRANCH   1   8
HETATM    8  C   UNK N   1      30.514  17.075   8.002  0.00  0.00     0.110 C 
BRANCH   8   9
HETATM    9  S   UNK N   1      30.128  18.482   9.085  0.00  0.00    -0.178 SA
HETATM   10  H   UNK N   1      29.308  19.474   8.645  0.00  0.00     0.101 HD
ENDBRANCH   8   9
ENDBRANCH   1   8
TORSDOF 2
ENDMDL
MODEL 6
REMARK VINA RESULT:      -3.8     12.153     13.095
REMARK  2 active torsions:
REMARK  status: ('A' for Active; 'I' for Inactive)
REMARK    1  A    between atoms: S_1  and  C_2 
REMARK    2  A    between atoms: C_2  and  C_3 
ROOT
HETATM    1  C   UNK N   1      31.312  17.155   6.524  0.00  0.00    -0.033 A 
HETATM    2  C   UNK N   1      31.577  17.437   7.872  0.00  0.00     0.009 A 
HETATM    3  C   UNK N   1      32.857  17.763   8.313  0.00  0.00     0.001 A 
HETATM    4  C   UNK N   1      33.910  17.814   7.408  0.00  0.00     0.001 A 
HETATM    5  C   UNK N   1      33.680  17.540   6.061  0.00  0.00     0.019 A 
HETATM    6  C   UNK N   1      32.401  17.210   5.595  0.00  0.00     0.013 A 
HETATM    7  I   UNK N   1      32.333  16.841   3.507  0.00  0.00    -0.044 I 
ENDROOT
BRANCH   1   8
HETATM    8  C   UNK N   1      29.862  16.823   6.243  0.00  0.00     0.110 C 
BRANCH   8   9
HETATM    9  S   UNK N   1      28.743  17.977   5.394  0.00  0.00    -0.178 SA
HETATM   10  H   UNK N   1      29.131  18.571   4.234  0.00  0.00     0.101 HD
ENDBRANCH   8   9
ENDBRANCH   1   8
TORSDOF 2
ENDMDL
MODEL 7
REMARK VINA RESULT:      -3.7     29.202     29.742
REMARK  2 active torsions:
REMARK  status: ('A' for Active; 'I' for Inactive)
REMARK    1  A    between atoms: S_1  and  C_2 
REMARK    2  A    between atoms: C_2  and  C_3 
ROOT
HETATM    1  C   UNK N   1      27.233  28.288  -6.266  0.00  0.00    -0.033 A 
HETATM    2  C   UNK N   1      26.808  27.231  -7.085  0.00  0.00     0.009 A 
HETATM    3  C   UNK N   1      25.698  26.456  -6.761  0.00  0.00     0.001 A 
HETATM    4  C   UNK N   1      24.981  26.722  -5.601  0.00  0.00     0.001 A 
HETATM    5  C   UNK N   1      25.377  27.764  -4.766  0.00  0.00     0.019 A 
HETATM    6  C   UNK N   1      26.490  28.558  -5.071  0.00  0.00     0.013 A 
HETATM    7  I   UNK N   1      26.869  30.070  -3.633  0.00  0.00    -0.044 I 
ENDROOT
BRANCH   1   8
HETATM    8  C   UNK N   1      28.457  29.011  -6.787  0.00  0.00     0.110 C 
BRANCH   8   9
HETATM    9  S   UNK N   1      30.115  28.747  -6.093  0.00  0.00    -0.178 SA
HETATM   10  H   UNK N   1      30.358  27.668  -5.302  0.00  0.00     0.101 HD
ENDBRANCH   8   9
ENDBRANCH   1   8
TORSDOF 2
ENDMDL
MODEL 8
REMARK VINA RESULT:      -3.7      2.310      2.840
REMARK  2 active torsions:
REMARK  status: ('A' for Active; 'I' for Inactive)
REMARK    1  A    between atoms: S_1  and  C_2 
REMARK    2  A    between atoms: C_2  and  C_3 
ROOT
HETATM    1  C   UNK N   1      36.102  11.182  16.423  0.00  0.00    -0.033 A 
HETATM    2  C   UNK N   1      35.842  10.787  17.743  0.00  0.00     0.009 A 
HETATM    3  C   UNK N   1      35.351  11.681  18.691  0.00  0.00     0.001 A 
HETATM    4  C   UNK N   1      35.108  13.002  18.337  0.00  0.00     0.001 A 
HETATM    5  C   UNK N   1      35.356  13.427  17.033  0.00  0.00     0.019 A 
HETATM    6  C   UNK N   1      35.850  12.545  16.063  0.00  0.00     0.013 A 
HETATM    7  I   UNK N   1      36.137  13.452  14.167  0.00  0.00    -0.044 I 
ENDROOT
BRANCH   1   8
HETATM    8  C   UNK N   1      36.631  10.068  15.545  0.00  0.00     0.110 C 
BRANCH   8   9
HETATM    9  S   UNK N   1      35.587   9.196  14.340  0.00  0.00    -0.178 SA
HETATM   10  H   UNK N   1      36.043   8.068  13.734  0.00  0.00     0.101 HD
ENDBRANCH   8   9
ENDBRANCH   1   8
TORSDOF 2
ENDMDL
MODEL 9
REMARK VINA RESULT:      -3.7     29.292     29.754
REMARK  2 active torsions:
REMARK  status: ('A' for Active; 'I' for Inactive)
REMARK    1  A    between atoms: S_1  and  C_2 
REMARK    2  A    between atoms: C_2  and  C_3 
ROOT
HETATM    1  C   UNK N   1      26.173  27.020  -6.704  0.00  0.00    -0.033 A 
HETATM    2  C   UNK N   1      25.213  27.026  -5.683  0.00  0.00     0.009 A 
HETATM    3  C   UNK N   1      25.303  27.894  -4.598  0.00  0.00     0.001 A 
HETATM    4  C   UNK N   1      26.367  28.784  -4.510  0.00  0.00     0.001 A 
HETATM    5  C   UNK N   1      27.338  28.804  -5.509  0.00  0.00     0.019 A 
HETATM    6  C   UNK N   1      27.267  27.940  -6.609  0.00  0.00     0.013 A 
HETATM    7  I   UNK N   1      28.872  28.180  -7.975  0.00  0.00    -0.044 I 
ENDROOT
BRANCH   1   8
HETATM    8  C   UNK N   1      25.900  26.006  -7.795  0.00  0.00     0.110 C 
BRANCH   8   9
HETATM    9  S   UNK N   1      26.010  24.215  -7.511  0.00  0.00    -0.178 SA
HETATM   10  H   UNK N   1      26.085  23.730  -6.244  0.00  0.00     0.101 HD
ENDBRANCH   8   9
ENDBRANCH   1   8
TORSDOF 2
ENDMDL
