MODEL 1
REMARK VINA RESULT:      -5.7      0.000      0.000
REMARK  15 active torsions:
REMARK  status: ('A' for Active; 'I' for Inactive)
REMARK    1  A    between atoms: P_1  and  O_2 
REMARK    2  A    between atoms: P_1  and  O_3 
REMARK    3  A    between atoms: P_1  and  O_4 
REMARK    4  A    between atoms: C_6  and  O_2 
REMARK    5  A    between atoms: C_7  and  O_10 
REMARK    6  A    between atoms: C_8  and  O_12 
REMARK    7  A    between atoms: C_9  and  O_14 
REMARK    8  A    between atoms: O_10  and  P_15 
REMARK    9  A    between atoms: C_11  and  O_16 
REMARK   10  A    between atoms: C_13  and  O_17 
REMARK   11  A    between atoms: P_15  and  O_18 
REMARK   12  A    between atoms: P_15  and  O_19 
REMARK   13  A    between atoms: O_16  and  P_21 
REMARK   14  A    between atoms: P_21  and  O_22 
REMARK   15  A    between atoms: P_21  and  O_23 
ROOT
HETATM    1  C   UNK N   1      30.786  17.076   6.453  0.00  0.00     0.197 C 
HETATM    2  C   UNK N   1      30.922  16.989   7.979  0.00  0.00     0.197 C 
HETATM    3  C   UNK N   1      29.338  16.804   6.023  0.00  0.00     0.182 C 
HETATM    4  C   UNK N   1      29.928  17.912   8.692  0.00  0.00     0.181 C 
HETATM    5  C   UNK N   1      28.337  17.711   6.749  0.00  0.00     0.196 C 
HETATM    6  C   UNK N   1      28.504  17.558   8.262  0.00  0.00     0.181 C 
ENDROOT
BRANCH   1   7
HETATM    7  O   UNK N   1      31.623  16.115   5.872  0.00  0.00    -0.286 OA
BRANCH   7   8
HETATM    8  P   UNK N   1      32.790  16.965   4.896  0.00  0.00     0.391 P 
HETATM    9  O   UNK N   1      33.545  15.898   4.061  0.00  0.00    -0.632 OA
BRANCH   8  10
HETATM   10  O   UNK N   1      32.001  18.019   3.764  0.00  0.00    -0.307 OA
HETATM   11  H   UNK N   1      32.349  18.669   3.134  0.00  0.00     0.222 HD
ENDBRANCH   8  10
BRANCH   8  12
HETATM   12  O   UNK N   1      33.985  17.817   5.825  0.00  0.00    -0.307 OA
HETATM   13  H   UNK N   1      34.400  18.677   5.999  0.00  0.00     0.222 HD
ENDBRANCH   8  12
ENDBRANCH   7   8
ENDBRANCH   1   7
BRANCH   2  14
HETATM   14  O   UNK N   1      32.231  17.303   8.361  0.00  0.00    -0.286 OA
BRANCH  14  15
HETATM   15  P   UNK N   1      32.886  15.850   9.065  0.00  0.00     0.391 P 
HETATM   16  O   UNK N   1      34.257  16.203   9.701  0.00  0.00    -0.632 OA
BRANCH  15  17
HETATM   17  O   UNK N   1      31.879  15.197  10.321  0.00  0.00    -0.307 OA
HETATM   18  H   UNK N   1      31.551  14.913  11.189  0.00  0.00     0.222 HD
ENDBRANCH  15  17
BRANCH  15  19
HETATM   19  O   UNK N   1      33.187  14.653   7.844  0.00  0.00    -0.307 OA
HETATM   20  H   UNK N   1      32.551  14.175   7.291  0.00  0.00     0.222 HD
ENDBRANCH  15  19
ENDBRANCH  14  15
ENDBRANCH   2  14
BRANCH   3  21
HETATM   21  O   UNK N   1      29.206  16.947   4.641  0.00  0.00    -0.390 OA
HETATM   22  H   UNK N   1      29.931  17.309   4.109  0.00  0.00     0.210 HD
ENDBRANCH   3  21
BRANCH   4  23
HETATM   23  O   UNK N   1      30.051  17.755  10.072  0.00  0.00    -0.390 OA
HETATM   24  H   UNK N   1      30.740  18.231  10.563  0.00  0.00     0.210 HD
ENDBRANCH   4  23
BRANCH   5  25
HETATM   25  O   UNK N   1      28.482  19.053   6.358  0.00  0.00    -0.286 OA
BRANCH  25  26
HETATM   26  P   UNK N   1      26.995  19.439   5.536  0.00  0.00     0.391 P 
HETATM   27  O   UNK N   1      26.960  20.439   6.724  0.00  0.00    -0.632 OA
BRANCH  26  28
HETATM   28  O   UNK N   1      26.772  20.963   4.736  0.00  0.00    -0.307 OA
HETATM   29  H   UNK N   1      26.871  21.886   5.019  0.00  0.00     0.222 HD
ENDBRANCH  26  28
BRANCH  26  30
HETATM   30  O   UNK N   1      28.351  19.817   4.519  0.00  0.00    -0.307 OA
HETATM   31  H   UNK N   1      29.199  19.344   4.502  0.00  0.00     0.222 HD
ENDBRANCH  26  30
ENDBRANCH  25  26
ENDBRANCH   5  25
BRANCH   6  32
HETATM   32  O   UNK N   1      27.578  18.360   8.934  0.00  0.00    -0.390 OA
HETATM   33  H   UNK N   1      26.780  18.701   8.501  0.00  0.00     0.210 HD
ENDBRANCH   6  32
TORSDOF 15
ENDMDL
MODEL 2
REMARK VINA RESULT:      -5.4      6.036     10.053
REMARK  15 active torsions:
REMARK  status: ('A' for Active; 'I' for Inactive)
REMARK    1  A    between atoms: P_1  and  O_2 
REMARK    2  A    between atoms: P_1  and  O_3 
REMARK    3  A    between atoms: P_1  and  O_4 
REMARK    4  A    between atoms: C_6  and  O_2 
REMARK    5  A    between atoms: C_7  and  O_10 
REMARK    6  A    between atoms: C_8  and  O_12 
REMARK    7  A    between atoms: C_9  and  O_14 
REMARK    8  A    between atoms: O_10  and  P_15 
REMARK    9  A    between atoms: C_11  and  O_16 
REMARK   10  A    between atoms: C_13  and  O_17 
REMARK   11  A    between atoms: P_15  and  O_18 
REMARK   12  A    between atoms: P_15  and  O_19 
REMARK   13  A    between atoms: O_16  and  P_21 
REMARK   14  A    between atoms: P_21  and  O_22 
REMARK   15  A    between atoms: P_21  and  O_23 
ROOT
HETATM    1  C   UNK N   1      22.780  18.099   4.613  0.00  0.00     0.197 C 
HETATM    2  C   UNK N   1      22.108  18.853   3.458  0.00  0.00     0.197 C 
HETATM    3  C   UNK N   1      24.256  17.823   4.292  0.00  0.00     0.182 C 
HETATM    4  C   UNK N   1      22.866  20.135   3.098  0.00  0.00     0.181 C 
HETATM    5  C   UNK N   1      25.014  19.100   3.911  0.00  0.00     0.196 C 
HETATM    6  C   UNK N   1      24.312  19.789   2.739  0.00  0.00     0.181 C 
ENDROOT
BRANCH   1   7
HETATM    7  O   UNK N   1      22.118  16.878   4.798  0.00  0.00    -0.286 OA
BRANCH   7   8
HETATM    8  P   UNK N   1      21.272  16.974   6.318  0.00  0.00     0.391 P 
HETATM    9  O   UNK N   1      19.809  16.530   6.051  0.00  0.00    -0.632 OA
BRANCH   8  10
HETATM   10  O   UNK N   1      21.932  15.852   7.467  0.00  0.00    -0.307 OA
HETATM   11  H   UNK N   1      21.757  14.912   7.629  0.00  0.00     0.222 HD
ENDBRANCH   8  10
BRANCH   8  12
HETATM   12  O   UNK N   1      21.199  18.580   6.975  0.00  0.00    -0.307 OA
HETATM   13  H   UNK N   1      21.705  19.304   7.377  0.00  0.00     0.222 HD
ENDBRANCH   8  12
ENDBRANCH   7   8
ENDBRANCH   1   7
BRANCH   2  14
HETATM   14  O   UNK N   1      20.783  19.154   3.792  0.00  0.00    -0.286 OA
BRANCH  14  15
HETATM   15  P   UNK N   1      19.792  18.274   2.660  0.00  0.00     0.391 P 
HETATM   16  O   UNK N   1      20.492  18.324   1.275  0.00  0.00    -0.632 OA
BRANCH  15  17
HETATM   17  O   UNK N   1      19.600  16.602   3.090  0.00  0.00    -0.307 OA
HETATM   18  H   UNK N   1      19.783  15.665   3.261  0.00  0.00     0.222 HD
ENDBRANCH  15  17
BRANCH  15  19
HETATM   19  O   UNK N   1      18.244  19.036   2.472  0.00  0.00    -0.307 OA
HETATM   20  H   UNK N   1      17.360  18.645   2.551  0.00  0.00     0.222 HD
ENDBRANCH  15  19
ENDBRANCH  14  15
ENDBRANCH   2  14
BRANCH   3  21
HETATM   21  O   UNK N   1      24.879  17.194   5.370  0.00  0.00    -0.390 OA
HETATM   22  H   UNK N   1      24.542  17.307   6.272  0.00  0.00     0.210 HD
ENDBRANCH   3  21
BRANCH   4  23
HETATM   23  O   UNK N   1      22.250  20.753   2.010  0.00  0.00    -0.390 OA
HETATM   24  H   UNK N   1      21.986  20.235   1.233  0.00  0.00     0.210 HD
ENDBRANCH   4  23
BRANCH   5  25
HETATM   25  O   UNK N   1      25.140  19.970   5.006  0.00  0.00    -0.286 OA
BRANCH  25  26
HETATM   26  P   UNK N   1      26.809  19.839   5.489  0.00  0.00     0.391 P 
HETATM   27  O   UNK N   1      26.891  20.931   4.389  0.00  0.00    -0.632 OA
BRANCH  26  28
HETATM   28  O   UNK N   1      27.619  21.137   6.309  0.00  0.00    -0.307 OA
HETATM   29  H   UNK N   1      27.570  21.489   7.212  0.00  0.00     0.222 HD
ENDBRANCH  26  28
BRANCH  26  30
HETATM   30  O   UNK N   1      25.854  20.438   6.810  0.00  0.00    -0.307 OA
HETATM   31  H   UNK N   1      25.488  21.334   6.888  0.00  0.00     0.222 HD
ENDBRANCH  26  30
ENDBRANCH  25  26
ENDBRANCH   5  25
BRANCH   6  32
HETATM   32  O   UNK N   1      25.010  20.940   2.366  0.00  0.00    -0.390 OA
HETATM   33  H   UNK N   1      24.557  21.759   2.109  0.00  0.00     0.210 HD
ENDBRANCH   6  32
TORSDOF 15
ENDMDL
MODEL 3
REMARK VINA RESULT:      -5.3      9.324     11.873
REMARK  15 active torsions:
REMARK  status: ('A' for Active; 'I' for Inactive)
REMARK    1  A    between atoms: P_1  and  O_2 
REMARK    2  A    between atoms: P_1  and  O_3 
REMARK    3  A    between atoms: P_1  and  O_4 
REMARK    4  A    between atoms: C_6  and  O_2 
REMARK    5  A    between atoms: C_7  and  O_10 
REMARK    6  A    between atoms: C_8  and  O_12 
REMARK    7  A    between atoms: C_9  and  O_14 
REMARK    8  A    between atoms: O_10  and  P_15 
REMARK    9  A    between atoms: C_11  and  O_16 
REMARK   10  A    between atoms: C_13  and  O_17 
REMARK   11  A    between atoms: P_15  and  O_18 
REMARK   12  A    between atoms: P_15  and  O_19 
REMARK   13  A    between atoms: O_16  and  P_21 
REMARK   14  A    between atoms: P_21  and  O_22 
REMARK   15  A    between atoms: P_21  and  O_23 
ROOT
HETATM    1  C   UNK N   1      20.418  16.645   3.102  0.00  0.00     0.197 C 
HETATM    2  C   UNK N   1      20.437  16.138   4.550  0.00  0.00     0.197 C 
HETATM    3  C   UNK N   1      20.910  15.555   2.140  0.00  0.00     0.182 C 
HETATM    4  C   UNK N   1      19.646  14.834   4.707  0.00  0.00     0.181 C 
HETATM    5  C   UNK N   1      20.134  14.242   2.307  0.00  0.00     0.196 C 
HETATM    6  C   UNK N   1      20.215  13.775   3.762  0.00  0.00     0.181 C 
ENDROOT
BRANCH   1   7
HETATM    7  O   UNK N   1      21.266  17.756   3.005  0.00  0.00    -0.286 OA
BRANCH   7   8
HETATM    8  P   UNK N   1      20.263  19.148   2.704  0.00  0.00     0.391 P 
HETATM    9  O   UNK N   1      20.718  19.749   1.347  0.00  0.00    -0.632 OA
BRANCH   8  10
HETATM   10  O   UNK N   1      18.600  18.686   2.513  0.00  0.00    -0.307 OA
HETATM   11  H   UNK N   1      17.999  18.730   1.753  0.00  0.00     0.222 HD
ENDBRANCH   8  10
BRANCH   8  12
HETATM   12  O   UNK N   1      20.436  20.402   3.894  0.00  0.00    -0.307 OA
HETATM   13  H   UNK N   1      20.622  21.342   4.045  0.00  0.00     0.222 HD
ENDBRANCH   8  12
ENDBRANCH   7   8
ENDBRANCH   1   7
BRANCH   2  14
HETATM   14  O   UNK N   1      19.925  17.118   5.407  0.00  0.00    -0.286 OA
BRANCH  14  15
HETATM   15  P   UNK N   1      21.218  17.515   6.506  0.00  0.00     0.391 P 
HETATM   16  O   UNK N   1      21.477  16.277   7.406  0.00  0.00    -0.632 OA
BRANCH  15  17
HETATM   17  O   UNK N   1      22.706  17.888   5.689  0.00  0.00    -0.307 OA
HETATM   18  H   UNK N   1      23.417  18.370   5.238  0.00  0.00     0.222 HD
ENDBRANCH  15  17
BRANCH  15  19
HETATM   19  O   UNK N   1      20.758  18.818   7.556  0.00  0.00    -0.307 OA
HETATM   20  H   UNK N   1      20.444  19.705   7.323  0.00  0.00     0.222 HD
ENDBRANCH  15  19
ENDBRANCH  14  15
ENDBRANCH   2  14
BRANCH   3  21
HETATM   21  O   UNK N   1      20.830  15.999   0.820  0.00  0.00    -0.390 OA
HETATM   22  H   UNK N   1      20.668  16.934   0.621  0.00  0.00     0.210 HD
ENDBRANCH   3  21
BRANCH   4  23
HETATM   23  O   UNK N   1      19.740  14.385   6.023  0.00  0.00    -0.390 OA
HETATM   24  H   UNK N   1      18.990  14.480   6.631  0.00  0.00     0.210 HD
ENDBRANCH   4  23
BRANCH   5  25
HETATM   25  O   UNK N   1      18.799  14.378   1.893  0.00  0.00    -0.286 OA
BRANCH  25  26
HETATM   26  P   UNK N   1      18.630  13.264   0.564  0.00  0.00     0.391 P 
HETATM   27  O   UNK N   1      17.648  12.656   1.602  0.00  0.00    -0.632 OA
BRANCH  26  28
HETATM   28  O   UNK N   1      17.153  13.150  -0.340  0.00  0.00    -0.307 OA
HETATM   29  H   UNK N   1      16.215  13.179  -0.093  0.00  0.00     0.222 HD
ENDBRANCH  26  28
BRANCH  26  30
HETATM   30  O   UNK N   1      18.059  14.836   0.097  0.00  0.00    -0.307 OA
HETATM   31  H   UNK N   1      17.134  15.129   0.101  0.00  0.00     0.222 HD
ENDBRANCH  26  30
ENDBRANCH  25  26
ENDBRANCH   5  25
BRANCH   6  32
HETATM   32  O   UNK N   1      19.534  12.565   3.919  0.00  0.00    -0.390 OA
HETATM   33  H   UNK N   1      19.892  11.725   3.593  0.00  0.00     0.210 HD
ENDBRANCH   6  32
TORSDOF 15
ENDMDL
MODEL 4
REMARK VINA RESULT:      -5.1      4.355      6.479
REMARK  15 active torsions:
REMARK  status: ('A' for Active; 'I' for Inactive)
REMARK    1  A    between atoms: P_1  and  O_2 
REMARK    2  A    between atoms: P_1  and  O_3 
REMARK    3  A    between atoms: P_1  and  O_4 
REMARK    4  A    between atoms: C_6  and  O_2 
REMARK    5  A    between atoms: C_7  and  O_10 
REMARK    6  A    between atoms: C_8  and  O_12 
REMARK    7  A    between atoms: C_9  and  O_14 
REMARK    8  A    between atoms: O_10  and  P_15 
REMARK    9  A    between atoms: C_11  and  O_16 
REMARK   10  A    between atoms: C_13  and  O_17 
REMARK   11  A    between atoms: P_15  and  O_18 
REMARK   12  A    between atoms: P_15  and  O_19 
REMARK   13  A    between atoms: O_16  and  P_21 
REMARK   14  A    between atoms: P_21  and  O_22 
REMARK   15  A    between atoms: P_21  and  O_23 
ROOT
HETATM    1  C   UNK N   1      34.088  13.843   9.455  0.00  0.00     0.197 C 
HETATM    2  C   UNK N   1      35.154  14.369  10.425  0.00  0.00     0.197 C 
HETATM    3  C   UNK N   1      33.002  14.903   9.220  0.00  0.00     0.182 C 
HETATM    4  C   UNK N   1      35.746  15.702   9.952  0.00  0.00     0.181 C 
HETATM    5  C   UNK N   1      33.590  16.244   8.766  0.00  0.00     0.196 C 
HETATM    6  C   UNK N   1      34.623  16.727   9.787  0.00  0.00     0.181 C 
ENDROOT
BRANCH   1   7
HETATM    7  O   UNK N   1      33.498  12.701  10.013  0.00  0.00    -0.286 OA
BRANCH   7   8
HETATM    8  P   UNK N   1      33.780  11.382   8.910  0.00  0.00     0.391 P 
HETATM    9  O   UNK N   1      33.181  10.109   9.565  0.00  0.00    -0.632 OA
BRANCH   8  10
HETATM   10  O   UNK N   1      32.925  11.626   7.419  0.00  0.00    -0.307 OA
HETATM   11  H   UNK N   1      33.114  11.345   6.510  0.00  0.00     0.222 HD
ENDBRANCH   8  10
BRANCH   8  12
HETATM   12  O   UNK N   1      35.463  11.059   8.627  0.00  0.00    -0.307 OA
HETATM   13  H   UNK N   1      36.110  10.416   8.298  0.00  0.00     0.222 HD
ENDBRANCH   8  12
ENDBRANCH   7   8
ENDBRANCH   1   7
BRANCH   2  14
HETATM   14  O   UNK N   1      36.170  13.419  10.578  0.00  0.00    -0.286 OA
BRANCH  14  15
HETATM   15  P   UNK N   1      36.155  12.970  12.262  0.00  0.00     0.391 P 
HETATM   16  O   UNK N   1      36.936  11.637  12.409  0.00  0.00    -0.632 OA
BRANCH  15  17
HETATM   17  O   UNK N   1      36.930  14.146  13.280  0.00  0.00    -0.307 OA
HETATM   18  H   UNK N   1      37.369  14.953  13.591  0.00  0.00     0.222 HD
ENDBRANCH  15  17
BRANCH  15  19
HETATM   19  O   UNK N   1      34.534  12.669  12.806  0.00  0.00    -0.307 OA
HETATM   20  H   UNK N   1      34.091  12.992  13.606  0.00  0.00     0.222 HD
ENDBRANCH  15  19
ENDBRANCH  14  15
ENDBRANCH   2  14
BRANCH   3  21
HETATM   21  O   UNK N   1      32.069  14.445   8.289  0.00  0.00    -0.390 OA
HETATM   22  H   UNK N   1      32.139  13.553   7.915  0.00  0.00     0.210 HD
ENDBRANCH   3  21
BRANCH   4  23
HETATM   23  O   UNK N   1      36.666  16.165  10.892  0.00  0.00    -0.390 OA
HETATM   24  H   UNK N   1      37.547  15.763  10.959  0.00  0.00     0.210 HD
ENDBRANCH   4  23
BRANCH   5  25
HETATM   25  O   UNK N   1      34.152  16.152   7.483  0.00  0.00    -0.286 OA
BRANCH  25  26
HETATM   26  P   UNK N   1      33.153  17.173   6.485  0.00  0.00     0.391 P 
HETATM   27  O   UNK N   1      34.501  17.943   6.461  0.00  0.00    -0.632 OA
BRANCH  26  28
HETATM   28  O   UNK N   1      33.453  17.350   4.785  0.00  0.00    -0.307 OA
HETATM   29  H   UNK N   1      33.026  16.991   3.991  0.00  0.00     0.222 HD
ENDBRANCH  26  28
BRANCH  26  30
HETATM   30  O   UNK N   1      33.371  15.628   5.723  0.00  0.00    -0.307 OA
HETATM   31  H   UNK N   1      33.296  15.446   4.772  0.00  0.00     0.222 HD
ENDBRANCH  26  30
ENDBRANCH  25  26
ENDBRANCH   5  25
BRANCH   6  32
HETATM   32  O   UNK N   1      35.146  17.963   9.397  0.00  0.00    -0.390 OA
HETATM   33  H   UNK N   1      34.604  18.639   8.961  0.00  0.00     0.210 HD
ENDBRANCH   6  32
TORSDOF 15
ENDMDL
MODEL 5
REMARK VINA RESULT:      -5.1      6.600      9.702
REMARK  15 active torsions:
REMARK  status: ('A' for Active; 'I' for Inactive)
REMARK    1  A    between atoms: P_1  and  O_2 
REMARK    2  A    between atoms: P_1  and  O_3 
REMARK    3  A    between atoms: P_1  and  O_4 
REMARK    4  A    between atoms: C_6  and  O_2 
REMARK    5  A    between atoms: C_7  and  O_10 
REMARK    6  A    between atoms: C_8  and  O_12 
REMARK    7  A    between atoms: C_9  and  O_14 
REMARK    8  A    between atoms: O_10  and  P_15 
REMARK    9  A    between atoms: C_11  and  O_16 
REMARK   10  A    between atoms: C_13  and  O_17 
REMARK   11  A    between atoms: P_15  and  O_18 
REMARK   12  A    between atoms: P_15  and  O_19 
REMARK   13  A    between atoms: O_16  and  P_21 
REMARK   14  A    between atoms: P_21  and  O_22 
REMARK   15  A    between atoms: P_21  and  O_23 
ROOT
HETATM    1  C   UNK N   1      22.254  18.132   3.710  0.00  0.00     0.197 C 
HETATM    2  C   UNK N   1      23.539  17.836   4.494  0.00  0.00     0.197 C 
HETATM    3  C   UNK N   1      21.739  16.863   3.017  0.00  0.00     0.182 C 
HETATM    4  C   UNK N   1      23.349  16.680   5.482  0.00  0.00     0.181 C 
HETATM    5  C   UNK N   1      21.566  15.696   3.998  0.00  0.00     0.196 C 
HETATM    6  C   UNK N   1      22.887  15.433   4.726  0.00  0.00     0.181 C 
ENDROOT
BRANCH   1   7
HETATM    7  O   UNK N   1      22.534  19.101   2.738  0.00  0.00    -0.286 OA
BRANCH   7   8
HETATM    8  P   UNK N   1      21.264  20.292   2.812  0.00  0.00     0.391 P 
HETATM    9  O   UNK N   1      20.590  20.147   4.203  0.00  0.00    -0.632 OA
BRANCH   8  10
HETATM   10  O   UNK N   1      21.916  21.899   2.737  0.00  0.00    -0.307 OA
HETATM   11  H   UNK N   1      21.826  22.604   2.078  0.00  0.00     0.222 HD
ENDBRANCH   8  10
BRANCH   8  12
HETATM   12  O   UNK N   1      20.020  20.059   1.622  0.00  0.00    -0.307 OA
HETATM   13  H   UNK N   1      19.632  20.386   0.796  0.00  0.00     0.222 HD
ENDBRANCH   8  12
ENDBRANCH   7   8
ENDBRANCH   1   7
BRANCH   2  14
HETATM   14  O   UNK N   1      23.960  18.985   5.173  0.00  0.00    -0.286 OA
BRANCH  14  15
HETATM   15  P   UNK N   1      25.510  19.401   4.493  0.00  0.00     0.391 P 
HETATM   16  O   UNK N   1      26.192  20.420   5.445  0.00  0.00    -0.632 OA
BRANCH  15  17
HETATM   17  O   UNK N   1      26.569  18.032   4.344  0.00  0.00    -0.307 OA
HETATM   18  H   UNK N   1      27.260  17.375   4.521  0.00  0.00     0.222 HD
ENDBRANCH  15  17
BRANCH  15  19
HETATM   19  O   UNK N   1      25.319  20.192   2.959  0.00  0.00    -0.307 OA
HETATM   20  H   UNK N   1      24.802  19.910   2.190  0.00  0.00     0.222 HD
ENDBRANCH  15  19
ENDBRANCH  14  15
ENDBRANCH   2  14
BRANCH   3  21
HETATM   21  O   UNK N   1      20.536  17.122   2.359  0.00  0.00    -0.390 OA
HETATM   22  H   UNK N   1      20.526  17.596   1.513  0.00  0.00     0.210 HD
ENDBRANCH   3  21
BRANCH   4  23
HETATM   23  O   UNK N   1      24.556  16.413   6.127  0.00  0.00    -0.390 OA
HETATM   24  H   UNK N   1      25.293  17.042   6.075  0.00  0.00     0.210 HD
ENDBRANCH   4  23
BRANCH   5  25
HETATM   25  O   UNK N   1      20.527  15.941   4.910  0.00  0.00    -0.286 OA
BRANCH  25  26
HETATM   26  P   UNK N   1      19.309  14.755   4.526  0.00  0.00     0.391 P 
HETATM   27  O   UNK N   1      19.616  14.412   6.009  0.00  0.00    -0.632 OA
BRANCH  26  28
HETATM   28  O   UNK N   1      17.735  14.803   5.254  0.00  0.00    -0.307 OA
HETATM   29  H   UNK N   1      16.864  14.473   4.983  0.00  0.00     0.222 HD
ENDBRANCH  26  28
BRANCH  26  30
HETATM   30  O   UNK N   1      18.630  16.351   4.443  0.00  0.00    -0.307 OA
HETATM   31  H   UNK N   1      17.689  16.564   4.344  0.00  0.00     0.222 HD
ENDBRANCH  26  30
ENDBRANCH  25  26
ENDBRANCH   5  25
BRANCH   6  32
HETATM   32  O   UNK N   1      22.748  14.355   5.603  0.00  0.00    -0.390 OA
HETATM   33  H   UNK N   1      22.475  13.474   5.300  0.00  0.00     0.210 HD
ENDBRANCH   6  32
TORSDOF 15
ENDMDL
MODEL 6
REMARK VINA RESULT:      -5.1      4.623      8.052
REMARK  15 active torsions:
REMARK  status: ('A' for Active; 'I' for Inactive)
REMARK    1  A    between atoms: P_1  and  O_2 
REMARK    2  A    between atoms: P_1  and  O_3 
REMARK    3  A    between atoms: P_1  and  O_4 
REMARK    4  A    between atoms: C_6  and  O_2 
REMARK    5  A    between atoms: C_7  and  O_10 
REMARK    6  A    between atoms: C_8  and  O_12 
REMARK    7  A    between atoms: C_9  and  O_14 
REMARK    8  A    between atoms: O_10  and  P_15 
REMARK    9  A    between atoms: C_11  and  O_16 
REMARK   10  A    between atoms: C_13  and  O_17 
REMARK   11  A    between atoms: P_15  and  O_18 
REMARK   12  A    between atoms: P_15  and  O_19 
REMARK   13  A    between atoms: O_16  and  P_21 
REMARK   14  A    between atoms: P_21  and  O_22 
REMARK   15  A    between atoms: P_21  and  O_23 
ROOT
HETATM    1  C   UNK N   1      34.588  14.003   8.794  0.00  0.00     0.197 C 
HETATM    2  C   UNK N   1      34.650  15.531   8.912  0.00  0.00     0.197 C 
HETATM    3  C   UNK N   1      35.786  13.356   9.504  0.00  0.00     0.182 C 
HETATM    4  C   UNK N   1      34.765  15.984  10.372  0.00  0.00     0.181 C 
HETATM    5  C   UNK N   1      35.917  13.822  10.959  0.00  0.00     0.196 C 
HETATM    6  C   UNK N   1      36.003  15.349  11.007  0.00  0.00     0.181 C 
ENDROOT
BRANCH   1   7
HETATM    7  O   UNK N   1      34.621  13.656   7.437  0.00  0.00    -0.286 OA
BRANCH   7   8
HETATM    8  P   UNK N   1      33.128  12.832   7.077  0.00  0.00     0.391 P 
HETATM    9  O   UNK N   1      32.824  11.900   8.279  0.00  0.00    -0.632 OA
BRANCH   8  10
HETATM   10  O   UNK N   1      31.810  13.957   6.970  0.00  0.00    -0.307 OA
HETATM   11  H   UNK N   1      30.857  13.854   7.117  0.00  0.00     0.222 HD
ENDBRANCH   8  10
BRANCH   8  12
HETATM   12  O   UNK N   1      33.212  11.823   5.665  0.00  0.00    -0.307 OA
HETATM   13  H   UNK N   1      32.884  11.017   5.238  0.00  0.00     0.222 HD
ENDBRANCH   8  12
ENDBRANCH   7   8
ENDBRANCH   1   7
BRANCH   2  14
HETATM   14  O   UNK N   1      33.520  16.103   8.318  0.00  0.00    -0.286 OA
BRANCH  14  15
HETATM   15  P   UNK N   1      34.105  17.008   6.949  0.00  0.00     0.391 P 
HETATM   16  O   UNK N   1      34.779  18.301   7.485  0.00  0.00    -0.632 OA
BRANCH  15  17
HETATM   17  O   UNK N   1      35.295  16.142   6.027  0.00  0.00    -0.307 OA
HETATM   18  H   UNK N   1      35.715  15.566   5.368  0.00  0.00     0.222 HD
ENDBRANCH  15  17
BRANCH  15  19
HETATM   19  O   UNK N   1      32.792  17.507   5.931  0.00  0.00    -0.307 OA
HETATM   20  H   UNK N   1      32.674  18.344   5.455  0.00  0.00     0.222 HD
ENDBRANCH  15  19
ENDBRANCH  14  15
ENDBRANCH   2  14
BRANCH   3  21
HETATM   21  O   UNK N   1      35.692  11.965   9.449  0.00  0.00    -0.390 OA
HETATM   22  H   UNK N   1      36.408  11.406   9.786  0.00  0.00     0.210 HD
ENDBRANCH   3  21
BRANCH   4  23
HETATM   23  O   UNK N   1      34.875  17.373  10.423  0.00  0.00    -0.390 OA
HETATM   24  H   UNK N   1      34.091  17.934  10.316  0.00  0.00     0.210 HD
ENDBRANCH   4  23
BRANCH   5  25
HETATM   25  O   UNK N   1      34.855  13.350  11.748  0.00  0.00    -0.286 OA
BRANCH  25  26
HETATM   26  P   UNK N   1      35.612  12.360  12.966  0.00  0.00     0.391 P 
HETATM   27  O   UNK N   1      34.955  13.468  13.834  0.00  0.00    -0.632 OA
BRANCH  26  28
HETATM   28  O   UNK N   1      34.672  11.440  14.098  0.00  0.00    -0.307 OA
HETATM   29  H   UNK N   1      33.870  11.630  14.609  0.00  0.00     0.222 HD
ENDBRANCH  26  28
BRANCH  26  30
HETATM   30  O   UNK N   1      34.366  11.460  12.159  0.00  0.00    -0.307 OA
HETATM   31  H   UNK N   1      34.326  11.269  11.208  0.00  0.00     0.222 HD
ENDBRANCH  26  30
ENDBRANCH  25  26
ENDBRANCH   5  25
BRANCH   6  32
HETATM   32  O   UNK N   1      36.150  15.783  12.327  0.00  0.00    -0.390 OA
HETATM   33  H   UNK N   1      36.183  16.725  12.561  0.00  0.00     0.210 HD
ENDBRANCH   6  32
TORSDOF 15
ENDMDL
MODEL 7
REMARK VINA RESULT:      -4.9     12.077     14.815
REMARK  15 active torsions:
REMARK  status: ('A' for Active; 'I' for Inactive)
REMARK    1  A    between atoms: P_1  and  O_2 
REMARK    2  A    between atoms: P_1  and  O_3 
REMARK    3  A    between atoms: P_1  and  O_4 
REMARK    4  A    between atoms: C_6  and  O_2 
REMARK    5  A    between atoms: C_7  and  O_10 
REMARK    6  A    between atoms: C_8  and  O_12 
REMARK    7  A    between atoms: C_9  and  O_14 
REMARK    8  A    between atoms: O_10  and  P_15 
REMARK    9  A    between atoms: C_11  and  O_16 
REMARK   10  A    between atoms: C_13  and  O_17 
REMARK   11  A    between atoms: P_15  and  O_18 
REMARK   12  A    between atoms: P_15  and  O_19 
REMARK   13  A    between atoms: O_16  and  P_21 
REMARK   14  A    between atoms: P_21  and  O_22 
REMARK   15  A    between atoms: P_21  and  O_23 
ROOT
HETATM    1  C   UNK N   1      28.172  23.913  -5.552  0.00  0.00     0.197 C 
HETATM    2  C   UNK N   1      29.380  23.053  -5.157  0.00  0.00     0.197 C 
HETATM    3  C   UNK N   1      28.226  24.267  -7.045  0.00  0.00     0.182 C 
HETATM    4  C   UNK N   1      29.503  21.805  -6.039  0.00  0.00     0.181 C 
HETATM    5  C   UNK N   1      28.369  23.023  -7.931  0.00  0.00     0.196 C 
HETATM    6  C   UNK N   1      29.603  22.225  -7.506  0.00  0.00     0.181 C 
ENDROOT
BRANCH   1   7
HETATM    7  O   UNK N   1      28.198  25.095  -4.802  0.00  0.00    -0.286 OA
BRANCH   7   8
HETATM    8  P   UNK N   1      26.763  25.114  -3.814  0.00  0.00     0.391 P 
HETATM    9  O   UNK N   1      25.583  24.680  -4.723  0.00  0.00    -0.632 OA
BRANCH   8  10
HETATM   10  O   UNK N   1      26.872  23.939  -2.540  0.00  0.00    -0.307 OA
HETATM   11  H   UNK N   1      26.218  23.612  -1.904  0.00  0.00     0.222 HD
ENDBRANCH   8  10
BRANCH   8  12
HETATM   12  O   UNK N   1      26.367  26.686  -3.191  0.00  0.00    -0.307 OA
HETATM   13  H   UNK N   1      26.035  27.184  -2.427  0.00  0.00     0.222 HD
ENDBRANCH   8  12
ENDBRANCH   7   8
ENDBRANCH   1   7
BRANCH   2  14
HETATM   14  O   UNK N   1      29.284  22.684  -3.811  0.00  0.00    -0.286 OA
BRANCH  14  15
HETATM   15  P   UNK N   1      30.689  23.355  -3.030  0.00  0.00     0.391 P 
HETATM   16  O   UNK N   1      30.642  22.952  -1.532  0.00  0.00    -0.632 OA
BRANCH  15  17
HETATM   17  O   UNK N   1      32.179  22.751  -3.688  0.00  0.00    -0.307 OA
HETATM   18  H   UNK N   1      33.052  22.705  -4.109  0.00  0.00     0.222 HD
ENDBRANCH  15  17
BRANCH  15  19
HETATM   19  O   UNK N   1      30.658  25.090  -3.087  0.00  0.00    -0.307 OA
HETATM   20  H   UNK N   1      30.045  25.672  -3.562  0.00  0.00     0.222 HD
ENDBRANCH  15  19
ENDBRANCH  14  15
ENDBRANCH   2  14
BRANCH   3  21
HETATM   21  O   UNK N   1      27.093  24.994  -7.414  0.00  0.00    -0.390 OA
HETATM   22  H   UNK N   1      27.056  25.454  -8.266  0.00  0.00     0.210 HD
ENDBRANCH   3  21
BRANCH   4  23
HETATM   23  O   UNK N   1      30.643  21.088  -5.679  0.00  0.00    -0.390 OA
HETATM   24  H   UNK N   1      31.485  21.545  -5.527  0.00  0.00     0.210 HD
ENDBRANCH   4  23
BRANCH   5  25
HETATM   25  O   UNK N   1      27.213  22.226  -7.888  0.00  0.00    -0.286 OA
BRANCH  25  26
HETATM   26  P   UNK N   1      26.575  22.281  -9.509  0.00  0.00     0.391 P 
HETATM   27  O   UNK N   1      26.993  20.790  -9.394  0.00  0.00    -0.632 OA
BRANCH  26  28
HETATM   28  O   UNK N   1      25.113  21.449  -9.936  0.00  0.00    -0.307 OA
HETATM   29  H   UNK N   1      24.414  21.619 -10.588  0.00  0.00     0.222 HD
ENDBRANCH  26  28
BRANCH  26  30
HETATM   30  O   UNK N   1      25.312  22.605  -8.363  0.00  0.00    -0.307 OA
HETATM   31  H   UNK N   1      24.929  23.476  -8.168  0.00  0.00     0.222 HD
ENDBRANCH  26  30
ENDBRANCH  25  26
ENDBRANCH   5  25
BRANCH   6  32
HETATM   32  O   UNK N   1      29.759  21.103  -8.325  0.00  0.00    -0.390 OA
HETATM   33  H   UNK N   1      29.319  20.260  -8.133  0.00  0.00     0.210 HD
ENDBRANCH   6  32
TORSDOF 15
ENDMDL
MODEL 8
REMARK VINA RESULT:      -4.9      4.493      8.241
REMARK  15 active torsions:
REMARK  status: ('A' for Active; 'I' for Inactive)
REMARK    1  A    between atoms: P_1  and  O_2 
REMARK    2  A    between atoms: P_1  and  O_3 
REMARK    3  A    between atoms: P_1  and  O_4 
REMARK    4  A    between atoms: C_6  and  O_2 
REMARK    5  A    between atoms: C_7  and  O_10 
REMARK    6  A    between atoms: C_8  and  O_12 
REMARK    7  A    between atoms: C_9  and  O_14 
REMARK    8  A    between atoms: O_10  and  P_15 
REMARK    9  A    between atoms: C_11  and  O_16 
REMARK   10  A    between atoms: C_13  and  O_17 
REMARK   11  A    between atoms: P_15  and  O_18 
REMARK   12  A    between atoms: P_15  and  O_19 
REMARK   13  A    between atoms: O_16  and  P_21 
REMARK   14  A    between atoms: P_21  and  O_22 
REMARK   15  A    between atoms: P_21  and  O_23 
ROOT
HETATM    1  C   UNK N   1      34.427  15.024   8.785  0.00  0.00     0.197 C 
HETATM    2  C   UNK N   1      35.062  14.130   7.712  0.00  0.00     0.197 C 
HETATM    3  C   UNK N   1      33.940  14.181   9.971  0.00  0.00     0.182 C 
HETATM    4  C   UNK N   1      36.178  13.252   8.289  0.00  0.00     0.181 C 
HETATM    5  C   UNK N   1      35.048  13.286  10.540  0.00  0.00     0.196 C 
HETATM    6  C   UNK N   1      35.619  12.401   9.430  0.00  0.00     0.181 C 
ENDROOT
BRANCH   1   7
HETATM    7  O   UNK N   1      33.334  15.694   8.222  0.00  0.00    -0.286 OA
BRANCH   7   8
HETATM    8  P   UNK N   1      33.678  17.400   8.295  0.00  0.00     0.391 P 
HETATM    9  O   UNK N   1      34.590  17.625   9.530  0.00  0.00    -0.632 OA
BRANCH   8  10
HETATM   10  O   UNK N   1      34.586  17.909   6.905  0.00  0.00    -0.307 OA
HETATM   11  H   UNK N   1      34.610  18.748   6.418  0.00  0.00     0.222 HD
ENDBRANCH   8  10
BRANCH   8  12
HETATM   12  O   UNK N   1      32.267  18.387   8.523  0.00  0.00    -0.307 OA
HETATM   13  H   UNK N   1      31.426  18.482   8.996  0.00  0.00     0.222 HD
ENDBRANCH   8  12
ENDBRANCH   7   8
ENDBRANCH   1   7
BRANCH   2  14
HETATM   14  O   UNK N   1      35.560  14.917   6.667  0.00  0.00    -0.286 OA
BRANCH  14  15
HETATM   15  P   UNK N   1      34.539  14.589   5.293  0.00  0.00     0.391 P 
HETATM   16  O   UNK N   1      34.050  15.950   4.726  0.00  0.00    -0.632 OA
BRANCH  15  17
HETATM   17  O   UNK N   1      35.374  13.759   4.016  0.00  0.00    -0.307 OA
HETATM   18  H   UNK N   1      36.076  13.396   3.454  0.00  0.00     0.222 HD
ENDBRANCH  15  17
BRANCH  15  19
HETATM   19  O   UNK N   1      33.125  13.704   5.771  0.00  0.00    -0.307 OA
HETATM   20  H   UNK N   1      33.066  12.835   6.197  0.00  0.00     0.222 HD
ENDBRANCH  15  19
ENDBRANCH  14  15
ENDBRANCH   2  14
BRANCH   3  21
HETATM   21  O   UNK N   1      33.422  15.003  10.973  0.00  0.00    -0.390 OA
HETATM   22  H   UNK N   1      32.870  15.768  10.749  0.00  0.00     0.210 HD
ENDBRANCH   3  21
BRANCH   4  23
HETATM   23  O   UNK N   1      36.683  12.420   7.290  0.00  0.00    -0.390 OA
HETATM   24  H   UNK N   1      36.085  11.886   6.744  0.00  0.00     0.210 HD
ENDBRANCH   4  23
BRANCH   5  25
HETATM   25  O   UNK N   1      36.059  14.045  11.152  0.00  0.00    -0.286 OA
BRANCH  25  26
HETATM   26  P   UNK N   1      35.873  13.742  12.858  0.00  0.00     0.391 P 
HETATM   27  O   UNK N   1      37.165  12.942  12.542  0.00  0.00    -0.632 OA
BRANCH  26  28
HETATM   28  O   UNK N   1      36.997  14.375  14.018  0.00  0.00    -0.307 OA
HETATM   29  H   UNK N   1      37.911  14.695  13.956  0.00  0.00     0.222 HD
ENDBRANCH  26  28
BRANCH  26  30
HETATM   30  O   UNK N   1      36.171  15.430  12.584  0.00  0.00    -0.307 OA
HETATM   31  H   UNK N   1      35.516  16.143  12.652  0.00  0.00     0.222 HD
ENDBRANCH  26  30
ENDBRANCH  25  26
ENDBRANCH   5  25
BRANCH   6  32
HETATM   32  O   UNK N   1      36.612  11.562   9.943  0.00  0.00    -0.390 OA
HETATM   33  H   UNK N   1      36.435  10.929  10.657  0.00  0.00     0.210 HD
ENDBRANCH   6  32
TORSDOF 15
ENDMDL
MODEL 9
REMARK VINA RESULT:      -4.9      9.308     12.063
REMARK  15 active torsions:
REMARK  status: ('A' for Active; 'I' for Inactive)
REMARK    1  A    between atoms: P_1  and  O_2 
REMARK    2  A    between atoms: P_1  and  O_3 
REMARK    3  A    between atoms: P_1  and  O_4 
REMARK    4  A    between atoms: C_6  and  O_2 
REMARK    5  A    between atoms: C_7  and  O_10 
REMARK    6  A    between atoms: C_8  and  O_12 
REMARK    7  A    between atoms: C_9  and  O_14 
REMARK    8  A    between atoms: O_10  and  P_15 
REMARK    9  A    between atoms: C_11  and  O_16 
REMARK   10  A    between atoms: C_13  and  O_17 
REMARK   11  A    between atoms: P_15  and  O_18 
REMARK   12  A    between atoms: P_15  and  O_19 
REMARK   13  A    between atoms: O_16  and  P_21 
REMARK   14  A    between atoms: P_21  and  O_22 
REMARK   15  A    between atoms: P_21  and  O_23 
ROOT
HETATM    1  C   UNK N   1      20.495  16.332   4.097  0.00  0.00     0.197 C 
HETATM    2  C   UNK N   1      20.345  16.995   2.722  0.00  0.00     0.197 C 
HETATM    3  C   UNK N   1      19.655  15.050   4.175  0.00  0.00     0.182 C 
HETATM    4  C   UNK N   1      20.675  16.023   1.583  0.00  0.00     0.181 C 
HETATM    5  C   UNK N   1      19.967  14.083   3.026  0.00  0.00     0.196 C 
HETATM    6  C   UNK N   1      19.772  14.793   1.685  0.00  0.00     0.181 C 
ENDROOT
BRANCH   1   7
HETATM    7  O   UNK N   1      20.051  17.228   5.079  0.00  0.00    -0.286 OA
BRANCH   7   8
HETATM    8  P   UNK N   1      21.412  17.586   6.107  0.00  0.00     0.391 P 
HETATM    9  O   UNK N   1      20.958  18.702   7.085  0.00  0.00    -0.632 OA
BRANCH   8  10
HETATM   10  O   UNK N   1      21.834  16.211   7.078  0.00  0.00    -0.307 OA
HETATM   11  H   UNK N   1      21.658  15.995   8.007  0.00  0.00     0.222 HD
ENDBRANCH   8  10
BRANCH   8  12
HETATM   12  O   UNK N   1      22.791  18.200   5.248  0.00  0.00    -0.307 OA
HETATM   13  H   UNK N   1      23.404  18.945   5.146  0.00  0.00     0.222 HD
ENDBRANCH   8  12
ENDBRANCH   7   8
ENDBRANCH   1   7
BRANCH   2  14
HETATM   14  O   UNK N   1      21.167  18.125   2.644  0.00  0.00    -0.286 OA
BRANCH  14  15
HETATM   15  P   UNK N   1      20.091  19.490   2.522  0.00  0.00     0.391 P 
HETATM   16  O   UNK N   1      20.293  20.371   3.785  0.00  0.00    -0.632 OA
BRANCH  15  17
HETATM   17  O   UNK N   1      20.417  20.483   1.134  0.00  0.00    -0.307 OA
HETATM   18  H   UNK N   1      20.485  20.799   0.220  0.00  0.00     0.222 HD
ENDBRANCH  15  17
BRANCH  15  19
HETATM   19  O   UNK N   1      18.434  18.974   2.525  0.00  0.00    -0.307 OA
HETATM   20  H   UNK N   1      18.076  18.077   2.441  0.00  0.00     0.222 HD
ENDBRANCH  15  19
ENDBRANCH  14  15
ENDBRANCH   2  14
BRANCH   3  21
HETATM   21  O   UNK N   1      19.844  14.417   5.404  0.00  0.00    -0.390 OA
HETATM   22  H   UNK N   1      20.724  14.375   5.809  0.00  0.00     0.210 HD
ENDBRANCH   3  21
BRANCH   4  23
HETATM   23  O   UNK N   1      20.470  16.653   0.357  0.00  0.00    -0.390 OA
HETATM   24  H   UNK N   1      20.348  16.131  -0.452  0.00  0.00     0.210 HD
ENDBRANCH   4  23
BRANCH   5  25
HETATM   25  O   UNK N   1      21.264  13.556   3.134  0.00  0.00    -0.286 OA
BRANCH  25  26
HETATM   26  P   UNK N   1      21.033  11.836   3.297  0.00  0.00     0.391 P 
HETATM   27  O   UNK N   1      21.855  11.914   1.982  0.00  0.00    -0.632 OA
BRANCH  26  28
HETATM   28  O   UNK N   1      22.364  10.771   3.623  0.00  0.00    -0.307 OA
HETATM   29  H   UNK N   1      23.189  10.571   3.154  0.00  0.00     0.222 HD
ENDBRANCH  26  28
BRANCH  26  30
HETATM   30  O   UNK N   1      22.005  12.431   4.607  0.00  0.00    -0.307 OA
HETATM   31  H   UNK N   1      22.675  13.131   4.547  0.00  0.00     0.222 HD
ENDBRANCH  26  30
ENDBRANCH  25  26
ENDBRANCH   5  25
BRANCH   6  32
HETATM   32  O   UNK N   1      20.027  13.913   0.630  0.00  0.00    -0.390 OA
HETATM   33  H   UNK N   1      20.566  14.167  -0.136  0.00  0.00     0.210 HD
ENDBRANCH   6  32
TORSDOF 15
ENDMDL
