MODEL 1
REMARK VINA RESULT:      -6.8      0.000      0.000
REMARK  27 active torsions:
REMARK  status: ('A' for Active; 'I' for Inactive)
REMARK    1  A    between atoms: C_3  and  C_1 
REMARK    2  A    between atoms: C_5  and  C_1 
REMARK    3  A    between atoms: C_4  and  C_2 
REMARK    4  A    between atoms: C_6  and  C_2 
REMARK    5  A    between atoms: N_30  and  C_3 
REMARK    6  A    between atoms: N_32  and  C_4 
REMARK    7  A    between atoms: O_47  and  C_5 
REMARK    8  A    between atoms: O_48  and  C_6 
REMARK    9  A    between atoms: C_13  and  C_10 
REMARK   10  A    between atoms: N_34  and  C_10 
REMARK   11  A    between atoms: C_16  and  C_11 
REMARK   12  A    between atoms: O_37  and  C_11 
REMARK   13  A    between atoms: C_17  and  C_12 
REMARK   14  A    between atoms: O_38  and  C_12 
REMARK   15  A    between atoms: C_24  and  C_14 
REMARK   16  A    between atoms: C_25  and  C_15 
REMARK   17  A    between atoms: C_18  and  O_39 
REMARK   18  A    between atoms: C_19  and  O_40 
REMARK   19  A    between atoms: C_20  and  O_41 
REMARK   20  A    between atoms: C_21  and  O_42 
REMARK   21  A    between atoms: C_22  and  O_43 
REMARK   22  A    between atoms: O_45  and  C_24 
REMARK   23  A    between atoms: O_46  and  C_25 
REMARK   24  A    between atoms: C_26  and  O_47 
REMARK   25  A    between atoms: C_27  and  O_48 
REMARK   26  A    between atoms: N_36  and  N_28 
REMARK   27  A    between atoms: N_36  and  N_34 
ROOT
HETATM    1  C   UNK N   1      36.768  12.998  13.894  0.00  0.00     0.179 C 
HETATM    2  C   UNK N   1      35.416  12.248  13.953  0.00  0.00     0.180 C 
HETATM    3  C   UNK N   1      35.110  11.639  12.581  0.00  0.00     0.183 C 
HETATM    4  C   UNK N   1      35.112  12.763  11.546  0.00  0.00     0.204 C 
HETATM    5  C   UNK N   1      36.461  13.522  11.619  0.00  0.00     0.291 C 
HETATM    6  O   UNK N   1      34.056  13.645  11.796  0.00  0.00    -0.388 OA
HETATM    7  O   UNK N   1      36.739  14.001  12.910  0.00  0.00    -0.348 OA
HETATM    8  H   UNK N   1      33.370  14.313  11.950  0.00  0.00     0.210 HD
ENDROOT
BRANCH   3   9
HETATM    9  O   UNK N   1      33.866  11.001  12.599  0.00  0.00    -0.390 OA
HETATM   10  H   UNK N   1      33.221  11.069  13.321  0.00  0.00     0.210 HD
ENDBRANCH   3   9
BRANCH   5  11
HETATM   11  O   UNK N   1      36.364  14.681  10.827  0.00  0.00    -0.358 OA
BRANCH  11  12
HETATM   12  C   UNK N   1      36.706  14.387   9.501  0.00  0.00     0.172 C 
BRANCH  12  13
HETATM   13  C   UNK N   1      35.570  14.815   8.618  0.00  0.00     0.046 C 
BRANCH  13  14
HETATM   14  C   UNK N   1      34.699  15.780   9.393  0.00  0.00     0.123 C 
BRANCH  14  15
HETATM   15  N   UNK N   1      35.256  17.088   9.268  0.00  0.00    -0.370 N 
HETATM   16  C   UNK N   1      34.637  18.026   8.658  0.00  0.00     0.146 C 
ATOM     17  HN  UNK N   1      36.172  17.279   9.675  1.00  0.00     0.161 HD
BRANCH  16  18
HETATM   18  C   UNK N   1      33.284  17.824   8.068  0.00  0.00     0.016 A 
HETATM   19  C   UNK N   1      32.080  17.677   8.769  0.00  0.00     0.024 A 
HETATM   20  C   UNK N   1      30.881  17.421   8.076  0.00  0.00    -0.036 A 
HETATM   21  C   UNK N   1      30.907  17.270   6.676  0.00  0.00     0.024 A 
HETATM   22  C   UNK N   1      32.135  17.355   6.006  0.00  0.00     0.016 A 
HETATM   23  C   UNK N   1      33.257  17.650   6.733  0.00  0.00     0.031 A 
BRANCH  20  24
HETATM   24  C   UNK N   1      29.593  17.214   8.815  0.00  0.00     0.194 C 
BRANCH  24  25
HETATM   25  N   UNK N   1      28.871  18.455   9.032  0.00  0.00    -0.248 N 
ATOM     26  HN  UNK N   1      28.978  18.955   9.915  1.00  0.00     0.197 HD
BRANCH  25  27
HETATM   27  N   UNK N   1      28.137  18.905   8.166  0.00  0.00    -0.248 NA
BRANCH  27  28
HETATM   28  N   UNK N   1      27.398  19.332   7.298  0.00  0.00    -0.261 N 
HETATM   29  H   UNK N   1      27.187  19.959   6.569  0.00  0.00     0.193 HD
ATOM     30  HN  UNK N   1      26.576  18.731   7.354  1.00  0.00     0.193 HD
ENDBRANCH  27  28
ENDBRANCH  25  27
ENDBRANCH  24  25
ENDBRANCH  20  24
BRANCH  22  31
HETATM   31  C   UNK N   1      32.302  17.105   4.552  0.00  0.00     0.146 C 
HETATM   32  N   UNK N   1      32.761  15.975   4.081  0.00  0.00    -0.370 N 
ATOM     33  HN  UNK N   1      32.933  15.929   3.076  1.00  0.00     0.161 HD
BRANCH  32  34
HETATM   34  C   UNK N   1      33.051  14.770   4.863  0.00  0.00     0.123 C 
BRANCH  34  35
HETATM   35  C   UNK N   1      32.204  13.522   4.533  0.00  0.00     0.046 C 
BRANCH  35  36
HETATM   36  C   UNK N   1      30.732  13.682   4.947  0.00  0.00     0.172 C 
BRANCH  36  37
HETATM   37  O   UNK N   1      29.920  14.101   3.892  0.00  0.00    -0.358 OA
BRANCH  37  38
HETATM   38  C   UNK N   1      29.253  15.285   4.262  0.00  0.00     0.291 C 
HETATM   39  C   UNK N   1      28.866  16.137   3.028  0.00  0.00     0.204 C 
HETATM   40  C   UNK N   1      28.025  17.342   3.499  0.00  0.00     0.183 C 
HETATM   41  C   UNK N   1      26.885  16.863   4.418  0.00  0.00     0.180 C 
HETATM   42  C   UNK N   1      27.503  16.030   5.561  0.00  0.00     0.179 C 
HETATM   43  O   UNK N   1      28.110  14.887   4.998  0.00  0.00    -0.348 OA
BRANCH  39  44
HETATM   44  O   UNK N   1      30.007  16.598   2.361  0.00  0.00    -0.388 OA
HETATM   45  H   UNK N   1      30.128  17.546   2.189  0.00  0.00     0.210 HD
ENDBRANCH  39  44
BRANCH  40  46
HETATM   46  O   UNK N   1      28.833  18.241   4.205  0.00  0.00    -0.390 OA
HETATM   47  H   UNK N   1      29.170  18.812   4.914  0.00  0.00     0.210 HD
ENDBRANCH  40  46
BRANCH  41  48
HETATM   48  O   UNK N   1      25.995  16.073   3.681  0.00  0.00    -0.390 OA
HETATM   49  H   UNK N   1      25.677  15.366   3.098  0.00  0.00     0.210 HD
ENDBRANCH  41  48
BRANCH  42  50
HETATM   50  C   UNK N   1      26.527  15.630   6.666  0.00  0.00     0.198 C 
BRANCH  50  51
HETATM   51  O   UNK N   1      26.668  16.407   7.814  0.00  0.00    -0.398 OA
HETATM   52  H   UNK N   1      26.493  16.357   8.767  0.00  0.00     0.209 HD
ENDBRANCH  50  51
ENDBRANCH  42  50
ENDBRANCH  37  38
ENDBRANCH  36  37
ENDBRANCH  35  36
ENDBRANCH  34  35
ENDBRANCH  32  34
BRANCH  31  53
HETATM   53  O   UNK N   1      31.939  18.068   3.686  0.00  0.00    -0.346 OA
HETATM   54  H   UNK N   1      32.562  18.448   3.096  0.00  0.00     0.219 HD
ENDBRANCH  31  53
ENDBRANCH  22  31
ENDBRANCH  16  18
BRANCH  16  55
HETATM   55  O   UNK N   1      35.283  19.190   8.450  0.00  0.00    -0.346 OA
HETATM   56  H   UNK N   1      35.076  19.972   8.923  0.00  0.00     0.219 HD
ENDBRANCH  16  55
ENDBRANCH  14  15
ENDBRANCH  13  14
ENDBRANCH  12  13
ENDBRANCH  11  12
ENDBRANCH   5  11
BRANCH   2  57
HETATM   57  O   UNK N   1      35.455  11.236  14.913  0.00  0.00    -0.390 OA
HETATM   58  H   UNK N   1      34.959  11.219  15.746  0.00  0.00     0.210 HD
ENDBRANCH   2  57
BRANCH   1  59
HETATM   59  C   UNK N   1      37.038  13.769  15.183  0.00  0.00     0.198 C 
BRANCH  59  60
HETATM   60  O   UNK N   1      37.237  15.128  14.966  0.00  0.00    -0.398 OA
HETATM   61  H   UNK N   1      38.016  15.467  14.497  0.00  0.00     0.209 HD
ENDBRANCH  59  60
ENDBRANCH   1  59
TORSDOF 27
ENDMDL
MODEL 2
REMARK VINA RESULT:      -6.8      3.720     11.366
REMARK  27 active torsions:
REMARK  status: ('A' for Active; 'I' for Inactive)
REMARK    1  A    between atoms: C_3  and  C_1 
REMARK    2  A    between atoms: C_5  and  C_1 
REMARK    3  A    between atoms: C_4  and  C_2 
REMARK    4  A    between atoms: C_6  and  C_2 
REMARK    5  A    between atoms: N_30  and  C_3 
REMARK    6  A    between atoms: N_32  and  C_4 
REMARK    7  A    between atoms: O_47  and  C_5 
REMARK    8  A    between atoms: O_48  and  C_6 
REMARK    9  A    between atoms: C_13  and  C_10 
REMARK   10  A    between atoms: N_34  and  C_10 
REMARK   11  A    between atoms: C_16  and  C_11 
REMARK   12  A    between atoms: O_37  and  C_11 
REMARK   13  A    between atoms: C_17  and  C_12 
REMARK   14  A    between atoms: O_38  and  C_12 
REMARK   15  A    between atoms: C_24  and  C_14 
REMARK   16  A    between atoms: C_25  and  C_15 
REMARK   17  A    between atoms: C_18  and  O_39 
REMARK   18  A    between atoms: C_19  and  O_40 
REMARK   19  A    between atoms: C_20  and  O_41 
REMARK   20  A    between atoms: C_21  and  O_42 
REMARK   21  A    between atoms: C_22  and  O_43 
REMARK   22  A    between atoms: O_45  and  C_24 
REMARK   23  A    between atoms: O_46  and  C_25 
REMARK   24  A    between atoms: C_26  and  O_47 
REMARK   25  A    between atoms: C_27  and  O_48 
REMARK   26  A    between atoms: N_36  and  N_28 
REMARK   27  A    between atoms: N_36  and  N_34 
ROOT
HETATM    1  C   UNK N   1      20.609  16.820   5.500  0.00  0.00     0.179 C 
HETATM    2  C   UNK N   1      20.066  16.387   4.117  0.00  0.00     0.180 C 
HETATM    3  C   UNK N   1      19.386  15.021   4.241  0.00  0.00     0.183 C 
HETATM    4  C   UNK N   1      20.401  14.029   4.807  0.00  0.00     0.204 C 
HETATM    5  C   UNK N   1      20.966  14.583   6.141  0.00  0.00     0.291 C 
HETATM    6  O   UNK N   1      21.443  13.836   3.894  0.00  0.00    -0.388 OA
HETATM    7  O   UNK N   1      21.515  15.868   5.999  0.00  0.00    -0.348 OA
HETATM    8  H   UNK N   1      22.212  13.700   3.319  0.00  0.00     0.210 HD
ENDROOT
BRANCH   3   9
HETATM    9  O   UNK N   1      18.934  14.588   2.991  0.00  0.00    -0.390 OA
HETATM   10  H   UNK N   1      18.958  13.668   2.683  0.00  0.00     0.210 HD
ENDBRANCH   3   9
BRANCH   5  11
HETATM   11  O   UNK N   1      22.051  13.778   6.533  0.00  0.00    -0.358 OA
BRANCH  11  12
HETATM   12  C   UNK N   1      22.999  14.548   7.217  0.00  0.00     0.172 C 
BRANCH  12  13
HETATM   13  C   UNK N   1      24.338  13.885   7.068  0.00  0.00     0.046 C 
BRANCH  13  14
HETATM   14  C   UNK N   1      25.090  14.570   5.947  0.00  0.00     0.123 C 
BRANCH  14  15
HETATM   15  N   UNK N   1      24.161  14.880   4.908  0.00  0.00    -0.370 N 
HETATM   16  C   UNK N   1      24.446  15.714   3.981  0.00  0.00     0.146 C 
ATOM     17  HN  UNK N   1      23.249  14.425   4.905  1.00  0.00     0.161 HD
BRANCH  16  18
HETATM   18  C   UNK N   1      25.771  16.391   3.909  0.00  0.00     0.016 A 
HETATM   19  C   UNK N   1      26.924  15.905   3.279  0.00  0.00     0.024 A 
HETATM   20  C   UNK N   1      28.132  16.626   3.352  0.00  0.00    -0.036 A 
HETATM   21  C   UNK N   1      28.184  17.818   4.101  0.00  0.00     0.024 A 
HETATM   22  C   UNK N   1      27.033  18.247   4.777  0.00  0.00     0.016 A 
HETATM   23  C   UNK N   1      25.881  17.525   4.628  0.00  0.00     0.031 A 
BRANCH  20  24
HETATM   24  C   UNK N   1      29.385  16.096   2.723  0.00  0.00     0.194 C 
BRANCH  24  25
HETATM   25  N   UNK N   1      30.491  17.031   2.813  0.00  0.00    -0.248 N 
ATOM     26  HN  UNK N   1      30.303  18.030   2.894  1.00  0.00     0.197 HD
BRANCH  25  27
HETATM   27  N   UNK N   1      31.644  16.631   2.793  0.00  0.00    -0.248 NA
BRANCH  27  28
HETATM   28  N   UNK N   1      32.788  16.213   2.784  0.00  0.00    -0.261 N 
HETATM   29  H   UNK N   1      33.763  16.350   2.769  0.00  0.00     0.193 HD
ATOM     30  HN  UNK N   1      32.681  15.198   2.802  1.00  0.00     0.193 HD
ENDBRANCH  27  28
ENDBRANCH  25  27
ENDBRANCH  24  25
ENDBRANCH  20  24
BRANCH  22  31
HETATM   31  C   UNK N   1      26.998  19.423   5.681  0.00  0.00     0.146 C 
HETATM   32  N   UNK N   1      27.455  19.383   6.906  0.00  0.00    -0.370 N 
ATOM     33  HN  UNK N   1      27.300  20.209   7.485  1.00  0.00     0.161 HD
BRANCH  32  34
HETATM   34  C   UNK N   1      28.169  18.261   7.522  0.00  0.00     0.123 C 
BRANCH  34  35
HETATM   35  C   UNK N   1      28.893  18.562   8.852  0.00  0.00     0.046 C 
BRANCH  35  36
HETATM   36  C   UNK N   1      30.350  18.071   8.855  0.00  0.00     0.172 C 
BRANCH  36  37
HETATM   37  O   UNK N   1      30.485  16.788   8.324  0.00  0.00    -0.358 OA
BRANCH  37  38
HETATM   38  C   UNK N   1      31.811  16.605   7.884  0.00  0.00     0.291 C 
HETATM   39  C   UNK N   1      32.141  17.497   6.661  0.00  0.00     0.204 C 
HETATM   40  C   UNK N   1      33.638  17.346   6.324  0.00  0.00     0.183 C 
HETATM   41  C   UNK N   1      34.487  17.540   7.594  0.00  0.00     0.180 C 
HETATM   42  C   UNK N   1      33.974  16.564   8.673  0.00  0.00     0.179 C 
HETATM   43  O   UNK N   1      32.644  16.911   8.989  0.00  0.00    -0.348 OA
BRANCH  39  44
HETATM   44  O   UNK N   1      31.373  17.124   5.552  0.00  0.00    -0.388 OA
HETATM   45  H   UNK N   1      31.772  17.085   4.667  0.00  0.00     0.210 HD
ENDBRANCH  39  44
BRANCH  40  46
HETATM   46  O   UNK N   1      33.884  16.070   5.802  0.00  0.00    -0.390 OA
HETATM   47  H   UNK N   1      34.033  15.112   5.749  0.00  0.00     0.210 HD
ENDBRANCH  40  46
BRANCH  41  48
HETATM   48  O   UNK N   1      34.355  18.859   8.044  0.00  0.00    -0.390 OA
HETATM   49  H   UNK N   1      34.608  19.749   8.335  0.00  0.00     0.210 HD
ENDBRANCH  41  48
BRANCH  42  50
HETATM   50  C   UNK N   1      34.827  16.499   9.940  0.00  0.00     0.198 C 
BRANCH  50  51
HETATM   51  O   UNK N   1      35.606  17.640  10.121  0.00  0.00    -0.398 OA
HETATM   52  H   UNK N   1      35.652  18.560   9.817  0.00  0.00     0.209 HD
ENDBRANCH  50  51
ENDBRANCH  42  50
ENDBRANCH  37  38
ENDBRANCH  36  37
ENDBRANCH  35  36
ENDBRANCH  34  35
ENDBRANCH  32  34
BRANCH  31  53
HETATM   53  O   UNK N   1      26.502  20.583   5.213  0.00  0.00    -0.346 OA
HETATM   54  H   UNK N   1      26.328  20.701   4.300  0.00  0.00     0.219 HD
ENDBRANCH  31  53
ENDBRANCH  22  31
ENDBRANCH  16  18
BRANCH  16  55
HETATM   55  O   UNK N   1      23.473  16.070   3.119  0.00  0.00    -0.346 OA
HETATM   56  H   UNK N   1      23.159  16.951   3.051  0.00  0.00     0.219 HD
ENDBRANCH  16  55
ENDBRANCH  14  15
ENDBRANCH  13  14
ENDBRANCH  12  13
ENDBRANCH  11  12
ENDBRANCH   5  11
BRANCH   2  57
HETATM   57  O   UNK N   1      19.148  17.322   3.634  0.00  0.00    -0.390 OA
HETATM   58  H   UNK N   1      18.182  17.240   3.659  0.00  0.00     0.210 HD
ENDBRANCH   2  57
BRANCH   1  59
HETATM   59  C   UNK N   1      21.447  18.092   5.400  0.00  0.00     0.198 C 
BRANCH  59  60
HETATM   60  O   UNK N   1      21.901  18.338   4.109  0.00  0.00    -0.398 OA
HETATM   61  H   UNK N   1      21.293  18.507   3.372  0.00  0.00     0.209 HD
ENDBRANCH  59  60
ENDBRANCH   1  59
TORSDOF 27
ENDMDL
MODEL 3
REMARK VINA RESULT:      -6.8      3.605     11.748
REMARK  27 active torsions:
REMARK  status: ('A' for Active; 'I' for Inactive)
REMARK    1  A    between atoms: C_3  and  C_1 
REMARK    2  A    between atoms: C_5  and  C_1 
REMARK    3  A    between atoms: C_4  and  C_2 
REMARK    4  A    between atoms: C_6  and  C_2 
REMARK    5  A    between atoms: N_30  and  C_3 
REMARK    6  A    between atoms: N_32  and  C_4 
REMARK    7  A    between atoms: O_47  and  C_5 
REMARK    8  A    between atoms: O_48  and  C_6 
REMARK    9  A    between atoms: C_13  and  C_10 
REMARK   10  A    between atoms: N_34  and  C_10 
REMARK   11  A    between atoms: C_16  and  C_11 
REMARK   12  A    between atoms: O_37  and  C_11 
REMARK   13  A    between atoms: C_17  and  C_12 
REMARK   14  A    between atoms: O_38  and  C_12 
REMARK   15  A    between atoms: C_24  and  C_14 
REMARK   16  A    between atoms: C_25  and  C_15 
REMARK   17  A    between atoms: C_18  and  O_39 
REMARK   18  A    between atoms: C_19  and  O_40 
REMARK   19  A    between atoms: C_20  and  O_41 
REMARK   20  A    between atoms: C_21  and  O_42 
REMARK   21  A    between atoms: C_22  and  O_43 
REMARK   22  A    between atoms: O_45  and  C_24 
REMARK   23  A    between atoms: O_46  and  C_25 
REMARK   24  A    between atoms: C_26  and  O_47 
REMARK   25  A    between atoms: C_27  and  O_48 
REMARK   26  A    between atoms: N_36  and  N_28 
REMARK   27  A    between atoms: N_36  and  N_34 
ROOT
HETATM    1  C   UNK N   1      21.366  19.807   3.364  0.00  0.00     0.179 C 
HETATM    2  C   UNK N   1      20.733  18.851   2.325  0.00  0.00     0.180 C 
HETATM    3  C   UNK N   1      20.094  17.662   3.048  0.00  0.00     0.183 C 
HETATM    4  C   UNK N   1      21.170  16.979   3.892  0.00  0.00     0.204 C 
HETATM    5  C   UNK N   1      21.818  18.025   4.835  0.00  0.00     0.291 C 
HETATM    6  O   UNK N   1      22.146  16.419   3.062  0.00  0.00    -0.388 OA
HETATM    7  O   UNK N   1      22.326  19.134   4.138  0.00  0.00    -0.348 OA
HETATM    8  H   UNK N   1      22.874  16.052   2.537  0.00  0.00     0.210 HD
ENDROOT
BRANCH   3   9
HETATM    9  O   UNK N   1      19.562  16.759   2.122  0.00  0.00    -0.390 OA
HETATM   10  H   UNK N   1      19.395  16.960   1.189  0.00  0.00     0.210 HD
ENDBRANCH   3   9
BRANCH   5  11
HETATM   11  O   UNK N   1      22.947  17.441   5.439  0.00  0.00    -0.358 OA
BRANCH  11  12
HETATM   12  C   UNK N   1      22.548  16.451   6.346  0.00  0.00     0.172 C 
BRANCH  12  13
HETATM   13  C   UNK N   1      23.433  15.253   6.149  0.00  0.00     0.046 C 
BRANCH  13  14
HETATM   14  C   UNK N   1      24.797  15.732   5.704  0.00  0.00     0.123 C 
BRANCH  14  15
HETATM   15  N   UNK N   1      24.946  15.439   4.315  0.00  0.00    -0.370 N 
HETATM   16  C   UNK N   1      25.745  16.104   3.571  0.00  0.00     0.146 C 
ATOM     17  HN  UNK N   1      24.400  14.680   3.906  1.00  0.00     0.161 HD
BRANCH  16  18
HETATM   18  C   UNK N   1      26.593  17.204   4.109  0.00  0.00     0.016 A 
HETATM   19  C   UNK N   1      26.179  18.508   4.411  0.00  0.00     0.024 A 
HETATM   20  C   UNK N   1      27.112  19.467   4.849  0.00  0.00    -0.036 A 
HETATM   21  C   UNK N   1      28.474  19.119   4.940  0.00  0.00     0.024 A 
HETATM   22  C   UNK N   1      28.872  17.827   4.569  0.00  0.00     0.016 A 
HETATM   23  C   UNK N   1      27.909  16.929   4.194  0.00  0.00     0.031 A 
BRANCH  20  24
HETATM   24  C   UNK N   1      26.693  20.878   5.131  0.00  0.00     0.194 C 
BRANCH  24  25
HETATM   25  N   UNK N   1      27.123  21.336   6.439  0.00  0.00    -0.248 N 
ATOM     26  HN  UNK N   1      28.079  21.665   6.571  1.00  0.00     0.197 HD
BRANCH  25  27
HETATM   27  N   UNK N   1      26.349  21.332   7.383  0.00  0.00    -0.248 NA
BRANCH  27  28
HETATM   28  N   UNK N   1      25.563  21.313   8.313  0.00  0.00    -0.261 N 
HETATM   29  H   UNK N   1      24.659  21.190   8.684  0.00  0.00     0.193 HD
ATOM     30  HN  UNK N   1      26.135  21.541   9.126  1.00  0.00     0.193 HD
ENDBRANCH  27  28
ENDBRANCH  25  27
ENDBRANCH  24  25
ENDBRANCH  20  24
BRANCH  22  31
HETATM   31  C   UNK N   1      30.287  17.382   4.518  0.00  0.00     0.146 C 
HETATM   32  N   UNK N   1      30.990  17.145   5.594  0.00  0.00    -0.370 N 
ATOM     33  HN  UNK N   1      31.980  16.938   5.465  1.00  0.00     0.161 HD
BRANCH  32  34
HETATM   34  C   UNK N   1      30.484  17.149   6.970  0.00  0.00     0.123 C 
BRANCH  34  35
HETATM   35  C   UNK N   1      31.495  17.553   8.066  0.00  0.00     0.046 C 
BRANCH  35  36
HETATM   36  C   UNK N   1      32.548  16.463   8.328  0.00  0.00     0.172 C 
BRANCH  36  37
HETATM   37  O   UNK N   1      33.852  16.921   8.142  0.00  0.00    -0.358 OA
BRANCH  37  38
HETATM   38  C   UNK N   1      34.736  16.119   8.888  0.00  0.00     0.291 C 
HETATM   39  C   UNK N   1      35.013  16.716  10.290  0.00  0.00     0.204 C 
HETATM   40  C   UNK N   1      35.874  15.721  11.095  0.00  0.00     0.183 C 
HETATM   41  C   UNK N   1      35.251  14.314  11.033  0.00  0.00     0.180 C 
HETATM   42  C   UNK N   1      35.056  13.936   9.549  0.00  0.00     0.179 C 
HETATM   43  O   UNK N   1      34.135  14.839   8.979  0.00  0.00    -0.348 OA
BRANCH  39  44
HETATM   44  O   UNK N   1      35.688  17.938  10.187  0.00  0.00    -0.388 OA
HETATM   45  H   UNK N   1      35.222  18.734   9.883  0.00  0.00     0.210 HD
ENDBRANCH  39  44
BRANCH  40  46
HETATM   46  O   UNK N   1      37.168  15.670  10.563  0.00  0.00    -0.390 OA
HETATM   47  H   UNK N   1      38.049  15.344  10.318  0.00  0.00     0.210 HD
ENDBRANCH  40  46
BRANCH  41  48
HETATM   48  O   UNK N   1      34.013  14.325  11.687  0.00  0.00    -0.390 OA
HETATM   49  H   UNK N   1      33.289  14.632  12.256  0.00  0.00     0.210 HD
ENDBRANCH  41  48
BRANCH  42  50
HETATM   50  C   UNK N   1      34.615  12.493   9.306  0.00  0.00     0.198 C 
BRANCH  50  51
HETATM   51  O   UNK N   1      33.343  12.228   9.811  0.00  0.00    -0.398 OA
HETATM   52  H   UNK N   1      32.858  11.516  10.255  0.00  0.00     0.209 HD
ENDBRANCH  50  51
ENDBRANCH  42  50
ENDBRANCH  37  38
ENDBRANCH  36  37
ENDBRANCH  35  36
ENDBRANCH  34  35
ENDBRANCH  32  34
BRANCH  31  53
HETATM   53  O   UNK N   1      30.859  17.187   3.315  0.00  0.00    -0.346 OA
HETATM   54  H   UNK N   1      31.596  17.699   3.042  0.00  0.00     0.219 HD
ENDBRANCH  31  53
ENDBRANCH  22  31
ENDBRANCH  16  18
BRANCH  16  55
HETATM   55  O   UNK N   1      25.725  15.872   2.243  0.00  0.00    -0.346 OA
HETATM   56  H   UNK N   1      26.447  15.481   1.791  0.00  0.00     0.219 HD
ENDBRANCH  16  55
ENDBRANCH  14  15
ENDBRANCH  13  14
ENDBRANCH  12  13
ENDBRANCH  11  12
ENDBRANCH   5  11
BRANCH   2  57
HETATM   57  O   UNK N   1      19.762  19.514   1.572  0.00  0.00    -0.390 OA
HETATM   58  H   UNK N   1      19.865  20.374   1.136  0.00  0.00     0.210 HD
ENDBRANCH   2  57
BRANCH   1  59
HETATM   59  C   UNK N   1      22.166  20.918   2.689  0.00  0.00     0.198 C 
BRANCH  59  60
HETATM   60  O   UNK N   1      23.535  20.804   2.906  0.00  0.00    -0.398 OA
HETATM   61  H   UNK N   1      23.901  20.237   3.603  0.00  0.00     0.209 HD
ENDBRANCH  59  60
ENDBRANCH   1  59
TORSDOF 27
ENDMDL
MODEL 4
REMARK VINA RESULT:      -6.7      3.700      7.549
REMARK  27 active torsions:
REMARK  status: ('A' for Active; 'I' for Inactive)
REMARK    1  A    between atoms: C_3  and  C_1 
REMARK    2  A    between atoms: C_5  and  C_1 
REMARK    3  A    between atoms: C_4  and  C_2 
REMARK    4  A    between atoms: C_6  and  C_2 
REMARK    5  A    between atoms: N_30  and  C_3 
REMARK    6  A    between atoms: N_32  and  C_4 
REMARK    7  A    between atoms: O_47  and  C_5 
REMARK    8  A    between atoms: O_48  and  C_6 
REMARK    9  A    between atoms: C_13  and  C_10 
REMARK   10  A    between atoms: N_34  and  C_10 
REMARK   11  A    between atoms: C_16  and  C_11 
REMARK   12  A    between atoms: O_37  and  C_11 
REMARK   13  A    between atoms: C_17  and  C_12 
REMARK   14  A    between atoms: O_38  and  C_12 
REMARK   15  A    between atoms: C_24  and  C_14 
REMARK   16  A    between atoms: C_25  and  C_15 
REMARK   17  A    between atoms: C_18  and  O_39 
REMARK   18  A    between atoms: C_19  and  O_40 
REMARK   19  A    between atoms: C_20  and  O_41 
REMARK   20  A    between atoms: C_21  and  O_42 
REMARK   21  A    between atoms: C_22  and  O_43 
REMARK   22  A    between atoms: O_45  and  C_24 
REMARK   23  A    between atoms: O_46  and  C_25 
REMARK   24  A    between atoms: C_26  and  O_47 
REMARK   25  A    between atoms: C_27  and  O_48 
REMARK   26  A    between atoms: N_36  and  N_28 
REMARK   27  A    between atoms: N_36  and  N_34 
ROOT
HETATM    1  C   UNK N   1      33.108  15.991   9.052  0.00  0.00     0.179 C 
HETATM    2  C   UNK N   1      34.307  16.969   9.065  0.00  0.00     0.180 C 
HETATM    3  C   UNK N   1      33.951  18.224   8.263  0.00  0.00     0.183 C 
HETATM    4  C   UNK N   1      33.562  17.794   6.849  0.00  0.00     0.204 C 
HETATM    5  C   UNK N   1      32.424  16.745   6.929  0.00  0.00     0.291 C 
HETATM    6  O   UNK N   1      34.669  17.245   6.194  0.00  0.00    -0.388 OA
HETATM    7  O   UNK N   1      32.764  15.645   7.734  0.00  0.00    -0.348 OA
HETATM    8  H   UNK N   1      35.390  16.814   5.709  0.00  0.00     0.210 HD
ENDROOT
BRANCH   3   9
HETATM    9  O   UNK N   1      35.041  19.098   8.219  0.00  0.00    -0.390 OA
HETATM   10  H   UNK N   1      35.730  19.088   7.536  0.00  0.00     0.210 HD
ENDBRANCH   3   9
BRANCH   5  11
HETATM   11  O   UNK N   1      32.232  16.197   5.647  0.00  0.00    -0.358 OA
BRANCH  11  12
HETATM   12  C   UNK N   1      31.076  16.732   5.065  0.00  0.00     0.172 C 
BRANCH  12  13
HETATM   13  C   UNK N   1      30.802  15.981   3.794  0.00  0.00     0.046 C 
BRANCH  13  14
HETATM   14  C   UNK N   1      29.583  16.586   3.133  0.00  0.00     0.123 C 
BRANCH  14  15
HETATM   15  N   UNK N   1      28.491  15.680   3.291  0.00  0.00    -0.370 N 
HETATM   16  C   UNK N   1      27.408  16.031   3.875  0.00  0.00     0.146 C 
ATOM     17  HN  UNK N   1      28.576  14.730   2.930  1.00  0.00     0.161 HD
BRANCH  16  18
HETATM   18  C   UNK N   1      27.205  17.410   4.398  0.00  0.00     0.016 A 
HETATM   19  C   UNK N   1      27.687  17.925   5.608  0.00  0.00     0.024 A 
HETATM   20  C   UNK N   1      27.354  19.234   6.007  0.00  0.00    -0.036 A 
HETATM   21  C   UNK N   1      26.497  20.008   5.201  0.00  0.00     0.024 A 
HETATM   22  C   UNK N   1      25.975  19.446   4.028  0.00  0.00     0.016 A 
HETATM   23  C   UNK N   1      26.373  18.185   3.675  0.00  0.00     0.031 A 
BRANCH  20  24
HETATM   24  C   UNK N   1      27.824  19.782   7.321  0.00  0.00     0.194 C 
BRANCH  24  25
HETATM   25  N   UNK N   1      27.719  18.812   8.397  0.00  0.00    -0.248 N 
ATOM     26  HN  UNK N   1      26.853  18.287   8.522  1.00  0.00     0.197 HD
BRANCH  25  27
HETATM   27  N   UNK N   1      28.658  18.621   9.153  0.00  0.00    -0.248 NA
BRANCH  27  28
HETATM   28  N   UNK N   1      29.592  18.409   9.905  0.00  0.00    -0.261 N 
HETATM   29  H   UNK N   1      30.542  18.217  10.077  0.00  0.00     0.193 HD
ATOM     30  HN  UNK N   1      29.176  18.454  10.836  1.00  0.00     0.193 HD
ENDBRANCH  27  28
ENDBRANCH  25  27
ENDBRANCH  24  25
ENDBRANCH  20  24
BRANCH  22  31
HETATM   31  C   UNK N   1      24.979  20.123   3.160  0.00  0.00     0.146 C 
HETATM   32  N   UNK N   1      23.696  19.885   3.243  0.00  0.00    -0.370 N 
ATOM     33  HN  UNK N   1      23.098  20.323   2.542  1.00  0.00     0.161 HD
BRANCH  32  34
HETATM   34  C   UNK N   1      23.039  19.048   4.251  0.00  0.00     0.123 C 
BRANCH  34  35
HETATM   35  C   UNK N   1      21.502  18.936   4.147  0.00  0.00     0.046 C 
BRANCH  35  36
HETATM   36  C   UNK N   1      20.953  17.684   4.851  0.00  0.00     0.172 C 
BRANCH  36  37
HETATM   37  O   UNK N   1      21.072  17.753   6.239  0.00  0.00    -0.358 OA
BRANCH  37  38
HETATM   38  C   UNK N   1      21.254  16.454   6.754  0.00  0.00     0.291 C 
HETATM   39  C   UNK N   1      20.186  15.468   6.219  0.00  0.00     0.204 C 
HETATM   40  C   UNK N   1      20.528  14.047   6.714  0.00  0.00     0.183 C 
HETATM   41  C   UNK N   1      22.005  13.726   6.416  0.00  0.00     0.180 C 
HETATM   42  C   UNK N   1      22.876  14.843   7.028  0.00  0.00     0.179 C 
HETATM   43  O   UNK N   1      22.561  16.056   6.381  0.00  0.00    -0.348 OA
BRANCH  39  44
HETATM   44  O   UNK N   1      18.909  15.823   6.669  0.00  0.00    -0.388 OA
HETATM   45  H   UNK N   1      18.653  16.757   6.738  0.00  0.00     0.210 HD
ENDBRANCH  39  44
BRANCH  40  46
HETATM   46  O   UNK N   1      20.312  13.958   8.094  0.00  0.00    -0.390 OA
HETATM   47  H   UNK N   1      19.876  13.996   8.960  0.00  0.00     0.210 HD
ENDBRANCH  40  46
BRANCH  41  48
HETATM   48  O   UNK N   1      22.199  13.677   5.030  0.00  0.00    -0.390 OA
HETATM   49  H   UNK N   1      22.002  13.748   4.083  0.00  0.00     0.210 HD
ENDBRANCH  41  48
BRANCH  42  50
HETATM   50  C   UNK N   1      24.381  14.583   6.980  0.00  0.00     0.198 C 
BRANCH  50  51
HETATM   51  O   UNK N   1      24.804  13.693   7.965  0.00  0.00    -0.398 OA
HETATM   52  H   UNK N   1      25.310  12.870   8.050  0.00  0.00     0.209 HD
ENDBRANCH  50  51
ENDBRANCH  42  50
ENDBRANCH  37  38
ENDBRANCH  36  37
ENDBRANCH  35  36
ENDBRANCH  34  35
ENDBRANCH  32  34
BRANCH  31  53
HETATM   53  O   UNK N   1      25.412  21.037   2.273  0.00  0.00    -0.346 OA
HETATM   54  H   UNK N   1      24.883  21.776   2.042  0.00  0.00     0.219 HD
ENDBRANCH  31  53
ENDBRANCH  22  31
ENDBRANCH  16  18
BRANCH  16  55
HETATM   55  O   UNK N   1      26.479  15.085   4.121  0.00  0.00    -0.346 OA
HETATM   56  H   UNK N   1      26.360  14.707   4.970  0.00  0.00     0.219 HD
ENDBRANCH  16  55
ENDBRANCH  14  15
ENDBRANCH  13  14
ENDBRANCH  12  13
ENDBRANCH  11  12
ENDBRANCH   5  11
BRANCH   2  57
HETATM   57  O   UNK N   1      34.634  17.331  10.374  0.00  0.00    -0.390 OA
HETATM   58  H   UNK N   1      35.529  17.412  10.738  0.00  0.00     0.210 HD
ENDBRANCH   2  57
BRANCH   1  59
HETATM   59  C   UNK N   1      33.471  14.652   9.690  0.00  0.00     0.198 C 
BRANCH  59  60
HETATM   60  O   UNK N   1      33.479  14.703  11.080  0.00  0.00    -0.398 OA
HETATM   61  H   UNK N   1      34.026  14.105  11.614  0.00  0.00     0.209 HD
ENDBRANCH  59  60
ENDBRANCH   1  59
TORSDOF 27
ENDMDL
MODEL 5
REMARK VINA RESULT:      -6.7      2.614      9.390
REMARK  27 active torsions:
REMARK  status: ('A' for Active; 'I' for Inactive)
REMARK    1  A    between atoms: C_3  and  C_1 
REMARK    2  A    between atoms: C_5  and  C_1 
REMARK    3  A    between atoms: C_4  and  C_2 
REMARK    4  A    between atoms: C_6  and  C_2 
REMARK    5  A    between atoms: N_30  and  C_3 
REMARK    6  A    between atoms: N_32  and  C_4 
REMARK    7  A    between atoms: O_47  and  C_5 
REMARK    8  A    between atoms: O_48  and  C_6 
REMARK    9  A    between atoms: C_13  and  C_10 
REMARK   10  A    between atoms: N_34  and  C_10 
REMARK   11  A    between atoms: C_16  and  C_11 
REMARK   12  A    between atoms: O_37  and  C_11 
REMARK   13  A    between atoms: C_17  and  C_12 
REMARK   14  A    between atoms: O_38  and  C_12 
REMARK   15  A    between atoms: C_24  and  C_14 
REMARK   16  A    between atoms: C_25  and  C_15 
REMARK   17  A    between atoms: C_18  and  O_39 
REMARK   18  A    between atoms: C_19  and  O_40 
REMARK   19  A    between atoms: C_20  and  O_41 
REMARK   20  A    between atoms: C_21  and  O_42 
REMARK   21  A    between atoms: C_22  and  O_43 
REMARK   22  A    between atoms: O_45  and  C_24 
REMARK   23  A    between atoms: O_46  and  C_25 
REMARK   24  A    between atoms: C_26  and  O_47 
REMARK   25  A    between atoms: C_27  and  O_48 
REMARK   26  A    between atoms: N_36  and  N_28 
REMARK   27  A    between atoms: N_36  and  N_34 
ROOT
HETATM    1  C   UNK N   1      26.124  16.286   2.716  0.00  0.00     0.179 C 
HETATM    2  C   UNK N   1      25.140  15.612   3.702  0.00  0.00     0.180 C 
HETATM    3  C   UNK N   1      24.224  16.675   4.316  0.00  0.00     0.183 C 
HETATM    4  C   UNK N   1      25.099  17.730   4.991  0.00  0.00     0.204 C 
HETATM    5  C   UNK N   1      26.117  18.284   3.961  0.00  0.00     0.291 C 
HETATM    6  O   UNK N   1      25.779  17.166   6.075  0.00  0.00    -0.388 OA
HETATM    7  O   UNK N   1      26.887  17.269   3.368  0.00  0.00    -0.348 OA
HETATM    8  H   UNK N   1      26.310  16.816   6.808  0.00  0.00     0.210 HD
ENDROOT
BRANCH   3   9
HETATM    9  O   UNK N   1      23.362  16.093   5.251  0.00  0.00    -0.390 OA
HETATM   10  H   UNK N   1      23.631  15.776   6.127  0.00  0.00     0.210 HD
ENDBRANCH   3   9
BRANCH   5  11
HETATM   11  O   UNK N   1      27.053  19.082   4.645  0.00  0.00    -0.358 OA
BRANCH  11  12
HETATM   12  C   UNK N   1      26.577  20.394   4.756  0.00  0.00     0.172 C 
BRANCH  12  13
HETATM   13  C   UNK N   1      26.712  20.822   6.189  0.00  0.00     0.046 C 
BRANCH  13  14
HETATM   14  C   UNK N   1      27.874  20.074   6.805  0.00  0.00     0.123 C 
BRANCH  14  15
HETATM   15  N   UNK N   1      27.407  19.404   7.975  0.00  0.00    -0.370 N 
HETATM   16  C   UNK N   1      28.041  18.414   8.479  0.00  0.00     0.146 C 
ATOM     17  HN  UNK N   1      26.546  19.721   8.420  1.00  0.00     0.161 HD
BRANCH  16  18
HETATM   18  C   UNK N   1      29.320  17.918   7.898  0.00  0.00     0.016 A 
HETATM   19  C   UNK N   1      30.597  18.041   8.461  0.00  0.00     0.024 A 
HETATM   20  C   UNK N   1      31.730  17.584   7.761  0.00  0.00    -0.036 A 
HETATM   21  C   UNK N   1      31.576  17.042   6.470  0.00  0.00     0.024 A 
HETATM   22  C   UNK N   1      30.295  16.991   5.902  0.00  0.00     0.016 A 
HETATM   23  C   UNK N   1      29.231  17.411   6.653  0.00  0.00     0.031 A 
BRANCH  20  24
HETATM   24  C   UNK N   1      33.107  17.752   8.330  0.00  0.00     0.194 C 
BRANCH  24  25
HETATM   25  N   UNK N   1      33.347  16.885   9.471  0.00  0.00    -0.248 N 
ATOM     26  HN  UNK N   1      32.616  16.245   9.781  1.00  0.00     0.197 HD
BRANCH  25  27
HETATM   27  N   UNK N   1      34.415  16.918  10.059  0.00  0.00    -0.248 NA
BRANCH  27  28
HETATM   28  N   UNK N   1      35.471  16.958  10.665  0.00  0.00    -0.261 N 
HETATM   29  H   UNK N   1      36.121  16.584  11.303  0.00  0.00     0.193 HD
ATOM     30  HN  UNK N   1      35.907  17.824  10.346  1.00  0.00     0.193 HD
ENDBRANCH  27  28
ENDBRANCH  25  27
ENDBRANCH  24  25
ENDBRANCH  20  24
BRANCH  22  31
HETATM   31  C   UNK N   1      30.026  16.545   4.513  0.00  0.00     0.146 C 
HETATM   32  N   UNK N   1      30.159  15.301   4.134  0.00  0.00    -0.370 N 
ATOM     33  HN  UNK N   1      30.047  15.105   3.140  1.00  0.00     0.161 HD
BRANCH  32  34
HETATM   34  C   UNK N   1      30.455  14.162   5.009  0.00  0.00     0.123 C 
BRANCH  34  35
HETATM   35  C   UNK N   1      31.298  13.027   4.389  0.00  0.00     0.046 C 
BRANCH  35  36
HETATM   36  C   UNK N   1      32.604  12.772   5.160  0.00  0.00     0.172 C 
BRANCH  36  37
HETATM   37  O   UNK N   1      32.865  13.757   6.113  0.00  0.00    -0.358 OA
BRANCH  37  38
HETATM   38  C   UNK N   1      33.854  13.292   7.001  0.00  0.00     0.291 C 
HETATM   39  C   UNK N   1      34.758  14.442   7.511  0.00  0.00     0.204 C 
HETATM   40  C   UNK N   1      35.723  13.882   8.577  0.00  0.00     0.183 C 
HETATM   41  C   UNK N   1      34.937  13.076   9.629  0.00  0.00     0.180 C 
HETATM   42  C   UNK N   1      34.105  12.004   8.894  0.00  0.00     0.179 C 
HETATM   43  O   UNK N   1      33.168  12.659   8.067  0.00  0.00    -0.348 OA
BRANCH  39  44
HETATM   44  O   UNK N   1      35.496  14.999   6.461  0.00  0.00    -0.388 OA
HETATM   45  H   UNK N   1      35.500  15.959   6.316  0.00  0.00     0.210 HD
ENDBRANCH  39  44
BRANCH  40  46
HETATM   46  O   UNK N   1      36.667  13.044   7.972  0.00  0.00    -0.390 OA
HETATM   47  H   UNK N   1      37.056  12.321   7.455  0.00  0.00     0.210 HD
ENDBRANCH  40  46
BRANCH  41  48
HETATM   48  O   UNK N   1      34.087  13.937  10.334  0.00  0.00    -0.390 OA
HETATM   49  H   UNK N   1      33.290  14.259  10.783  0.00  0.00     0.210 HD
ENDBRANCH  41  48
BRANCH  42  50
HETATM   50  C   UNK N   1      33.405  10.997   9.806  0.00  0.00     0.198 C 
BRANCH  50  51
HETATM   51  O   UNK N   1      32.016  11.075   9.725  0.00  0.00    -0.398 OA
HETATM   52  H   UNK N   1      31.255  10.509   9.522  0.00  0.00     0.209 HD
ENDBRANCH  50  51
ENDBRANCH  42  50
ENDBRANCH  37  38
ENDBRANCH  36  37
ENDBRANCH  35  36
ENDBRANCH  34  35
ENDBRANCH  32  34
BRANCH  31  53
HETATM   53  O   UNK N   1      29.601  17.453   3.615  0.00  0.00    -0.346 OA
HETATM   54  H   UNK N   1      29.521  17.234   2.707  0.00  0.00     0.219 HD
ENDBRANCH  31  53
ENDBRANCH  22  31
ENDBRANCH  16  18
BRANCH  16  55
HETATM   55  O   UNK N   1      27.468  17.736   9.493  0.00  0.00    -0.346 OA
HETATM   56  H   UNK N   1      27.840  16.952   9.847  0.00  0.00     0.219 HD
ENDBRANCH  16  55
ENDBRANCH  14  15
ENDBRANCH  13  14
ENDBRANCH  12  13
ENDBRANCH  11  12
ENDBRANCH   5  11
BRANCH   2  57
HETATM   57  O   UNK N   1      24.366  14.652   3.048  0.00  0.00    -0.390 OA
HETATM   58  H   UNK N   1      23.912  13.903   3.464  0.00  0.00     0.210 HD
ENDBRANCH   2  57
BRANCH   1  59
HETATM   59  C   UNK N   1      27.171  15.300   2.207  0.00  0.00     0.198 C 
BRANCH  59  60
HETATM   60  O   UNK N   1      27.452  14.292   3.124  0.00  0.00    -0.398 OA
HETATM   61  H   UNK N   1      28.134  14.391   3.807  0.00  0.00     0.209 HD
ENDBRANCH  59  60
ENDBRANCH   1  59
TORSDOF 27
ENDMDL
MODEL 6
REMARK VINA RESULT:      -6.7      2.454      4.774
REMARK  27 active torsions:
REMARK  status: ('A' for Active; 'I' for Inactive)
REMARK    1  A    between atoms: C_3  and  C_1 
REMARK    2  A    between atoms: C_5  and  C_1 
REMARK    3  A    between atoms: C_4  and  C_2 
REMARK    4  A    between atoms: C_6  and  C_2 
REMARK    5  A    between atoms: N_30  and  C_3 
REMARK    6  A    between atoms: N_32  and  C_4 
REMARK    7  A    between atoms: O_47  and  C_5 
REMARK    8  A    between atoms: O_48  and  C_6 
REMARK    9  A    between atoms: C_13  and  C_10 
REMARK   10  A    between atoms: N_34  and  C_10 
REMARK   11  A    between atoms: C_16  and  C_11 
REMARK   12  A    between atoms: O_37  and  C_11 
REMARK   13  A    between atoms: C_17  and  C_12 
REMARK   14  A    between atoms: O_38  and  C_12 
REMARK   15  A    between atoms: C_24  and  C_14 
REMARK   16  A    between atoms: C_25  and  C_15 
REMARK   17  A    between atoms: C_18  and  O_39 
REMARK   18  A    between atoms: C_19  and  O_40 
REMARK   19  A    between atoms: C_20  and  O_41 
REMARK   20  A    between atoms: C_21  and  O_42 
REMARK   21  A    between atoms: C_22  and  O_43 
REMARK   22  A    between atoms: O_45  and  C_24 
REMARK   23  A    between atoms: O_46  and  C_25 
REMARK   24  A    between atoms: C_26  and  O_47 
REMARK   25  A    between atoms: C_27  and  O_48 
REMARK   26  A    between atoms: N_36  and  N_28 
REMARK   27  A    between atoms: N_36  and  N_34 
ROOT
HETATM    1  C   UNK N   1      36.183  14.525  12.365  0.00  0.00     0.179 C 
HETATM    2  C   UNK N   1      35.122  13.408  12.212  0.00  0.00     0.180 C 
HETATM    3  C   UNK N   1      34.811  13.200  10.727  0.00  0.00     0.183 C 
HETATM    4  C   UNK N   1      34.345  14.533  10.144  0.00  0.00     0.204 C 
HETATM    5  C   UNK N   1      35.419  15.615  10.424  0.00  0.00     0.291 C 
HETATM    6  O   UNK N   1      33.128  14.909  10.722  0.00  0.00    -0.388 OA
HETATM    7  O   UNK N   1      35.729  15.724  11.790  0.00  0.00    -0.348 OA
HETATM    8  H   UNK N   1      32.310  15.242  11.122  0.00  0.00     0.210 HD
ENDROOT
BRANCH   3   9
HETATM    9  O   UNK N   1      33.815  12.230  10.571  0.00  0.00    -0.390 OA
HETATM   10  H   UNK N   1      32.872  12.422  10.452  0.00  0.00     0.210 HD
ENDBRANCH   3   9
BRANCH   5  11
HETATM   11  O   UNK N   1      34.884  16.872  10.083  0.00  0.00    -0.358 OA
BRANCH  11  12
HETATM   12  C   UNK N   1      34.894  17.038   8.693  0.00  0.00     0.172 C 
BRANCH  12  13
HETATM   13  C   UNK N   1      34.321  18.390   8.379  0.00  0.00     0.046 C 
BRANCH  13  14
HETATM   14  C   UNK N   1      32.850  18.225   8.061  0.00  0.00     0.123 C 
BRANCH  14  15
HETATM   15  N   UNK N   1      32.244  17.479   9.117  0.00  0.00    -0.370 N 
HETATM   16  C   UNK N   1      31.105  16.916   8.971  0.00  0.00     0.146 C 
ATOM     17  HN  UNK N   1      32.731  17.394  10.009  1.00  0.00     0.161 HD
BRANCH  16  18
HETATM   18  C   UNK N   1      30.354  16.974   7.686  0.00  0.00     0.016 A 
HETATM   19  C   UNK N   1      29.282  17.823   7.382  0.00  0.00     0.024 A 
HETATM   20  C   UNK N   1      28.620  17.717   6.144  0.00  0.00    -0.036 A 
HETATM   21  C   UNK N   1      29.015  16.721   5.229  0.00  0.00     0.024 A 
HETATM   22  C   UNK N   1      30.047  15.842   5.585  0.00  0.00     0.016 A 
HETATM   23  C   UNK N   1      30.679  16.027   6.785  0.00  0.00     0.031 A 
BRANCH  20  24
HETATM   24  C   UNK N   1      27.441  18.585   5.823  0.00  0.00     0.194 C 
BRANCH  24  25
HETATM   25  N   UNK N   1      27.633  19.961   6.246  0.00  0.00    -0.248 N 
ATOM     26  HN  UNK N   1      28.427  20.493   5.892  1.00  0.00     0.197 HD
BRANCH  25  27
HETATM   27  N   UNK N   1      26.849  20.485   7.022  0.00  0.00    -0.248 NA
BRANCH  27  28
HETATM   28  N   UNK N   1      26.063  20.988   7.804  0.00  0.00    -0.261 N 
HETATM   29  H   UNK N   1      25.711  21.127   8.713  0.00  0.00     0.193 HD
ATOM     30  HN  UNK N   1      25.458  21.561   7.215  1.00  0.00     0.193 HD
ENDBRANCH  27  28
ENDBRANCH  25  27
ENDBRANCH  24  25
ENDBRANCH  20  24
BRANCH  22  31
HETATM   31  C   UNK N   1      30.474  14.689   4.752  0.00  0.00     0.146 C 
HETATM   32  N   UNK N   1      31.259  14.822   3.715  0.00  0.00    -0.370 N 
ATOM     33  HN  UNK N   1      31.419  13.991   3.147  1.00  0.00     0.161 HD
BRANCH  32  34
HETATM   34  C   UNK N   1      31.930  16.056   3.296  0.00  0.00     0.123 C 
BRANCH  34  35
HETATM   35  C   UNK N   1      33.351  15.896   2.715  0.00  0.00     0.046 C 
BRANCH  35  36
HETATM   36  C   UNK N   1      34.137  14.755   3.383  0.00  0.00     0.172 C 
BRANCH  36  37
HETATM   37  O   UNK N   1      33.968  14.726   4.767  0.00  0.00    -0.358 OA
BRANCH  37  38
HETATM   38  C   UNK N   1      34.307  13.446   5.248  0.00  0.00     0.291 C 
HETATM   39  C   UNK N   1      34.899  13.507   6.678  0.00  0.00     0.204 C 
HETATM   40  C   UNK N   1      35.117  12.067   7.189  0.00  0.00     0.183 C 
HETATM   41  C   UNK N   1      33.836  11.236   6.984  0.00  0.00     0.180 C 
HETATM   42  C   UNK N   1      33.428  11.332   5.499  0.00  0.00     0.179 C 
HETATM   43  O   UNK N   1      33.117  12.678   5.211  0.00  0.00    -0.348 OA
BRANCH  39  44
HETATM   44  O   UNK N   1      36.119  14.193   6.684  0.00  0.00    -0.388 OA
HETATM   45  H   UNK N   1      36.790  14.011   6.006  0.00  0.00     0.210 HD
ENDBRANCH  39  44
BRANCH  40  46
HETATM   46  O   UNK N   1      36.168  11.466   6.486  0.00  0.00    -0.390 OA
HETATM   47  H   UNK N   1      36.791  11.247   5.775  0.00  0.00     0.210 HD
ENDBRANCH  40  46
BRANCH  41  48
HETATM   48  O   UNK N   1      32.815  11.749   7.792  0.00  0.00    -0.390 OA
HETATM   49  H   UNK N   1      32.275  12.398   8.270  0.00  0.00     0.210 HD
ENDBRANCH  41  48
BRANCH  42  50
HETATM   50  C   UNK N   1      32.278  10.415   5.087  0.00  0.00     0.198 C 
BRANCH  50  51
HETATM   51  O   UNK N   1      31.066  10.778   5.672  0.00  0.00    -0.398 OA
HETATM   52  H   UNK N   1      30.202  11.137   5.419  0.00  0.00     0.209 HD
ENDBRANCH  50  51
ENDBRANCH  42  50
ENDBRANCH  37  38
ENDBRANCH  36  37
ENDBRANCH  35  36
ENDBRANCH  34  35
ENDBRANCH  32  34
BRANCH  31  53
HETATM   53  O   UNK N   1      30.058  13.457   5.095  0.00  0.00    -0.346 OA
HETATM   54  H   UNK N   1      29.194  13.314   5.431  0.00  0.00     0.219 HD
ENDBRANCH  31  53
ENDBRANCH  22  31
ENDBRANCH  16  18
BRANCH  16  55
HETATM   55  O   UNK N   1      30.525  16.356  10.052  0.00  0.00    -0.346 OA
HETATM   56  H   UNK N   1      29.974  16.841  10.635  0.00  0.00     0.219 HD
ENDBRANCH  16  55
ENDBRANCH  14  15
ENDBRANCH  13  14
ENDBRANCH  12  13
ENDBRANCH  11  12
ENDBRANCH   5  11
BRANCH   2  57
HETATM   57  O   UNK N   1      35.584  12.211  12.763  0.00  0.00    -0.390 OA
HETATM   58  H   UNK N   1      36.435  11.785  12.574  0.00  0.00     0.210 HD
ENDBRANCH   2  57
BRANCH   1  59
HETATM   59  C   UNK N   1      36.403  14.892  13.830  0.00  0.00     0.198 C 
BRANCH  59  60
HETATM   60  O   UNK N   1      37.132  13.931  14.523  0.00  0.00    -0.398 OA
HETATM   61  H   UNK N   1      37.429  14.068  15.436  0.00  0.00     0.209 HD
ENDBRANCH  59  60
ENDBRANCH   1  59
TORSDOF 27
ENDMDL
MODEL 7
REMARK VINA RESULT:      -6.7      7.536     12.550
REMARK  27 active torsions:
REMARK  status: ('A' for Active; 'I' for Inactive)
REMARK    1  A    between atoms: C_3  and  C_1 
REMARK    2  A    between atoms: C_5  and  C_1 
REMARK    3  A    between atoms: C_4  and  C_2 
REMARK    4  A    between atoms: C_6  and  C_2 
REMARK    5  A    between atoms: N_30  and  C_3 
REMARK    6  A    between atoms: N_32  and  C_4 
REMARK    7  A    between atoms: O_47  and  C_5 
REMARK    8  A    between atoms: O_48  and  C_6 
REMARK    9  A    between atoms: C_13  and  C_10 
REMARK   10  A    between atoms: N_34  and  C_10 
REMARK   11  A    between atoms: C_16  and  C_11 
REMARK   12  A    between atoms: O_37  and  C_11 
REMARK   13  A    between atoms: C_17  and  C_12 
REMARK   14  A    between atoms: O_38  and  C_12 
REMARK   15  A    between atoms: C_24  and  C_14 
REMARK   16  A    between atoms: C_25  and  C_15 
REMARK   17  A    between atoms: C_18  and  O_39 
REMARK   18  A    between atoms: C_19  and  O_40 
REMARK   19  A    between atoms: C_20  and  O_41 
REMARK   20  A    between atoms: C_21  and  O_42 
REMARK   21  A    between atoms: C_22  and  O_43 
REMARK   22  A    between atoms: O_45  and  C_24 
REMARK   23  A    between atoms: O_46  and  C_25 
REMARK   24  A    between atoms: C_26  and  O_47 
REMARK   25  A    between atoms: C_27  and  O_48 
REMARK   26  A    between atoms: N_36  and  N_28 
REMARK   27  A    between atoms: N_36  and  N_34 
ROOT
HETATM    1  C   UNK N   1      22.622  19.214   3.863  0.00  0.00     0.179 C 
HETATM    2  C   UNK N   1      22.416  20.256   2.738  0.00  0.00     0.180 C 
HETATM    3  C   UNK N   1      20.957  20.722   2.735  0.00  0.00     0.183 C 
HETATM    4  C   UNK N   1      20.062  19.495   2.567  0.00  0.00     0.204 C 
HETATM    5  C   UNK N   1      20.399  18.462   3.674  0.00  0.00     0.291 C 
HETATM    6  O   UNK N   1      20.264  18.924   1.307  0.00  0.00    -0.388 OA
HETATM    7  O   UNK N   1      21.761  18.117   3.689  0.00  0.00    -0.348 OA
HETATM    8  H   UNK N   1      20.398  18.460   0.465  0.00  0.00     0.210 HD
ENDROOT
BRANCH   3   9
HETATM    9  O   UNK N   1      20.737  21.626   1.691  0.00  0.00    -0.390 OA
HETATM   10  H   UNK N   1      20.232  22.450   1.771  0.00  0.00     0.210 HD
ENDBRANCH   3   9
BRANCH   5  11
HETATM   11  O   UNK N   1      19.734  17.258   3.377  0.00  0.00    -0.358 OA
BRANCH  11  12
HETATM   12  C   UNK N   1      20.520  16.166   3.764  0.00  0.00     0.172 C 
BRANCH  12  13
HETATM   13  C   UNK N   1      19.604  15.071   4.229  0.00  0.00     0.046 C 
BRANCH  13  14
HETATM   14  C   UNK N   1      19.892  14.793   5.688  0.00  0.00     0.123 C 
BRANCH  14  15
HETATM   15  N   UNK N   1      20.022  16.042   6.367  0.00  0.00    -0.370 N 
HETATM   16  C   UNK N   1      20.665  16.143   7.467  0.00  0.00     0.146 C 
ATOM     17  HN  UNK N   1      19.591  16.874   5.963  1.00  0.00     0.161 HD
BRANCH  16  18
HETATM   18  C   UNK N   1      21.344  14.976   8.095  0.00  0.00     0.016 A 
HETATM   19  C   UNK N   1      20.869  14.211   9.169  0.00  0.00     0.024 A 
HETATM   20  C   UNK N   1      21.656  13.174   9.705  0.00  0.00    -0.036 A 
HETATM   21  C   UNK N   1      22.944  12.939   9.184  0.00  0.00     0.024 A 
HETATM   22  C   UNK N   1      23.421  13.762   8.155  0.00  0.00     0.016 A 
HETATM   23  C   UNK N   1      22.589  14.722   7.648  0.00  0.00     0.031 A 
BRANCH  20  24
HETATM   24  C   UNK N   1      21.182  12.378  10.884  0.00  0.00     0.194 C 
BRANCH  24  25
HETATM   25  N   UNK N   1      22.222  11.527  11.435  0.00  0.00    -0.248 N 
ATOM     26  HN  UNK N   1      22.445  10.642  10.978  1.00  0.00     0.197 HD
BRANCH  25  27
HETATM   27  N   UNK N   1      22.830  11.862  12.439  0.00  0.00    -0.248 NA
BRANCH  27  28
HETATM   28  N   UNK N   1      23.418  12.207  13.447  0.00  0.00    -0.261 N 
HETATM   29  H   UNK N   1      24.078  12.765  13.920  0.00  0.00     0.193 HD
ATOM     30  HN  UNK N   1      23.024  11.615  14.179  1.00  0.00     0.193 HD
ENDBRANCH  27  28
ENDBRANCH  25  27
ENDBRANCH  24  25
ENDBRANCH  20  24
BRANCH  22  31
HETATM   31  C   UNK N   1      24.797  13.681   7.604  0.00  0.00     0.146 C 
HETATM   32  N   UNK N   1      25.138  12.814   6.686  0.00  0.00    -0.370 N 
ATOM     33  HN  UNK N   1      26.126  12.767   6.438  1.00  0.00     0.161 HD
BRANCH  32  34
HETATM   34  C   UNK N   1      24.229  11.906   5.980  0.00  0.00     0.123 C 
BRANCH  34  35
HETATM   35  C   UNK N   1      23.710  12.391   4.608  0.00  0.00     0.046 C 
BRANCH  35  36
HETATM   36  C   UNK N   1      24.840  12.894   3.694  0.00  0.00     0.172 C 
BRANCH  36  37
HETATM   37  O   UNK N   1      26.077  12.334   4.011  0.00  0.00    -0.358 OA
BRANCH  37  38
HETATM   38  C   UNK N   1      27.082  13.307   3.847  0.00  0.00     0.291 C 
HETATM   39  C   UNK N   1      27.178  13.793   2.380  0.00  0.00     0.204 C 
HETATM   40  C   UNK N   1      28.199  14.948   2.303  0.00  0.00     0.183 C 
HETATM   41  C   UNK N   1      27.885  16.001   3.383  0.00  0.00     0.180 C 
HETATM   42  C   UNK N   1      27.827  15.290   4.751  0.00  0.00     0.179 C 
HETATM   43  O   UNK N   1      26.758  14.369   4.726  0.00  0.00    -0.348 OA
BRANCH  39  44
HETATM   44  O   UNK N   1      27.586  12.755   1.535  0.00  0.00    -0.388 OA
HETATM   45  H   UNK N   1      27.696  12.908   0.582  0.00  0.00     0.210 HD
ENDBRANCH  39  44
BRANCH  40  46
HETATM   46  O   UNK N   1      29.493  14.455   2.510  0.00  0.00    -0.390 OA
HETATM   47  H   UNK N   1      30.243  13.843   2.577  0.00  0.00     0.210 HD
ENDBRANCH  40  46
BRANCH  41  48
HETATM   48  O   UNK N   1      26.650  16.598   3.104  0.00  0.00    -0.390 OA
HETATM   49  H   UNK N   1      25.819  16.794   2.642  0.00  0.00     0.210 HD
ENDBRANCH  41  48
BRANCH  42  50
HETATM   50  C   UNK N   1      27.705  16.222   5.955  0.00  0.00     0.198 C 
BRANCH  50  51
HETATM   51  O   UNK N   1      26.408  16.700   6.136  0.00  0.00    -0.398 OA
HETATM   52  H   UNK N   1      25.499  16.367   6.193  0.00  0.00     0.209 HD
ENDBRANCH  50  51
ENDBRANCH  42  50
ENDBRANCH  37  38
ENDBRANCH  36  37
ENDBRANCH  35  36
ENDBRANCH  34  35
ENDBRANCH  32  34
BRANCH  31  53
HETATM   53  O   UNK N   1      25.722  14.551   8.047  0.00  0.00    -0.346 OA
HETATM   54  H   UNK N   1      25.478  15.294   8.565  0.00  0.00     0.219 HD
ENDBRANCH  31  53
ENDBRANCH  22  31
ENDBRANCH  16  18
BRANCH  16  55
HETATM   55  O   UNK N   1      20.622  17.318   8.127  0.00  0.00    -0.346 OA
HETATM   56  H   UNK N   1      20.469  18.134   7.692  0.00  0.00     0.219 HD
ENDBRANCH  16  55
ENDBRANCH  14  15
ENDBRANCH  13  14
ENDBRANCH  12  13
ENDBRANCH  11  12
ENDBRANCH   5  11
BRANCH   2  57
HETATM   57  O   UNK N   1      23.255  21.356   2.925  0.00  0.00    -0.390 OA
HETATM   58  H   UNK N   1      22.979  22.247   3.192  0.00  0.00     0.210 HD
ENDBRANCH   2  57
BRANCH   1  59
HETATM   59  C   UNK N   1      24.013  18.589   3.800  0.00  0.00     0.198 C 
BRANCH  59  60
HETATM   60  O   UNK N   1      24.256  17.707   4.848  0.00  0.00    -0.398 OA
HETATM   61  H   UNK N   1      23.900  16.804   4.856  0.00  0.00     0.209 HD
ENDBRANCH  59  60
ENDBRANCH   1  59
TORSDOF 27
ENDMDL
MODEL 8
REMARK VINA RESULT:      -6.6      2.457      4.687
REMARK  27 active torsions:
REMARK  status: ('A' for Active; 'I' for Inactive)
REMARK    1  A    between atoms: C_3  and  C_1 
REMARK    2  A    between atoms: C_5  and  C_1 
REMARK    3  A    between atoms: C_4  and  C_2 
REMARK    4  A    between atoms: C_6  and  C_2 
REMARK    5  A    between atoms: N_30  and  C_3 
REMARK    6  A    between atoms: N_32  and  C_4 
REMARK    7  A    between atoms: O_47  and  C_5 
REMARK    8  A    between atoms: O_48  and  C_6 
REMARK    9  A    between atoms: C_13  and  C_10 
REMARK   10  A    between atoms: N_34  and  C_10 
REMARK   11  A    between atoms: C_16  and  C_11 
REMARK   12  A    between atoms: O_37  and  C_11 
REMARK   13  A    between atoms: C_17  and  C_12 
REMARK   14  A    between atoms: O_38  and  C_12 
REMARK   15  A    between atoms: C_24  and  C_14 
REMARK   16  A    between atoms: C_25  and  C_15 
REMARK   17  A    between atoms: C_18  and  O_39 
REMARK   18  A    between atoms: C_19  and  O_40 
REMARK   19  A    between atoms: C_20  and  O_41 
REMARK   20  A    between atoms: C_21  and  O_42 
REMARK   21  A    between atoms: C_22  and  O_43 
REMARK   22  A    between atoms: O_45  and  C_24 
REMARK   23  A    between atoms: O_46  and  C_25 
REMARK   24  A    between atoms: C_26  and  O_47 
REMARK   25  A    between atoms: C_27  and  O_48 
REMARK   26  A    between atoms: N_36  and  N_28 
REMARK   27  A    between atoms: N_36  and  N_34 
ROOT
HETATM    1  C   UNK N   1      35.874  14.410  11.703  0.00  0.00     0.179 C 
HETATM    2  C   UNK N   1      34.813  13.313  11.452  0.00  0.00     0.180 C 
HETATM    3  C   UNK N   1      34.415  13.317   9.973  0.00  0.00     0.183 C 
HETATM    4  C   UNK N   1      33.907  14.714   9.618  0.00  0.00     0.204 C 
HETATM    5  C   UNK N   1      34.990  15.760   9.989  0.00  0.00     0.291 C 
HETATM    6  O   UNK N   1      32.725  14.986  10.314  0.00  0.00    -0.388 OA
HETATM    7  O   UNK N   1      35.380  15.673  11.336  0.00  0.00    -0.348 OA
HETATM    8  H   UNK N   1      31.930  15.245  10.806  0.00  0.00     0.210 HD
ENDROOT
BRANCH   3   9
HETATM    9  O   UNK N   1      33.417  12.367   9.736  0.00  0.00    -0.390 OA
HETATM   10  H   UNK N   1      33.571  11.488   9.355  0.00  0.00     0.210 HD
ENDBRANCH   3   9
BRANCH   5  11
HETATM   11  O   UNK N   1      34.429  17.045   9.867  0.00  0.00    -0.358 OA
BRANCH  11  12
HETATM   12  C   UNK N   1      34.393  17.428   8.521  0.00  0.00     0.172 C 
BRANCH  12  13
HETATM   13  C   UNK N   1      33.238  18.369   8.332  0.00  0.00     0.046 C 
BRANCH  13  14
HETATM   14  C   UNK N   1      32.021  17.560   7.940  0.00  0.00     0.123 C 
BRANCH  14  15
HETATM   15  N   UNK N   1      31.364  17.130   9.133  0.00  0.00    -0.370 N 
HETATM   16  C   UNK N   1      30.098  17.233   9.275  0.00  0.00     0.146 C 
ATOM     17  HN  UNK N   1      31.919  16.733   9.890  1.00  0.00     0.161 HD
BRANCH  16  18
HETATM   18  C   UNK N   1      29.224  17.776   8.198  0.00  0.00     0.016 A 
HETATM   19  C   UNK N   1      28.756  19.092   8.085  0.00  0.00     0.024 A 
HETATM   20  C   UNK N   1      27.875  19.446   7.045  0.00  0.00    -0.036 A 
HETATM   21  C   UNK N   1      27.432  18.458   6.144  0.00  0.00     0.024 A 
HETATM   22  C   UNK N   1      27.863  17.136   6.319  0.00  0.00     0.016 A 
HETATM   23  C   UNK N   1      28.754  16.867   7.323  0.00  0.00     0.031 A 
BRANCH  20  24
HETATM   24  C   UNK N   1      27.329  20.838   6.939  0.00  0.00     0.194 C 
BRANCH  24  25
HETATM   25  N   UNK N   1      25.926  20.915   7.307  0.00  0.00    -0.248 N 
ATOM     26  HN  UNK N   1      25.243  20.337   6.817  1.00  0.00     0.197 HD
BRANCH  25  27
HETATM   27  N   UNK N   1      25.560  21.665   8.197  0.00  0.00    -0.248 NA
BRANCH  27  28
HETATM   28  N   UNK N   1      25.178  22.421   9.072  0.00  0.00    -0.261 N 
HETATM   29  H   UNK N   1      25.345  23.068   9.796  0.00  0.00     0.193 HD
ATOM     30  HN  UNK N   1      24.161  22.349   9.036  1.00  0.00     0.193 HD
ENDBRANCH  27  28
ENDBRANCH  25  27
ENDBRANCH  24  25
ENDBRANCH  20  24
BRANCH  22  31
HETATM   31  C   UNK N   1      27.378  15.995   5.504  0.00  0.00     0.146 C 
HETATM   32  N   UNK N   1      27.631  15.886   4.226  0.00  0.00    -0.370 N 
ATOM     33  HN  UNK N   1      27.176  15.120   3.727  1.00  0.00     0.161 HD
BRANCH  32  34
HETATM   34  C   UNK N   1      28.508  16.761   3.444  0.00  0.00     0.123 C 
BRANCH  34  35
HETATM   35  C   UNK N   1      29.685  16.075   2.717  0.00  0.00     0.046 C 
BRANCH  35  36
HETATM   36  C   UNK N   1      30.776  15.590   3.686  0.00  0.00     0.172 C 
BRANCH  36  37
HETATM   37  O   UNK N   1      31.986  15.326   3.045  0.00  0.00    -0.358 OA
BRANCH  37  38
HETATM   38  C   UNK N   1      32.817  14.586   3.908  0.00  0.00     0.291 C 
HETATM   39  C   UNK N   1      33.218  15.402   5.162  0.00  0.00     0.204 C 
HETATM   40  C   UNK N   1      34.008  14.488   6.120  0.00  0.00     0.183 C 
HETATM   41  C   UNK N   1      33.241  13.171   6.345  0.00  0.00     0.180 C 
HETATM   42  C   UNK N   1      32.940  12.545   4.967  0.00  0.00     0.179 C 
HETATM   43  O   UNK N   1      32.091  13.420   4.258  0.00  0.00    -0.348 OA
BRANCH  39  44
HETATM   44  O   UNK N   1      34.009  16.502   4.809  0.00  0.00    -0.388 OA
HETATM   45  H   UNK N   1      34.225  17.185   5.464  0.00  0.00     0.210 HD
ENDBRANCH  39  44
BRANCH  40  46
HETATM   46  O   UNK N   1      35.264  14.196   5.574  0.00  0.00    -0.390 OA
HETATM   47  H   UNK N   1      36.065  13.710   5.320  0.00  0.00     0.210 HD
ENDBRANCH  40  46
BRANCH  41  48
HETATM   48  O   UNK N   1      32.043  13.441   7.017  0.00  0.00    -0.390 OA
HETATM   49  H   UNK N   1      31.396  13.910   7.566  0.00  0.00     0.210 HD
ENDBRANCH  41  48
BRANCH  42  50
HETATM   50  C   UNK N   1      32.342  11.139   5.017  0.00  0.00     0.198 C 
BRANCH  50  51
HETATM   51  O   UNK N   1      32.304  10.617   6.308  0.00  0.00    -0.398 OA
HETATM   52  H   UNK N   1      32.043   9.805   6.770  0.00  0.00     0.209 HD
ENDBRANCH  50  51
ENDBRANCH  42  50
ENDBRANCH  37  38
ENDBRANCH  36  37
ENDBRANCH  35  36
ENDBRANCH  34  35
ENDBRANCH  32  34
BRANCH  31  53
HETATM   53  O   UNK N   1      26.674  15.021   6.110  0.00  0.00    -0.346 OA
HETATM   54  H   UNK N   1      26.622  14.972   7.044  0.00  0.00     0.219 HD
ENDBRANCH  31  53
ENDBRANCH  22  31
ENDBRANCH  16  18
BRANCH  16  55
HETATM   55  O   UNK N   1      29.563  16.947  10.480  0.00  0.00    -0.346 OA
HETATM   56  H   UNK N   1      29.863  16.231  11.005  0.00  0.00     0.219 HD
ENDBRANCH  16  55
ENDBRANCH  14  15
ENDBRANCH  13  14
ENDBRANCH  12  13
ENDBRANCH  11  12
ENDBRANCH   5  11
BRANCH   2  57
HETATM   57  O   UNK N   1      35.313  12.055  11.795  0.00  0.00    -0.390 OA
HETATM   58  H   UNK N   1      35.398  11.292  11.201  0.00  0.00     0.210 HD
ENDBRANCH   2  57
BRANCH   1  59
HETATM   59  C   UNK N   1      36.179  14.564  13.191  0.00  0.00     0.198 C 
BRANCH  59  60
HETATM   60  O   UNK N   1      35.308  13.839  13.997  0.00  0.00    -0.398 OA
HETATM   61  H   UNK N   1      34.837  13.055  13.673  0.00  0.00     0.209 HD
ENDBRANCH  59  60
ENDBRANCH   1  59
TORSDOF 27
ENDMDL
MODEL 9
REMARK VINA RESULT:      -6.6      8.411     13.023
REMARK  27 active torsions:
REMARK  status: ('A' for Active; 'I' for Inactive)
REMARK    1  A    between atoms: C_3  and  C_1 
REMARK    2  A    between atoms: C_5  and  C_1 
REMARK    3  A    between atoms: C_4  and  C_2 
REMARK    4  A    between atoms: C_6  and  C_2 
REMARK    5  A    between atoms: N_30  and  C_3 
REMARK    6  A    between atoms: N_32  and  C_4 
REMARK    7  A    between atoms: O_47  and  C_5 
REMARK    8  A    between atoms: O_48  and  C_6 
REMARK    9  A    between atoms: C_13  and  C_10 
REMARK   10  A    between atoms: N_34  and  C_10 
REMARK   11  A    between atoms: C_16  and  C_11 
REMARK   12  A    between atoms: O_37  and  C_11 
REMARK   13  A    between atoms: C_17  and  C_12 
REMARK   14  A    between atoms: O_38  and  C_12 
REMARK   15  A    between atoms: C_24  and  C_14 
REMARK   16  A    between atoms: C_25  and  C_15 
REMARK   17  A    between atoms: C_18  and  O_39 
REMARK   18  A    between atoms: C_19  and  O_40 
REMARK   19  A    between atoms: C_20  and  O_41 
REMARK   20  A    between atoms: C_21  and  O_42 
REMARK   21  A    between atoms: C_22  and  O_43 
REMARK   22  A    between atoms: O_45  and  C_24 
REMARK   23  A    between atoms: O_46  and  C_25 
REMARK   24  A    between atoms: C_26  and  O_47 
REMARK   25  A    between atoms: C_27  and  O_48 
REMARK   26  A    between atoms: N_36  and  N_28 
REMARK   27  A    between atoms: N_36  and  N_34 
ROOT
HETATM    1  C   UNK N   1      22.010  19.430   3.470  0.00  0.00     0.179 C 
HETATM    2  C   UNK N   1      21.809  20.455   2.328  0.00  0.00     0.180 C 
HETATM    3  C   UNK N   1      20.331  20.487   1.927  0.00  0.00     0.183 C 
HETATM    4  C   UNK N   1      19.912  19.074   1.525  0.00  0.00     0.204 C 
HETATM    5  C   UNK N   1      20.236  18.097   2.685  0.00  0.00     0.291 C 
HETATM    6  O   UNK N   1      20.595  18.682   0.370  0.00  0.00    -0.388 OA
HETATM    7  O   UNK N   1      21.586  18.152   3.072  0.00  0.00    -0.348 OA
HETATM    8  H   UNK N   1      21.073  18.342  -0.402  0.00  0.00     0.210 HD
ENDROOT
BRANCH   3   9
HETATM    9  O   UNK N   1      20.136  21.370   0.860  0.00  0.00    -0.390 OA
HETATM   10  H   UNK N   1      19.339  21.402   0.308  0.00  0.00     0.210 HD
ENDBRANCH   3   9
BRANCH   5  11
HETATM   11  O   UNK N   1      20.055  16.780   2.222  0.00  0.00    -0.358 OA
BRANCH  11  12
HETATM   12  C   UNK N   1      21.265  16.079   2.283  0.00  0.00     0.172 C 
BRANCH  12  13
HETATM   13  C   UNK N   1      20.990  14.722   2.865  0.00  0.00     0.046 C 
BRANCH  13  14
HETATM   14  C   UNK N   1      21.201  14.791   4.362  0.00  0.00     0.123 C 
BRANCH  14  15
HETATM   15  N   UNK N   1      22.385  15.548   4.614  0.00  0.00    -0.370 N 
HETATM   16  C   UNK N   1      22.704  15.919   5.795  0.00  0.00     0.146 C 
ATOM     17  HN  UNK N   1      22.991  15.798   3.833  1.00  0.00     0.161 HD
BRANCH  16  18
HETATM   18  C   UNK N   1      21.881  15.562   6.984  0.00  0.00     0.016 A 
HETATM   19  C   UNK N   1      20.792  16.281   7.494  0.00  0.00     0.024 A 
HETATM   20  C   UNK N   1      20.150  15.858   8.673  0.00  0.00    -0.036 A 
HETATM   21  C   UNK N   1      20.638  14.731   9.363  0.00  0.00     0.024 A 
HETATM   22  C   UNK N   1      21.770  14.068   8.869  0.00  0.00     0.016 A 
HETATM   23  C   UNK N   1      22.320  14.504   7.693  0.00  0.00     0.031 A 
BRANCH  20  24
HETATM   24  C   UNK N   1      19.014  16.643   9.256  0.00  0.00     0.194 C 
BRANCH  24  25
HETATM   25  N   UNK N   1      19.161  18.072   9.048  0.00  0.00    -0.248 N 
ATOM     26  HN  UNK N   1      19.401  18.426   8.122  1.00  0.00     0.197 HD
BRANCH  25  27
HETATM   27  N   UNK N   1      18.998  18.853   9.972  0.00  0.00    -0.248 NA
BRANCH  27  28
HETATM   28  N   UNK N   1      18.814  19.631  10.890  0.00  0.00    -0.261 N 
HETATM   29  H   UNK N   1      19.137  20.278  11.559  0.00  0.00     0.193 HD
ATOM     30  HN  UNK N   1      17.806  19.596  11.047  1.00  0.00     0.193 HD
ENDBRANCH  27  28
ENDBRANCH  25  27
ENDBRANCH  24  25
ENDBRANCH  20  24
BRANCH  22  31
HETATM   31  C   UNK N   1      22.438  12.941   9.566  0.00  0.00     0.146 C 
HETATM   32  N   UNK N   1      22.743  11.822   8.964  0.00  0.00    -0.370 N 
ATOM     33  HN  UNK N   1      23.111  11.069   9.545  1.00  0.00     0.161 HD
BRANCH  32  34
HETATM   34  C   UNK N   1      22.606  11.551   7.530  0.00  0.00     0.123 C 
BRANCH  34  35
HETATM   35  C   UNK N   1      23.592  10.524   6.932  0.00  0.00     0.046 C 
BRANCH  35  36
HETATM   36  C   UNK N   1      24.178  10.981   5.586  0.00  0.00     0.172 C 
BRANCH  36  37
HETATM   37  O   UNK N   1      23.822  12.290   5.263  0.00  0.00    -0.358 OA
BRANCH  37  38
HETATM   38  C   UNK N   1      24.833  12.863   4.467  0.00  0.00     0.291 C 
HETATM   39  C   UNK N   1      24.359  13.093   3.011  0.00  0.00     0.204 C 
HETATM   40  C   UNK N   1      25.465  13.842   2.239  0.00  0.00     0.183 C 
HETATM   41  C   UNK N   1      25.923  15.076   3.040  0.00  0.00     0.180 C 
HETATM   42  C   UNK N   1      26.334  14.610   4.453  0.00  0.00     0.179 C 
HETATM   43  O   UNK N   1      25.194  14.081   5.094  0.00  0.00    -0.348 OA
BRANCH  39  44
HETATM   44  O   UNK N   1      24.092  11.874   2.375  0.00  0.00    -0.388 OA
HETATM   45  H   UNK N   1      23.394  11.287   2.708  0.00  0.00     0.210 HD
ENDBRANCH  39  44
BRANCH  40  46
HETATM   46  O   UNK N   1      26.562  12.997   2.036  0.00  0.00    -0.390 OA
HETATM   47  H   UNK N   1      27.466  12.645   2.054  0.00  0.00     0.210 HD
ENDBRANCH  40  46
BRANCH  41  48
HETATM   48  O   UNK N   1      24.868  15.991   3.129  0.00  0.00    -0.390 OA
HETATM   49  H   UNK N   1      23.965  16.344   3.079  0.00  0.00     0.210 HD
ENDBRANCH  41  48
BRANCH  42  50
HETATM   50  C   UNK N   1      26.987  15.685   5.320  0.00  0.00     0.198 C 
BRANCH  50  51
HETATM   51  O   UNK N   1      26.534  16.967   5.017  0.00  0.00    -0.398 OA
HETATM   52  H   UNK N   1      25.975  17.663   5.397  0.00  0.00     0.209 HD
ENDBRANCH  50  51
ENDBRANCH  42  50
ENDBRANCH  37  38
ENDBRANCH  36  37
ENDBRANCH  35  36
ENDBRANCH  34  35
ENDBRANCH  32  34
BRANCH  31  53
HETATM   53  O   UNK N   1      22.766  13.089  10.863  0.00  0.00    -0.346 OA
HETATM   54  H   UNK N   1      23.655  13.232  11.123  0.00  0.00     0.219 HD
ENDBRANCH  31  53
ENDBRANCH  22  31
ENDBRANCH  16  18
BRANCH  16  55
HETATM   55  O   UNK N   1      23.753  16.754   5.942  0.00  0.00    -0.346 OA
HETATM   56  H   UNK N   1      24.331  16.709   6.679  0.00  0.00     0.219 HD
ENDBRANCH  16  55
ENDBRANCH  14  15
ENDBRANCH  13  14
ENDBRANCH  12  13
ENDBRANCH  11  12
ENDBRANCH   5  11
BRANCH   2  57
HETATM   57  O   UNK N   1      22.209  21.730   2.733  0.00  0.00    -0.390 OA
HETATM   58  H   UNK N   1      23.036  22.174   2.489  0.00  0.00     0.210 HD
ENDBRANCH   2  57
BRANCH   1  59
HETATM   59  C   UNK N   1      23.490  19.232   3.790  0.00  0.00     0.198 C 
BRANCH  59  60
HETATM   60  O   UNK N   1      24.318  20.065   3.045  0.00  0.00    -0.398 OA
HETATM   61  H   UNK N   1      25.189  19.777   2.728  0.00  0.00     0.209 HD
ENDBRANCH  59  60
ENDBRANCH   1  59
TORSDOF 27
ENDMDL
