REMARK  18 active torsions:
REMARK  status: ('A' for Active; 'I' for Inactive)
REMARK    1  A    between atoms: C_7  and  C_2 
REMARK    2  A    between atoms: O_35  and  C_2 
REMARK    3  A    between atoms: C_8  and  C_3 
REMARK    4  A    between atoms: O_36  and  C_3 
REMARK    5  A    between atoms: O_37  and  C_6 
REMARK    6  A    between atoms: C_10  and  O_27 
REMARK    7  A    between atoms: C_11  and  O_28 
REMARK    8  A    between atoms: C_12  and  O_29 
REMARK    9  A    between atoms: C_13  and  O_37 
REMARK   10  A    between atoms: N_18  and  C_14 
REMARK   11  A    between atoms: C_16  and  N_25 
REMARK   12  A    between atoms: C_17  and  O_30 
REMARK   13  A    between atoms: P_41  and  O_31 
REMARK   14  A    between atoms: P_42  and  O_33 
REMARK   15  A    between atoms: P_41  and  O_35 
REMARK   16  A    between atoms: P_42  and  O_36 
REMARK   17  A    between atoms: P_41  and  O_40 
REMARK   18  A    between atoms: P_42  and  O_40 
ROOT
HETATM    1  C   UNK N   1      -1.082  -1.356   1.133  0.00  0.00     0.215 C 
ENDROOT
BRANCH   1   2
HETATM    2  C   UNK N   1       0.034  -0.707   0.343  0.00  0.00     0.180 C 
HETATM    3  C   UNK N   1       1.313  -1.529   0.310  0.00  0.00     0.182 C 
HETATM    4  C   UNK N   1       2.237  -0.440  -0.148  0.00  0.00     0.198 C 
HETATM    5  C   UNK N   1       1.763   0.665   0.800  0.00  0.00     0.262 C 
HETATM    6  O   UNK N   1       0.362   0.522   0.937  0.00  0.00    -0.353 OA
BRANCH   3   7
HETATM    7  O   UNK N   1       1.252  -2.609  -0.574  0.00  0.00    -0.390 OA
HETATM    8  H   UNK N   1       0.581  -2.947  -1.188  0.00  0.00     0.210 HD
ENDBRANCH   3   7
BRANCH   4   9
HETATM    9  O   UNK N   1       3.585  -0.768   0.014  0.00  0.00    -0.388 OA
HETATM   10  H   UNK N   1       3.856  -1.693   0.126  0.00  0.00     0.210 HD
ENDBRANCH   4   9
BRANCH   5  11
HETATM   11  N   UNK N   1       2.076   2.012   0.325  0.00  0.00    -0.297 N 
HETATM   12  C   UNK N   1       1.174   2.980   0.011  0.00  0.00     0.188 A 
HETATM   13  N   UNK N   1       1.790   4.143  -0.335  0.00  0.00    -0.346 N 
HETATM   14  C   UNK N   1       3.101   3.867  -0.222  0.00  0.00     0.122 A 
ATOM     15  HN  UNK N   1       1.357   5.022  -0.617  1.00  0.00     0.167 HD
HETATM   16  C   UNK N   1       4.197   4.686  -0.417  0.00  0.00     0.131 A 
HETATM   17  C   UNK N   1       3.272   2.587   0.166  0.00  0.00     0.142 A 
HETATM   18  N   UNK N   1       5.438   4.153  -0.213  0.00  0.00    -0.337 N 
HETATM   19  C   UNK N   1       5.590   2.842   0.176  0.00  0.00     0.183 A 
ATOM     20  HN  UNK N   1       6.264   4.735  -0.351  1.00  0.00     0.168 HD
HETATM   21  N   UNK N   1       4.494   2.046   0.376  0.00  0.00    -0.336 N 
ATOM     22  HN  UNK N   1       4.596   1.075   0.675  1.00  0.00     0.168 HD
BRANCH  16  23
HETATM   23  N   UNK N   1       4.044   6.036  -0.794  0.00  0.00    -0.383 N 
HETATM   24  H   UNK N   1       4.807   6.599  -1.058  0.00  0.00     0.157 HD
HETATM   25  H   UNK N   1       3.142   6.429  -0.794  0.00  0.00     0.157 HD
ENDBRANCH  16  23
ENDBRANCH   5  11
ENDBRANCH   1   2
BRANCH   1  26
HETATM   26  O   UNK N   1      -1.699  -2.335   0.363  0.00  0.00    -0.294 OA
BRANCH  26  27
HETATM   27  P   UNK N   1      -3.011  -1.558  -0.504  0.00  0.00     0.401 P 
HETATM   28  O   UNK N   1      -3.319  -0.175   0.135  0.00  0.00    -0.631 OA
BRANCH  27  29
HETATM   29  O   UNK N   1      -2.586  -1.274  -2.164  0.00  0.00    -0.307 OA
HETATM   30  H   UNK N   1      -2.330  -1.399  -3.091  0.00  0.00     0.222 HD
ENDBRANCH  27  29
BRANCH  27  31
HETATM   31  O   UNK N   1      -4.470  -2.488  -0.379  0.00  0.00    -0.195 OA
BRANCH  31  32
HETATM   32  P   UNK N   1      -3.944  -4.132  -0.532  0.00  0.00     0.401 P 
HETATM   33  O   UNK N   1      -5.226  -5.005  -0.612  0.00  0.00    -0.631 OA
BRANCH  32  34
HETATM   34  O   UNK N   1      -3.092  -4.346  -2.034  0.00  0.00    -0.307 OA
HETATM   35  H   UNK N   1      -2.958  -4.817  -2.871  0.00  0.00     0.222 HD
ENDBRANCH  32  34
BRANCH  32  36
HETATM   36  O   UNK N   1      -2.968  -4.634   0.847  0.00  0.00    -0.294 OA
BRANCH  36  37
HETATM   37  C   UNK N   1      -3.275  -5.972   1.128  0.00  0.00     0.215 C 
BRANCH  37  38
HETATM   38  C   UNK N   1      -2.615  -6.915   0.118  0.00  0.00     0.180 C 
HETATM   39  C   UNK N   1      -3.446  -8.174  -0.124  0.00  0.00     0.183 C 
HETATM   40  C   UNK N   1      -2.579  -9.251   0.445  0.00  0.00     0.218 C 
HETATM   41  C   UNK N   1      -1.216  -8.657   0.122  0.00  0.00     0.289 C 
HETATM   42  O   UNK N   1      -1.311  -7.304   0.508  0.00  0.00    -0.349 OA
BRANCH  39  43
HETATM   43  O   UNK N   1      -4.723  -8.159   0.450  0.00  0.00    -0.390 OA
HETATM   44  H   UNK N   1      -5.157  -7.388   0.847  0.00  0.00     0.210 HD
ENDBRANCH  39  43
BRANCH  40  45
HETATM   45  O   UNK N   1      -2.884 -10.449  -0.180  0.00  0.00    -0.309 OA
BRANCH  45  46
HETATM   46  C   UNK N   1      -2.260 -11.638  -0.011  0.00  0.00     0.255 C 
HETATM   47  C   UNK N   1      -2.800 -12.840  -0.705  0.00  0.00     0.126 C 
HETATM   48  O   UNK N   1      -1.270 -11.741   0.693  0.00  0.00    -0.266 OA
ENDBRANCH  45  46
ENDBRANCH  40  45
BRANCH  41  49
HETATM   49  O   UNK N   1      -0.199  -9.287   0.839  0.00  0.00    -0.368 OA
HETATM   50  H   UNK N   1      -0.224 -10.119   1.338  0.00  0.00     0.212 HD
ENDBRANCH  41  49
ENDBRANCH  37  38
ENDBRANCH  36  37
ENDBRANCH  32  36
ENDBRANCH  31  32
ENDBRANCH  27  31
ENDBRANCH  26  27
ENDBRANCH   1  26
TORSDOF 18
