REMARK  6 active torsions:
REMARK  status: ('A' for Active; 'I' for Inactive)
REMARK    1  A    between atoms: C_3  and  C_2 
REMARK    2  A    between atoms: O_13  and  C_2 
REMARK    3  A    between atoms: C_4  and  O_14 
REMARK    4  A    between atoms: C_5  and  O_15 
REMARK    5  A    between atoms: C_6  and  O_16 
REMARK    6  A    between atoms: O_18  and  C_8 
ROOT
HETATM    1  C   UNK N   1      -2.199  -1.145   1.319  0.00  0.00     0.163 C 
HETATM    2  C   UNK N   1       2.947  -0.534  -0.387  0.00  0.00     0.180 C 
HETATM    3  C   UNK N   1       3.788   0.730  -0.057  0.00  0.00     0.180 C 
HETATM    4  C   UNK N   1       2.902   1.993  -0.072  0.00  0.00     0.183 C 
HETATM    5  C   UNK N   1       1.571   1.716   0.629  0.00  0.00     0.215 C 
HETATM    6  C   UNK N   1       0.121  -0.417   0.862  0.00  0.00     0.285 A 
HETATM    7  C   UNK N   1      -1.386   0.492  -0.432  0.00  0.00     0.224 A 
HETATM    8  C   UNK N   1       0.859   0.517  -0.092  0.00  0.00     0.250 A 
HETATM    9  N   UNK N   1      -0.292   1.015  -0.856  0.00  0.00    -0.314 N 
ATOM     10  HN  UNK N   1      -0.230   1.687  -1.622  1.00  0.00     0.166 HD
HETATM   11  N   UNK N   1      -1.188  -0.393   0.621  0.00  0.00    -0.284 N 
HETATM   12  O   UNK N   1       0.630  -1.102   1.737  0.00  0.00    -0.267 OA
HETATM   13  O   UNK N   1       1.714  -0.196  -0.992  0.00  0.00    -0.340 OA
ENDROOT
BRANCH   5  14
HETATM   14  O   UNK N   1       1.816   1.432   1.977  0.00  0.00    -0.387 OA
HETATM   15  H   UNK N   1       1.730   1.187   2.912  0.00  0.00     0.210 HD
ENDBRANCH   5  14
BRANCH   4  16
HETATM   16  O   UNK N   1       3.572   3.073   0.512  0.00  0.00    -0.390 OA
HETATM   17  H   UNK N   1       4.453   3.045   0.918  0.00  0.00     0.210 HD
ENDBRANCH   4  16
BRANCH   7  18
HETATM   18  O   UNK N   1      -2.593   0.774  -0.959  0.00  0.00    -0.332 OA
HETATM   19  H   UNK N   1      -2.843   1.599  -1.325  0.00  0.00     0.220 HD
ENDBRANCH   7  18
BRANCH   2  20
HETATM   20  C   UNK N   1       3.703  -1.479  -1.315  0.00  0.00     0.198 C 
BRANCH  20  21
HETATM   21  O   UNK N   1       4.863  -1.954  -0.703  0.00  0.00    -0.398 OA
HETATM   22  H   UNK N   1       4.981  -2.818  -0.278  0.00  0.00     0.209 HD
ENDBRANCH  20  21
ENDBRANCH   2  20
BRANCH   3  23
HETATM   23  O   UNK N   1       4.388   0.552   1.195  0.00  0.00    -0.390 OA
HETATM   24  H   UNK N   1       4.489   0.130   2.063  0.00  0.00     0.210 HD
ENDBRANCH   3  23
TORSDOF 6
