MODEL 1
REMARK VINA RESULT:      -8.7      0.000      0.000
REMARK  15 active torsions:
REMARK  status: ('A' for Active; 'I' for Inactive)
REMARK    1  A    between atoms: C_23  and  C_18 
REMARK    2  A    between atoms: C_29  and  C_18 
REMARK    3  A    between atoms: C_26  and  C_19 
REMARK    4  A    between atoms: C_30  and  C_19 
REMARK    5  A    between atoms: C_22  and  C_20 
REMARK    6  A    between atoms: N_38  and  C_20 
REMARK    7  A    between atoms: O_39  and  C_21 
REMARK    8  A    between atoms: C_25  and  C_24 
REMARK    9  A    between atoms: C_33  and  C_27 
REMARK   10  A    between atoms: C_28  and  N_36 
REMARK   11  A    between atoms: C_31  and  C_29 
REMARK   12  A    between atoms: C_29  and  N_34 
REMARK   13  A    between atoms: O_41  and  C_30 
REMARK   14  A    between atoms: C_31  and  O_42 
REMARK   15  A    between atoms: O_45  and  C_33 
ROOT
HETATM    1  C   UNK N   1      28.574  16.926   3.862  0.00  0.00     0.135 C 
HETATM    2  N   UNK N   1      29.274  17.301   4.876  0.00  0.00    -0.359 N 
ATOM      3  HN  UNK N   1      28.823  17.901   5.566  1.00  0.00     0.162 HD
ENDROOT
BRANCH   1   4
HETATM    4  C   UNK N   1      27.089  17.060   3.950  0.00  0.00     0.162 C 
BRANCH   4   5
HETATM    5  C   UNK N   1      26.828  18.575   4.099  0.00  0.00     0.072 C 
BRANCH   5   6
HETATM    6  C   UNK N   1      25.486  19.098   3.700  0.00  0.00    -0.055 A 
HETATM    7  C   UNK N   1      25.384  20.214   2.865  0.00  0.00     0.008 A 
HETATM    8  C   UNK N   1      24.125  20.734   2.549  0.00  0.00     0.009 A 
HETATM    9  C   UNK N   1      22.960  20.143   3.063  0.00  0.00    -0.031 A 
HETATM   10  C   UNK N   1      23.068  18.999   3.899  0.00  0.00     0.045 A 
HETATM   11  C   UNK N   1      24.337  18.509   4.213  0.00  0.00     0.026 A 
BRANCH   9  12
HETATM   12  C   UNK N   1      21.627  20.731   2.698  0.00  0.00     0.149 C 
BRANCH  12  13
HETATM   13  C   UNK N   1      21.108  20.187   1.402  0.00  0.00     0.143 C 
HETATM   14  O   UNK N   1      21.387  20.747   0.355  0.00  0.00    -0.650 OA
BRANCH  13  15
HETATM   15  O   UNK N   1      20.313  19.101   1.389  0.00  0.00    -0.776 OA
HETATM   16  H   UNK N   1      19.436  19.166   1.063  0.00  0.00     0.167 HD
ENDBRANCH  13  15
ENDBRANCH  12  13
ENDBRANCH   9  12
BRANCH  10  17
HETATM   17  C   UNK N   1      21.904  18.277   4.469  0.00  0.00     0.176 C 
HETATM   18  O   UNK N   1      21.542  18.466   5.618  0.00  0.00    -0.646 OA
BRANCH  17  19
HETATM   19  O   UNK N   1      21.218  17.406   3.701  0.00  0.00    -0.773 OA
HETATM   20  H   UNK N   1      21.138  17.400   2.767  0.00  0.00     0.167 HD
ENDBRANCH  17  19
ENDBRANCH  10  17
ENDBRANCH   5   6
ENDBRANCH   4   5
BRANCH   4  21
HETATM   21  N   UNK N   1      26.443  16.489   2.782  0.00  0.00    -0.362 N 
HETATM   22  C   UNK N   1      25.759  15.397   2.815  0.00  0.00     0.107 C 
HETATM   23  C   UNK N   1      25.136  14.886   1.563  0.00  0.00     0.097 C 
ATOM     24  HN  UNK N   1      26.533  16.977   1.891  1.00  0.00     0.162 HD
BRANCH  22  25
HETATM   25  O   UNK N   1      25.584  14.722   3.969  0.00  0.00    -0.350 OA
HETATM   26  H   UNK N   1      26.201  14.568   4.656  0.00  0.00     0.219 HD
ENDBRANCH  22  25
ENDBRANCH   4  21
ENDBRANCH   1   4
BRANCH   1  27
HETATM   27  O   UNK N   1      29.136  16.292   2.810  0.00  0.00    -0.348 OA
HETATM   28  H   UNK N   1      29.657  16.563   2.081  0.00  0.00     0.219 HD
ENDBRANCH   1  27
BRANCH   2  29
HETATM   29  C   UNK N   1      30.649  16.937   5.106  0.00  0.00     0.175 C 
HETATM   30  C   UNK N   1      31.557  17.532   4.030  0.00  0.00     0.035 C 
HETATM   31  C   UNK N   1      32.888  16.762   3.926  0.00  0.00     0.004 C 
HETATM   32  C   UNK N   1      33.472  16.370   5.282  0.00  0.00     0.020 C 
HETATM   33  C   UNK N   1      33.399  17.564   6.216  0.00  0.00     0.126 C 
HETATM   34  N   UNK N   1      32.194  17.562   7.043  0.00  0.00    -0.346 N 
HETATM   35  C   UNK N   1      30.942  17.391   6.534  0.00  0.00     0.242 C 
HETATM   36  O   UNK N   1      29.984  17.519   7.295  0.00  0.00    -0.271 OA
BRANCH  34  37
HETATM   37  C   UNK N   1      32.339  17.678   8.487  0.00  0.00     0.164 C 
BRANCH  37  38
HETATM   38  C   UNK N   1      33.340  16.661   8.887  0.00  0.00    -0.040 A 
HETATM   39  C   UNK N   1      34.569  17.097   9.402  0.00  0.00     0.009 A 
HETATM   40  C   UNK N   1      35.300  16.264  10.236  0.00  0.00     0.013 A 
HETATM   41  C   UNK N   1      34.815  14.985  10.542  0.00  0.00    -0.026 A 
HETATM   42  C   UNK N   1      33.653  14.512   9.911  0.00  0.00     0.013 A 
HETATM   43  C   UNK N   1      32.908  15.356   9.098  0.00  0.00     0.009 A 
BRANCH  41  44
HETATM   44  C   UNK N   1      35.346  14.256  11.707  0.00  0.00    -0.026 A 
HETATM   45  C   UNK N   1      34.960  12.927  11.939  0.00  0.00     0.012 A 
HETATM   46  C   UNK N   1      35.295  12.293  13.136  0.00  0.00     0.001 A 
HETATM   47  C   UNK N   1      35.993  12.991  14.123  0.00  0.00     0.000 A 
HETATM   48  C   UNK N   1      36.381  14.315  13.905  0.00  0.00     0.001 A 
HETATM   49  C   UNK N   1      36.056  14.947  12.703  0.00  0.00     0.012 A 
ENDBRANCH  41  44
ENDBRANCH  37  38
ENDBRANCH  34  37
ENDBRANCH   2  29
TORSDOF 15
ENDMDL
MODEL 2
REMARK VINA RESULT:      -8.7      3.604      6.446
REMARK  15 active torsions:
REMARK  status: ('A' for Active; 'I' for Inactive)
REMARK    1  A    between atoms: C_23  and  C_18 
REMARK    2  A    between atoms: C_29  and  C_18 
REMARK    3  A    between atoms: C_26  and  C_19 
REMARK    4  A    between atoms: C_30  and  C_19 
REMARK    5  A    between atoms: C_22  and  C_20 
REMARK    6  A    between atoms: N_38  and  C_20 
REMARK    7  A    between atoms: O_39  and  C_21 
REMARK    8  A    between atoms: C_25  and  C_24 
REMARK    9  A    between atoms: C_33  and  C_27 
REMARK   10  A    between atoms: C_28  and  N_36 
REMARK   11  A    between atoms: C_31  and  C_29 
REMARK   12  A    between atoms: C_29  and  N_34 
REMARK   13  A    between atoms: O_41  and  C_30 
REMARK   14  A    between atoms: C_31  and  O_42 
REMARK   15  A    between atoms: O_45  and  C_33 
ROOT
HETATM    1  C   UNK N   1      33.067  13.484   6.908  0.00  0.00     0.135 C 
HETATM    2  N   UNK N   1      33.925  14.193   7.557  0.00  0.00    -0.359 N 
ATOM      3  HN  UNK N   1      33.912  15.202   7.411  1.00  0.00     0.162 HD
ENDROOT
BRANCH   1   4
HETATM    4  C   UNK N   1      31.896  14.186   6.303  0.00  0.00     0.162 C 
BRANCH   4   5
HETATM    5  C   UNK N   1      32.124  15.684   6.601  0.00  0.00     0.072 C 
BRANCH   5   6
HETATM    6  C   UNK N   1      30.935  16.589   6.600  0.00  0.00    -0.055 A 
HETATM    7  C   UNK N   1      30.409  17.062   5.395  0.00  0.00     0.008 A 
HETATM    8  C   UNK N   1      29.336  17.958   5.408  0.00  0.00     0.009 A 
HETATM    9  C   UNK N   1      28.779  18.387   6.623  0.00  0.00    -0.031 A 
HETATM   10  C   UNK N   1      29.308  17.891   7.846  0.00  0.00     0.045 A 
HETATM   11  C   UNK N   1      30.390  17.010   7.807  0.00  0.00     0.026 A 
BRANCH   9  12
HETATM   12  C   UNK N   1      27.626  19.348   6.593  0.00  0.00     0.149 C 
BRANCH  12  13
HETATM   13  C   UNK N   1      26.663  19.038   5.489  0.00  0.00     0.143 C 
HETATM   14  O   UNK N   1      26.594  19.776   4.519  0.00  0.00    -0.650 OA
BRANCH  13  15
HETATM   15  O   UNK N   1      25.853  17.965   5.572  0.00  0.00    -0.776 OA
HETATM   16  H   UNK N   1      26.085  17.246   6.127  0.00  0.00     0.167 HD
ENDBRANCH  13  15
ENDBRANCH  12  13
ENDBRANCH   9  12
BRANCH  10  17
HETATM   17  C   UNK N   1      28.776  18.252   9.183  0.00  0.00     0.176 C 
HETATM   18  O   UNK N   1      29.483  18.779  10.025  0.00  0.00    -0.646 OA
BRANCH  17  19
HETATM   19  O   UNK N   1      27.481  18.009   9.474  0.00  0.00    -0.773 OA
HETATM   20  H   UNK N   1      27.021  17.194   9.419  0.00  0.00     0.167 HD
ENDBRANCH  17  19
ENDBRANCH  10  17
ENDBRANCH   5   6
ENDBRANCH   4   5
BRANCH   4  21
HETATM   21  N   UNK N   1      31.794  13.904   4.882  0.00  0.00    -0.362 N 
HETATM   22  C   UNK N   1      30.715  13.478   4.322  0.00  0.00     0.107 C 
HETATM   23  C   UNK N   1      30.707  13.211   2.857  0.00  0.00     0.097 C 
ATOM     24  HN  UNK N   1      32.618  14.051   4.299  1.00  0.00     0.162 HD
BRANCH  22  25
HETATM   25  O   UNK N   1      29.588  13.289   5.038  0.00  0.00    -0.350 OA
HETATM   26  H   UNK N   1      28.890  13.893   5.200  0.00  0.00     0.219 HD
ENDBRANCH  22  25
ENDBRANCH   4  21
ENDBRANCH   1   4
BRANCH   1  27
HETATM   27  O   UNK N   1      33.131  12.135   6.894  0.00  0.00    -0.348 OA
HETATM   28  H   UNK N   1      33.772  11.504   7.155  0.00  0.00     0.219 HD
ENDBRANCH   1  27
BRANCH   2  29
HETATM   29  C   UNK N   1      34.902  13.665   8.476  0.00  0.00     0.175 C 
HETATM   30  C   UNK N   1      36.293  13.654   7.844  0.00  0.00     0.035 C 
HETATM   31  C   UNK N   1      37.225  12.648   8.546  0.00  0.00     0.004 C 
HETATM   32  C   UNK N   1      37.080  12.643  10.067  0.00  0.00     0.020 C 
HETATM   33  C   UNK N   1      37.057  14.076  10.566  0.00  0.00     0.126 C 
HETATM   34  N   UNK N   1      35.702  14.601  10.714  0.00  0.00    -0.346 N 
HETATM   35  C   UNK N   1      34.760  14.518   9.733  0.00  0.00     0.242 C 
HETATM   36  O   UNK N   1      33.686  15.091   9.911  0.00  0.00    -0.271 OA
BRANCH  34  37
HETATM   37  C   UNK N   1      35.314  15.180  11.992  0.00  0.00     0.164 C 
BRANCH  37  38
HETATM   38  C   UNK N   1      35.722  14.205  13.031  0.00  0.00    -0.040 A 
HETATM   39  C   UNK N   1      36.589  14.632  14.047  0.00  0.00     0.009 A 
HETATM   40  C   UNK N   1      36.595  13.973  15.268  0.00  0.00     0.013 A 
HETATM   41  C   UNK N   1      35.749  12.873  15.471  0.00  0.00    -0.026 A 
HETATM   42  C   UNK N   1      34.989  12.375  14.401  0.00  0.00     0.013 A 
HETATM   43  C   UNK N   1      34.963  13.051  13.188  0.00  0.00     0.009 A 
BRANCH  41  44
HETATM   44  C   UNK N   1      35.446  12.421  16.839  0.00  0.00    -0.026 A 
HETATM   45  C   UNK N   1      35.256  13.362  17.863  0.00  0.00     0.012 A 
HETATM   46  C   UNK N   1      35.165  12.949  19.193  0.00  0.00     0.001 A 
HETATM   47  C   UNK N   1      35.293  11.596  19.514  0.00  0.00     0.000 A 
HETATM   48  C   UNK N   1      35.484  10.651  18.503  0.00  0.00     0.001 A 
HETATM   49  C   UNK N   1      35.564  11.061  17.171  0.00  0.00     0.012 A 
ENDBRANCH  41  44
ENDBRANCH  37  38
ENDBRANCH  34  37
ENDBRANCH   2  29
TORSDOF 15
ENDMDL
MODEL 3
REMARK VINA RESULT:      -8.7     12.345     16.698
REMARK  15 active torsions:
REMARK  status: ('A' for Active; 'I' for Inactive)
REMARK    1  A    between atoms: C_23  and  C_18 
REMARK    2  A    between atoms: C_29  and  C_18 
REMARK    3  A    between atoms: C_26  and  C_19 
REMARK    4  A    between atoms: C_30  and  C_19 
REMARK    5  A    between atoms: C_22  and  C_20 
REMARK    6  A    between atoms: N_38  and  C_20 
REMARK    7  A    between atoms: O_39  and  C_21 
REMARK    8  A    between atoms: C_25  and  C_24 
REMARK    9  A    between atoms: C_33  and  C_27 
REMARK   10  A    between atoms: C_28  and  N_36 
REMARK   11  A    between atoms: C_31  and  C_29 
REMARK   12  A    between atoms: C_29  and  N_34 
REMARK   13  A    between atoms: O_41  and  C_30 
REMARK   14  A    between atoms: C_31  and  O_42 
REMARK   15  A    between atoms: O_45  and  C_33 
ROOT
HETATM    1  C   UNK N   1      30.817  24.104  -3.478  0.00  0.00     0.135 C 
HETATM    2  N   UNK N   1      30.969  25.273  -3.998  0.00  0.00    -0.359 N 
ATOM      3  HN  UNK N   1      31.384  25.327  -4.928  1.00  0.00     0.162 HD
ENDROOT
BRANCH   1   4
HETATM    4  C   UNK N   1      30.892  22.921  -4.386  0.00  0.00     0.162 C 
BRANCH   4   5
HETATM    5  C   UNK N   1      30.552  23.467  -5.791  0.00  0.00     0.072 C 
BRANCH   5   6
HETATM    6  C   UNK N   1      29.375  22.885  -6.504  0.00  0.00    -0.055 A 
HETATM    7  C   UNK N   1      28.078  23.268  -6.153  0.00  0.00     0.008 A 
HETATM    8  C   UNK N   1      26.981  22.672  -6.783  0.00  0.00     0.009 A 
HETATM    9  C   UNK N   1      27.172  21.691  -7.769  0.00  0.00    -0.031 A 
HETATM   10  C   UNK N   1      28.494  21.316  -8.134  0.00  0.00     0.045 A 
HETATM   11  C   UNK N   1      29.572  21.915  -7.478  0.00  0.00     0.026 A 
BRANCH   9  12
HETATM   12  C   UNK N   1      25.968  21.077  -8.424  0.00  0.00     0.149 C 
BRANCH  12  13
HETATM   13  C   UNK N   1      24.693  21.489  -7.755  0.00  0.00     0.143 C 
HETATM   14  O   UNK N   1      24.060  22.438  -8.188  0.00  0.00    -0.650 OA
BRANCH  13  15
HETATM   15  O   UNK N   1      24.255  20.835  -6.663  0.00  0.00    -0.776 OA
HETATM   16  H   UNK N   1      23.396  20.459  -6.655  0.00  0.00     0.167 HD
ENDBRANCH  13  15
ENDBRANCH  12  13
ENDBRANCH   9  12
BRANCH  10  17
HETATM   17  C   UNK N   1      28.810  20.316  -9.183  0.00  0.00     0.176 C 
HETATM   18  O   UNK N   1      28.638  20.562 -10.365  0.00  0.00    -0.646 OA
BRANCH  17  19
HETATM   19  O   UNK N   1      29.312  19.115  -8.830  0.00  0.00    -0.773 OA
HETATM   20  H   UNK N   1      29.918  18.924  -8.141  0.00  0.00     0.167 HD
ENDBRANCH  17  19
ENDBRANCH  10  17
ENDBRANCH   5   6
ENDBRANCH   4   5
BRANCH   4  21
HETATM   21  N   UNK N   1      32.202  22.298  -4.326  0.00  0.00    -0.362 N 
HETATM   22  C   UNK N   1      32.592  21.566  -3.340  0.00  0.00     0.107 C 
HETATM   23  C   UNK N   1      33.957  20.972  -3.365  0.00  0.00     0.097 C 
ATOM     24  HN  UNK N   1      32.846  22.447  -5.103  1.00  0.00     0.162 HD
BRANCH  22  25
HETATM   25  O   UNK N   1      31.775  21.312  -2.297  0.00  0.00    -0.350 OA
HETATM   26  H   UNK N   1      30.839  21.344  -2.266  0.00  0.00     0.219 HD
ENDBRANCH  22  25
ENDBRANCH   4  21
ENDBRANCH   1   4
BRANCH   1  27
HETATM   27  O   UNK N   1      30.453  23.947  -2.187  0.00  0.00    -0.348 OA
HETATM   28  H   UNK N   1      30.042  23.262  -1.699  0.00  0.00     0.219 HD
ENDBRANCH   1  27
BRANCH   2  29
HETATM   29  C   UNK N   1      30.595  26.511  -3.363  0.00  0.00     0.175 C 
HETATM   30  C   UNK N   1      31.511  27.651  -3.808  0.00  0.00     0.035 C 
HETATM   31  C   UNK N   1      31.499  28.813  -2.797  0.00  0.00     0.004 C 
HETATM   32  C   UNK N   1      30.110  29.126  -2.246  0.00  0.00     0.020 C 
HETATM   33  C   UNK N   1      29.118  29.158  -3.395  0.00  0.00     0.126 C 
HETATM   34  N   UNK N   1      28.447  27.875  -3.597  0.00  0.00    -0.346 N 
HETATM   35  C   UNK N   1      29.116  26.693  -3.695  0.00  0.00     0.242 C 
HETATM   36  O   UNK N   1      28.472  25.684  -3.979  0.00  0.00    -0.271 OA
BRANCH  34  37
HETATM   37  C   UNK N   1      26.992  27.846  -3.626  0.00  0.00     0.164 C 
BRANCH  37  38
HETATM   38  C   UNK N   1      26.609  27.681  -5.049  0.00  0.00    -0.040 A 
HETATM   39  C   UNK N   1      27.454  28.208  -6.035  0.00  0.00     0.009 A 
HETATM   40  C   UNK N   1      27.438  27.670  -7.314  0.00  0.00     0.013 A 
HETATM   41  C   UNK N   1      26.563  26.616  -7.616  0.00  0.00    -0.026 A 
HETATM   42  C   UNK N   1      25.629  26.192  -6.657  0.00  0.00     0.013 A 
HETATM   43  C   UNK N   1      25.664  26.713  -5.370  0.00  0.00     0.009 A 
BRANCH  41  44
HETATM   44  C   UNK N   1      26.801  25.780  -8.805  0.00  0.00    -0.026 A 
HETATM   45  C   UNK N   1      25.717  25.195  -9.479  0.00  0.00     0.012 A 
HETATM   46  C   UNK N   1      25.937  24.248 -10.479  0.00  0.00     0.001 A 
HETATM   47  C   UNK N   1      27.240  23.856 -10.795  0.00  0.00     0.000 A 
HETATM   48  C   UNK N   1      28.326  24.430 -10.130  0.00  0.00     0.001 A 
HETATM   49  C   UNK N   1      28.108  25.386  -9.136  0.00  0.00     0.012 A 
ENDBRANCH  41  44
ENDBRANCH  37  38
ENDBRANCH  34  37
ENDBRANCH   2  29
TORSDOF 15
ENDMDL
MODEL 4
REMARK VINA RESULT:      -8.7      3.804      7.026
REMARK  15 active torsions:
REMARK  status: ('A' for Active; 'I' for Inactive)
REMARK    1  A    between atoms: C_23  and  C_18 
REMARK    2  A    between atoms: C_29  and  C_18 
REMARK    3  A    between atoms: C_26  and  C_19 
REMARK    4  A    between atoms: C_30  and  C_19 
REMARK    5  A    between atoms: C_22  and  C_20 
REMARK    6  A    between atoms: N_38  and  C_20 
REMARK    7  A    between atoms: O_39  and  C_21 
REMARK    8  A    between atoms: C_25  and  C_24 
REMARK    9  A    between atoms: C_33  and  C_27 
REMARK   10  A    between atoms: C_28  and  N_36 
REMARK   11  A    between atoms: C_31  and  C_29 
REMARK   12  A    between atoms: C_29  and  N_34 
REMARK   13  A    between atoms: O_41  and  C_30 
REMARK   14  A    between atoms: C_31  and  O_42 
REMARK   15  A    between atoms: O_45  and  C_33 
ROOT
HETATM    1  C   UNK N   1      33.164  14.048   7.289  0.00  0.00     0.135 C 
HETATM    2  N   UNK N   1      34.410  13.721   7.257  0.00  0.00    -0.359 N 
ATOM      3  HN  UNK N   1      35.003  14.182   6.568  1.00  0.00     0.162 HD
ENDROOT
BRANCH   1   4
HETATM    4  C   UNK N   1      32.757  15.313   6.609  0.00  0.00     0.162 C 
BRANCH   4   5
HETATM    5  C   UNK N   1      31.272  15.111   6.235  0.00  0.00     0.072 C 
BRANCH   5   6
HETATM    6  C   UNK N   1      30.359  16.292   6.321  0.00  0.00    -0.055 A 
HETATM    7  C   UNK N   1      29.977  16.973   5.163  0.00  0.00     0.008 A 
HETATM    8  C   UNK N   1      29.174  18.114   5.259  0.00  0.00     0.009 A 
HETATM    9  C   UNK N   1      28.746  18.581   6.513  0.00  0.00    -0.031 A 
HETATM   10  C   UNK N   1      29.125  17.875   7.687  0.00  0.00     0.045 A 
HETATM   11  C   UNK N   1      29.941  16.748   7.565  0.00  0.00     0.026 A 
BRANCH   9  12
HETATM   12  C   UNK N   1      27.883  19.808   6.573  0.00  0.00     0.149 C 
BRANCH  12  13
HETATM   13  C   UNK N   1      26.780  19.771   5.560  0.00  0.00     0.143 C 
HETATM   14  O   UNK N   1      26.789  20.555   4.626  0.00  0.00    -0.650 OA
BRANCH  13  15
HETATM   15  O   UNK N   1      25.765  18.896   5.690  0.00  0.00    -0.776 OA
HETATM   16  H   UNK N   1      25.023  19.115   6.220  0.00  0.00     0.167 HD
ENDBRANCH  13  15
ENDBRANCH  12  13
ENDBRANCH   9  12
BRANCH  10  17
HETATM   17  C   UNK N   1      28.704  18.261   9.056  0.00  0.00     0.176 C 
HETATM   18  O   UNK N   1      29.465  18.836   9.815  0.00  0.00    -0.646 OA
BRANCH  17  19
HETATM   19  O   UNK N   1      27.449  17.986   9.469  0.00  0.00    -0.773 OA
HETATM   20  H   UNK N   1      27.087  17.153   9.699  0.00  0.00     0.167 HD
ENDBRANCH  17  19
ENDBRANCH  10  17
ENDBRANCH   5   6
ENDBRANCH   4   5
BRANCH   4  21
HETATM   21  N   UNK N   1      32.969  16.461   7.472  0.00  0.00    -0.362 N 
HETATM   22  C   UNK N   1      33.756  17.436   7.171  0.00  0.00     0.107 C 
HETATM   23  C   UNK N   1      33.913  18.570   8.122  0.00  0.00     0.097 C 
ATOM     24  HN  UNK N   1      32.469  16.499   8.360  1.00  0.00     0.162 HD
BRANCH  22  25
HETATM   25  O   UNK N   1      34.423  17.454   5.998  0.00  0.00    -0.350 OA
HETATM   26  H   UNK N   1      35.318  17.233   5.832  0.00  0.00     0.219 HD
ENDBRANCH  22  25
ENDBRANCH   4  21
ENDBRANCH   1   4
BRANCH   1  27
HETATM   27  O   UNK N   1      32.272  13.360   8.033  0.00  0.00    -0.348 OA
HETATM   28  H   UNK N   1      31.372  13.483   8.261  0.00  0.00     0.219 HD
ENDBRANCH   1  27
BRANCH   2  29
HETATM   29  C   UNK N   1      35.028  12.750   8.125  0.00  0.00     0.175 C 
HETATM   30  C   UNK N   1      36.032  11.892   7.355  0.00  0.00     0.035 C 
HETATM   31  C   UNK N   1      36.301  10.556   8.074  0.00  0.00     0.004 C 
HETATM   32  C   UNK N   1      36.424  10.695   9.590  0.00  0.00     0.020 C 
HETATM   33  C   UNK N   1      37.320  11.879   9.907  0.00  0.00     0.126 C 
HETATM   34  N   UNK N   1      36.568  13.111  10.132  0.00  0.00    -0.346 N 
HETATM   35  C   UNK N   1      35.612  13.567   9.275  0.00  0.00     0.242 C 
HETATM   36  O   UNK N   1      35.117  14.672   9.494  0.00  0.00    -0.271 OA
BRANCH  34  37
HETATM   37  C   UNK N   1      36.799  13.854  11.362  0.00  0.00     0.164 C 
BRANCH  37  38
HETATM   38  C   UNK N   1      36.428  12.945  12.473  0.00  0.00    -0.040 A 
HETATM   39  C   UNK N   1      37.442  12.469  13.315  0.00  0.00     0.009 A 
HETATM   40  C   UNK N   1      37.132  12.067  14.606  0.00  0.00     0.013 A 
HETATM   41  C   UNK N   1      35.804  12.123  15.054  0.00  0.00    -0.026 A 
HETATM   42  C   UNK N   1      34.783  12.472  14.156  0.00  0.00     0.013 A 
HETATM   43  C   UNK N   1      35.097  12.899  12.872  0.00  0.00     0.009 A 
BRANCH  41  44
HETATM   44  C   UNK N   1      35.512  12.092  16.497  0.00  0.00    -0.026 A 
HETATM   45  C   UNK N   1      35.237  13.285  17.183  0.00  0.00     0.012 A 
HETATM   46  C   UNK N   1      35.156  13.295  18.575  0.00  0.00     0.001 A 
HETATM   47  C   UNK N   1      35.376  12.120  19.297  0.00  0.00     0.000 A 
HETATM   48  C   UNK N   1      35.652  10.927  18.625  0.00  0.00     0.001 A 
HETATM   49  C   UNK N   1      35.724  10.912  17.230  0.00  0.00     0.012 A 
ENDBRANCH  41  44
ENDBRANCH  37  38
ENDBRANCH  34  37
ENDBRANCH   2  29
TORSDOF 15
ENDMDL
MODEL 5
REMARK VINA RESULT:      -8.6      7.844     15.784
REMARK  15 active torsions:
REMARK  status: ('A' for Active; 'I' for Inactive)
REMARK    1  A    between atoms: C_23  and  C_18 
REMARK    2  A    between atoms: C_29  and  C_18 
REMARK    3  A    between atoms: C_26  and  C_19 
REMARK    4  A    between atoms: C_30  and  C_19 
REMARK    5  A    between atoms: C_22  and  C_20 
REMARK    6  A    between atoms: N_38  and  C_20 
REMARK    7  A    between atoms: O_39  and  C_21 
REMARK    8  A    between atoms: C_25  and  C_24 
REMARK    9  A    between atoms: C_33  and  C_27 
REMARK   10  A    between atoms: C_28  and  N_36 
REMARK   11  A    between atoms: C_31  and  C_29 
REMARK   12  A    between atoms: C_29  and  N_34 
REMARK   13  A    between atoms: O_41  and  C_30 
REMARK   14  A    between atoms: C_31  and  O_42 
REMARK   15  A    between atoms: O_45  and  C_33 
ROOT
HETATM    1  C   UNK N   1      36.867  11.900  14.311  0.00  0.00     0.135 C 
HETATM    2  N   UNK N   1      36.303  12.360  13.248  0.00  0.00    -0.359 N 
ATOM      3  HN  UNK N   1      35.289  12.287  13.181  1.00  0.00     0.162 HD
ENDROOT
BRANCH   1   4
HETATM    4  C   UNK N   1      36.006  11.651  15.505  0.00  0.00     0.162 C 
BRANCH   4   5
HETATM    5  C   UNK N   1      36.457  10.278  16.050  0.00  0.00     0.072 C 
BRANCH   5   6
HETATM    6  C   UNK N   1      35.894   9.822  17.357  0.00  0.00    -0.055 A 
HETATM    7  C   UNK N   1      34.589   9.328  17.429  0.00  0.00     0.008 A 
HETATM    8  C   UNK N   1      34.049   8.963  18.666  0.00  0.00     0.009 A 
HETATM    9  C   UNK N   1      34.809   9.086  19.840  0.00  0.00    -0.031 A 
HETATM   10  C   UNK N   1      36.142   9.575  19.760  0.00  0.00     0.045 A 
HETATM   11  C   UNK N   1      36.652   9.948  18.515  0.00  0.00     0.026 A 
BRANCH   9  12
HETATM   12  C   UNK N   1      34.194   8.681  21.148  0.00  0.00     0.149 C 
BRANCH  12  13
HETATM   13  C   UNK N   1      33.333   9.762  21.724  0.00  0.00     0.143 C 
HETATM   14  O   UNK N   1      32.118   9.668  21.662  0.00  0.00    -0.650 OA
BRANCH  13  15
HETATM   15  O   UNK N   1      33.891  10.851  22.286  0.00  0.00    -0.776 OA
HETATM   16  H   UNK N   1      33.414  11.345  22.925  0.00  0.00     0.167 HD
ENDBRANCH  13  15
ENDBRANCH  12  13
ENDBRANCH   9  12
BRANCH  10  17
HETATM   17  C   UNK N   1      37.043   9.715  20.930  0.00  0.00     0.176 C 
HETATM   18  O   UNK N   1      37.907   8.888  21.167  0.00  0.00    -0.646 OA
BRANCH  17  19
HETATM   19  O   UNK N   1      36.919  10.785  21.743  0.00  0.00    -0.773 OA
HETATM   20  H   UNK N   1      36.148  11.289  21.919  0.00  0.00     0.167 HD
ENDBRANCH  17  19
ENDBRANCH  10  17
ENDBRANCH   5   6
ENDBRANCH   4   5
BRANCH   4  21
HETATM   21  N   UNK N   1      36.146  12.718  16.481  0.00  0.00    -0.362 N 
HETATM   22  C   UNK N   1      35.175  13.487  16.832  0.00  0.00     0.107 C 
HETATM   23  C   UNK N   1      35.415  14.558  17.838  0.00  0.00     0.097 C 
ATOM     24  HN  UNK N   1      37.060  12.864  16.911  1.00  0.00     0.162 HD
BRANCH  22  25
HETATM   25  O   UNK N   1      33.939  13.324  16.316  0.00  0.00    -0.350 OA
HETATM   26  H   UNK N   1      33.151  13.785  16.529  0.00  0.00     0.219 HD
ENDBRANCH  22  25
ENDBRANCH   4  21
ENDBRANCH   1   4
BRANCH   1  27
HETATM   27  O   UNK N   1      38.209  11.783  14.406  0.00  0.00    -0.348 OA
HETATM   28  H   UNK N   1      38.916  12.388  14.508  0.00  0.00     0.219 HD
ENDBRANCH   1  27
BRANCH   2  29
HETATM   29  C   UNK N   1      37.002  12.972  12.145  0.00  0.00     0.175 C 
HETATM   30  C   UNK N   1      37.111  12.005  10.967  0.00  0.00     0.035 C 
HETATM   31  C   UNK N   1      38.262  12.396  10.020  0.00  0.00     0.004 C 
HETATM   32  C   UNK N   1      38.370  13.901   9.783  0.00  0.00     0.020 C 
HETATM   33  C   UNK N   1      36.986  14.458   9.504  0.00  0.00     0.126 C 
HETATM   34  N   UNK N   1      36.333  14.973  10.705  0.00  0.00    -0.346 N 
HETATM   35  C   UNK N   1      36.239  14.263  11.864  0.00  0.00     0.242 C 
HETATM   36  O   UNK N   1      35.571  14.737  12.783  0.00  0.00    -0.271 OA
BRANCH  34  37
HETATM   37  C   UNK N   1      35.817  16.334  10.690  0.00  0.00     0.164 C 
BRANCH  37  38
HETATM   38  C   UNK N   1      34.774  16.371   9.638  0.00  0.00    -0.040 A 
HETATM   39  C   UNK N   1      33.700  15.474   9.729  0.00  0.00     0.009 A 
HETATM   40  C   UNK N   1      32.493  15.783   9.117  0.00  0.00     0.013 A 
HETATM   41  C   UNK N   1      32.361  16.978   8.397  0.00  0.00    -0.026 A 
HETATM   42  C   UNK N   1      33.484  17.798   8.201  0.00  0.00     0.013 A 
HETATM   43  C   UNK N   1      34.684  17.503   8.835  0.00  0.00     0.009 A 
BRANCH  41  44
HETATM   44  C   UNK N   1      31.022  17.510   8.091  0.00  0.00    -0.026 A 
HETATM   45  C   UNK N   1      30.303  18.208   9.074  0.00  0.00     0.012 A 
HETATM   46  C   UNK N   1      28.964  18.541   8.865  0.00  0.00     0.001 A 
HETATM   47  C   UNK N   1      28.325  18.156   7.685  0.00  0.00     0.000 A 
HETATM   48  C   UNK N   1      29.030  17.459   6.701  0.00  0.00     0.001 A 
HETATM   49  C   UNK N   1      30.373  17.134   6.904  0.00  0.00     0.012 A 
ENDBRANCH  41  44
ENDBRANCH  37  38
ENDBRANCH  34  37
ENDBRANCH   2  29
TORSDOF 15
ENDMDL
MODEL 6
REMARK VINA RESULT:      -8.5      3.999      7.422
REMARK  15 active torsions:
REMARK  status: ('A' for Active; 'I' for Inactive)
REMARK    1  A    between atoms: C_23  and  C_18 
REMARK    2  A    between atoms: C_29  and  C_18 
REMARK    3  A    between atoms: C_26  and  C_19 
REMARK    4  A    between atoms: C_30  and  C_19 
REMARK    5  A    between atoms: C_22  and  C_20 
REMARK    6  A    between atoms: N_38  and  C_20 
REMARK    7  A    between atoms: O_39  and  C_21 
REMARK    8  A    between atoms: C_25  and  C_24 
REMARK    9  A    between atoms: C_33  and  C_27 
REMARK   10  A    between atoms: C_28  and  N_36 
REMARK   11  A    between atoms: C_31  and  C_29 
REMARK   12  A    between atoms: C_29  and  N_34 
REMARK   13  A    between atoms: O_41  and  C_30 
REMARK   14  A    between atoms: C_31  and  O_42 
REMARK   15  A    between atoms: O_45  and  C_33 
ROOT
HETATM    1  C   UNK N   1      32.920  14.961   8.288  0.00  0.00     0.135 C 
HETATM    2  N   UNK N   1      34.054  14.818   8.883  0.00  0.00    -0.359 N 
ATOM      3  HN  UNK N   1      34.682  15.621   8.902  1.00  0.00     0.162 HD
ENDROOT
BRANCH   1   4
HETATM    4  C   UNK N   1      32.446  16.349   8.013  0.00  0.00     0.162 C 
BRANCH   4   5
HETATM    5  C   UNK N   1      31.025  16.418   8.616  0.00  0.00     0.072 C 
BRANCH   5   6
HETATM    6  C   UNK N   1      30.010  17.272   7.927  0.00  0.00    -0.055 A 
HETATM    7  C   UNK N   1      29.450  18.371   8.583  0.00  0.00     0.008 A 
HETATM    8  C   UNK N   1      28.456  19.125   7.954  0.00  0.00     0.009 A 
HETATM    9  C   UNK N   1      28.015  18.790   6.664  0.00  0.00    -0.031 A 
HETATM   10  C   UNK N   1      28.599  17.681   5.993  0.00  0.00     0.045 A 
HETATM   11  C   UNK N   1      29.579  16.933   6.650  0.00  0.00     0.026 A 
BRANCH   9  12
HETATM   12  C   UNK N   1      26.947  19.627   6.021  0.00  0.00     0.149 C 
BRANCH  12  13
HETATM   13  C   UNK N   1      26.736  20.922   6.745  0.00  0.00     0.143 C 
HETATM   14  O   UNK N   1      27.262  21.941   6.331  0.00  0.00    -0.650 OA
BRANCH  13  15
HETATM   15  O   UNK N   1      25.990  20.962   7.865  0.00  0.00    -0.776 OA
HETATM   16  H   UNK N   1      26.017  21.718   8.419  0.00  0.00     0.167 HD
ENDBRANCH  13  15
ENDBRANCH  12  13
ENDBRANCH   9  12
BRANCH  10  17
HETATM   17  C   UNK N   1      28.233  17.258   4.619  0.00  0.00     0.176 C 
HETATM   18  O   UNK N   1      27.397  16.392   4.424  0.00  0.00    -0.646 OA
BRANCH  17  19
HETATM   19  O   UNK N   1      28.822  17.851   3.560  0.00  0.00    -0.773 OA
HETATM   20  H   UNK N   1      28.460  18.497   2.986  0.00  0.00     0.167 HD
ENDBRANCH  17  19
ENDBRANCH  10  17
ENDBRANCH   5   6
ENDBRANCH   4   5
BRANCH   4  21
HETATM   21  N   UNK N   1      33.348  17.333   8.585  0.00  0.00    -0.362 N 
HETATM   22  C   UNK N   1      34.174  18.028   7.882  0.00  0.00     0.107 C 
HETATM   23  C   UNK N   1      35.065  19.011   8.558  0.00  0.00     0.097 C 
ATOM     24  HN  UNK N   1      33.325  17.483   9.594  1.00  0.00     0.162 HD
BRANCH  22  25
HETATM   25  O   UNK N   1      34.230  17.892   6.541  0.00  0.00    -0.350 OA
HETATM   26  H   UNK N   1      34.836  18.276   5.939  0.00  0.00     0.219 HD
ENDBRANCH  22  25
ENDBRANCH   4  21
ENDBRANCH   1   4
BRANCH   1  27
HETATM   27  O   UNK N   1      32.109  13.908   8.051  0.00  0.00    -0.348 OA
HETATM   28  H   UNK N   1      32.242  13.027   7.760  0.00  0.00     0.219 HD
ENDBRANCH   1  27
BRANCH   2  29
HETATM   29  C   UNK N   1      34.500  13.607   9.525  0.00  0.00     0.175 C 
HETATM   30  C   UNK N   1      35.360  12.774   8.576  0.00  0.00     0.035 C 
HETATM   31  C   UNK N   1      35.405  11.295   9.006  0.00  0.00     0.004 C 
HETATM   32  C   UNK N   1      35.534  11.104  10.516  0.00  0.00     0.020 C 
HETATM   33  C   UNK N   1      36.605  12.042  11.043  0.00  0.00     0.126 C 
HETATM   34  N   UNK N   1      36.058  13.308  11.528  0.00  0.00    -0.346 N 
HETATM   35  C   UNK N   1      35.196  14.073  10.801  0.00  0.00     0.242 C 
HETATM   36  O   UNK N   1      34.882  15.175  11.248  0.00  0.00    -0.271 OA
BRANCH  34  37
HETATM   37  C   UNK N   1      36.393  13.741  12.876  0.00  0.00     0.164 C 
BRANCH  37  38
HETATM   38  C   UNK N   1      36.063  12.607  13.771  0.00  0.00    -0.040 A 
HETATM   39  C   UNK N   1      37.078  12.076  14.580  0.00  0.00     0.009 A 
HETATM   40  C   UNK N   1      36.746  11.409  15.750  0.00  0.00     0.013 A 
HETATM   41  C   UNK N   1      35.399  11.254  16.107  0.00  0.00    -0.026 A 
HETATM   42  C   UNK N   1      34.393  11.672  15.220  0.00  0.00     0.013 A 
HETATM   43  C   UNK N   1      34.726  12.362  14.062  0.00  0.00     0.009 A 
BRANCH  41  44
HETATM   44  C   UNK N   1      35.038  10.923  17.496  0.00  0.00    -0.026 A 
HETATM   45  C   UNK N   1      35.364  11.807  18.536  0.00  0.00     0.012 A 
HETATM   46  C   UNK N   1      35.208  11.419  19.867  0.00  0.00     0.001 A 
HETATM   47  C   UNK N   1      34.754  10.134  20.171  0.00  0.00     0.000 A 
HETATM   48  C   UNK N   1      34.429   9.244  19.144  0.00  0.00     0.001 A 
HETATM   49  C   UNK N   1      34.574   9.635  17.811  0.00  0.00     0.012 A 
ENDBRANCH  41  44
ENDBRANCH  37  38
ENDBRANCH  34  37
ENDBRANCH   2  29
TORSDOF 15
ENDMDL
MODEL 7
REMARK VINA RESULT:      -8.5      5.832     13.743
REMARK  15 active torsions:
REMARK  status: ('A' for Active; 'I' for Inactive)
REMARK    1  A    between atoms: C_23  and  C_18 
REMARK    2  A    between atoms: C_29  and  C_18 
REMARK    3  A    between atoms: C_26  and  C_19 
REMARK    4  A    between atoms: C_30  and  C_19 
REMARK    5  A    between atoms: C_22  and  C_20 
REMARK    6  A    between atoms: N_38  and  C_20 
REMARK    7  A    between atoms: O_39  and  C_21 
REMARK    8  A    between atoms: C_25  and  C_24 
REMARK    9  A    between atoms: C_33  and  C_27 
REMARK   10  A    between atoms: C_28  and  N_36 
REMARK   11  A    between atoms: C_31  and  C_29 
REMARK   12  A    between atoms: C_29  and  N_34 
REMARK   13  A    between atoms: O_41  and  C_30 
REMARK   14  A    between atoms: C_31  and  O_42 
REMARK   15  A    between atoms: O_45  and  C_33 
ROOT
HETATM    1  C   UNK N   1      34.714  14.738  10.642  0.00  0.00     0.135 C 
HETATM    2  N   UNK N   1      35.057  15.277   9.524  0.00  0.00    -0.359 N 
ATOM      3  HN  UNK N   1      36.042  15.240   9.264  1.00  0.00     0.162 HD
ENDROOT
BRANCH   1   4
HETATM    4  C   UNK N   1      35.670  13.785  11.280  0.00  0.00     0.162 C 
BRANCH   4   5
HETATM    5  C   UNK N   1      34.784  12.730  11.980  0.00  0.00     0.072 C 
BRANCH   5   6
HETATM    6  C   UNK N   1      34.939  12.551  13.456  0.00  0.00    -0.055 A 
HETATM    7  C   UNK N   1      34.314  11.483  14.106  0.00  0.00     0.008 A 
HETATM    8  C   UNK N   1      34.412  11.360  15.495  0.00  0.00     0.009 A 
HETATM    9  C   UNK N   1      35.136  12.301  16.244  0.00  0.00    -0.031 A 
HETATM   10  C   UNK N   1      35.783  13.376  15.577  0.00  0.00     0.045 A 
HETATM   11  C   UNK N   1      35.656  13.487  14.191  0.00  0.00     0.026 A 
BRANCH   9  12
HETATM   12  C   UNK N   1      35.220  12.131  17.734  0.00  0.00     0.149 C 
BRANCH  12  13
HETATM   13  C   UNK N   1      35.463  10.706  18.126  0.00  0.00     0.143 C 
HETATM   14  O   UNK N   1      34.637  10.113  18.800  0.00  0.00    -0.650 OA
BRANCH  13  15
HETATM   15  O   UNK N   1      36.600  10.084  17.762  0.00  0.00    -0.776 OA
HETATM   16  H   UNK N   1      37.050  10.349  16.983  0.00  0.00     0.167 HD
ENDBRANCH  13  15
ENDBRANCH  12  13
ENDBRANCH   9  12
BRANCH  10  17
HETATM   17  C   UNK N   1      36.598  14.407  16.266  0.00  0.00     0.176 C 
HETATM   18  O   UNK N   1      36.240  14.895  17.324  0.00  0.00    -0.646 OA
BRANCH  17  19
HETATM   19  O   UNK N   1      37.769  14.803  15.724  0.00  0.00    -0.773 OA
HETATM   20  H   UNK N   1      38.135  14.554  14.898  0.00  0.00     0.167 HD
ENDBRANCH  17  19
ENDBRANCH  10  17
ENDBRANCH   5   6
ENDBRANCH   4   5
BRANCH   4  21
HETATM   21  N   UNK N   1      36.565  13.203  10.295  0.00  0.00    -0.362 N 
HETATM   22  C   UNK N   1      37.791  12.900  10.546  0.00  0.00     0.107 C 
HETATM   23  C   UNK N   1      38.635  12.312   9.470  0.00  0.00     0.097 C 
ATOM     24  HN  UNK N   1      36.204  13.026   9.358  1.00  0.00     0.162 HD
BRANCH  22  25
HETATM   25  O   UNK N   1      38.316  13.088  11.775  0.00  0.00    -0.350 OA
HETATM   26  H   UNK N   1      37.870  13.214  12.588  0.00  0.00     0.219 HD
ENDBRANCH  22  25
ENDBRANCH   4  21
ENDBRANCH   1   4
BRANCH   1  27
HETATM   27  O   UNK N   1      33.476  14.901  11.156  0.00  0.00    -0.348 OA
HETATM   28  H   UNK N   1      33.130  15.319  11.919  0.00  0.00     0.219 HD
ENDBRANCH   1  27
BRANCH   2  29
HETATM   29  C   UNK N   1      34.151  15.930   8.613  0.00  0.00     0.175 C 
HETATM   30  C   UNK N   1      34.163  17.444   8.826  0.00  0.00     0.035 C 
HETATM   31  C   UNK N   1      32.879  18.100   8.283  0.00  0.00     0.004 C 
HETATM   32  C   UNK N   1      32.420  17.523   6.945  0.00  0.00     0.020 C 
HETATM   33  C   UNK N   1      33.618  17.405   6.020  0.00  0.00     0.126 C 
HETATM   34  N   UNK N   1      34.237  16.082   6.064  0.00  0.00    -0.346 N 
HETATM   35  C   UNK N   1      34.582  15.461   7.226  0.00  0.00     0.242 C 
HETATM   36  O   UNK N   1      35.201  14.400   7.155  0.00  0.00    -0.271 OA
BRANCH  34  37
HETATM   37  C   UNK N   1      34.433  15.362   4.815  0.00  0.00     0.164 C 
BRANCH  37  38
HETATM   38  C   UNK N   1      33.126  15.376   4.117  0.00  0.00    -0.040 A 
HETATM   39  C   UNK N   1      32.078  14.607   4.642  0.00  0.00     0.009 A 
HETATM   40  C   UNK N   1      30.764  14.958   4.370  0.00  0.00     0.013 A 
HETATM   41  C   UNK N   1      30.492  16.067   3.557  0.00  0.00    -0.026 A 
HETATM   42  C   UNK N   1      31.550  16.743   2.929  0.00  0.00     0.013 A 
HETATM   43  C   UNK N   1      32.865  16.408   3.222  0.00  0.00     0.009 A 
BRANCH  41  44
HETATM   44  C   UNK N   1      29.157  16.687   3.580  0.00  0.00    -0.026 A 
HETATM   45  C   UNK N   1      28.927  17.830   4.363  0.00  0.00     0.012 A 
HETATM   46  C   UNK N   1      27.630  18.308   4.550  0.00  0.00     0.001 A 
HETATM   47  C   UNK N   1      26.548  17.633   3.981  0.00  0.00     0.000 A 
HETATM   48  C   UNK N   1      26.764  16.493   3.202  0.00  0.00     0.001 A 
HETATM   49  C   UNK N   1      28.063  16.019   3.005  0.00  0.00     0.012 A 
ENDBRANCH  41  44
ENDBRANCH  37  38
ENDBRANCH  34  37
ENDBRANCH   2  29
TORSDOF 15
ENDMDL
MODEL 8
REMARK VINA RESULT:      -8.3      2.669      4.913
REMARK  15 active torsions:
REMARK  status: ('A' for Active; 'I' for Inactive)
REMARK    1  A    between atoms: C_23  and  C_18 
REMARK    2  A    between atoms: C_29  and  C_18 
REMARK    3  A    between atoms: C_26  and  C_19 
REMARK    4  A    between atoms: C_30  and  C_19 
REMARK    5  A    between atoms: C_22  and  C_20 
REMARK    6  A    between atoms: N_38  and  C_20 
REMARK    7  A    between atoms: O_39  and  C_21 
REMARK    8  A    between atoms: C_25  and  C_24 
REMARK    9  A    between atoms: C_33  and  C_27 
REMARK   10  A    between atoms: C_28  and  N_36 
REMARK   11  A    between atoms: C_31  and  C_29 
REMARK   12  A    between atoms: C_29  and  N_34 
REMARK   13  A    between atoms: O_41  and  C_30 
REMARK   14  A    between atoms: C_31  and  O_42 
REMARK   15  A    between atoms: O_45  and  C_33 
ROOT
HETATM    1  C   UNK N   1      31.652  15.928   6.444  0.00  0.00     0.135 C 
HETATM    2  N   UNK N   1      32.870  16.015   6.854  0.00  0.00    -0.359 N 
ATOM      3  HN  UNK N   1      33.291  16.944   6.891  1.00  0.00     0.162 HD
ENDROOT
BRANCH   1   4
HETATM    4  C   UNK N   1      30.831  17.175   6.422  0.00  0.00     0.162 C 
BRANCH   4   5
HETATM    5  C   UNK N   1      30.235  17.242   4.998  0.00  0.00     0.072 C 
BRANCH   5   6
HETATM    6  C   UNK N   1      28.859  17.805   4.839  0.00  0.00    -0.055 A 
HETATM    7  C   UNK N   1      27.967  17.238   3.925  0.00  0.00     0.008 A 
HETATM    8  C   UNK N   1      26.706  17.810   3.737  0.00  0.00     0.009 A 
HETATM    9  C   UNK N   1      26.325  18.951   4.462  0.00  0.00    -0.031 A 
HETATM   10  C   UNK N   1      27.230  19.514   5.402  0.00  0.00     0.045 A 
HETATM   11  C   UNK N   1      28.491  18.934   5.559  0.00  0.00     0.026 A 
BRANCH   9  12
HETATM   12  C   UNK N   1      24.960  19.533   4.233  0.00  0.00     0.149 C 
BRANCH  12  13
HETATM   13  C   UNK N   1      24.936  20.468   3.063  0.00  0.00     0.143 C 
HETATM   14  O   UNK N   1      25.984  20.832   2.555  0.00  0.00    -0.650 OA
BRANCH  13  15
HETATM   15  O   UNK N   1      23.765  20.933   2.587  0.00  0.00    -0.776 OA
HETATM   16  H   UNK N   1      23.208  20.370   2.085  0.00  0.00     0.167 HD
ENDBRANCH  13  15
ENDBRANCH  12  13
ENDBRANCH   9  12
BRANCH  10  17
HETATM   17  C   UNK N   1      26.920  20.697   6.243  0.00  0.00     0.176 C 
HETATM   18  O   UNK N   1      27.209  21.825   5.881  0.00  0.00    -0.646 OA
BRANCH  17  19
HETATM   19  O   UNK N   1      26.292  20.528   7.424  0.00  0.00    -0.773 OA
HETATM   20  H   UNK N   1      25.475  20.895   7.701  0.00  0.00     0.167 HD
ENDBRANCH  17  19
ENDBRANCH  10  17
ENDBRANCH   5   6
ENDBRANCH   4   5
BRANCH   4  21
HETATM   21  N   UNK N   1      29.813  17.150   7.457  0.00  0.00    -0.362 N 
HETATM   22  C   UNK N   1      30.053  17.432   8.691  0.00  0.00     0.107 C 
HETATM   23  C   UNK N   1      28.945  17.374   9.684  0.00  0.00     0.097 C 
ATOM     24  HN  UNK N   1      28.860  16.896   7.195  1.00  0.00     0.162 HD
BRANCH  22  25
HETATM   25  O   UNK N   1      31.288  17.799   9.093  0.00  0.00    -0.350 OA
HETATM   26  H   UNK N   1      31.980  17.260   9.421  0.00  0.00     0.219 HD
ENDBRANCH  22  25
ENDBRANCH   4  21
ENDBRANCH   1   4
BRANCH   1  27
HETATM   27  O   UNK N   1      31.077  14.734   6.184  0.00  0.00    -0.348 OA
HETATM   28  H   UNK N   1      30.589  14.115   6.690  0.00  0.00     0.219 HD
ENDBRANCH   1  27
BRANCH   2  29
HETATM   29  C   UNK N   1      33.682  14.898   7.263  0.00  0.00     0.175 C 
HETATM   30  C   UNK N   1      34.468  14.334   6.079  0.00  0.00     0.035 C 
HETATM   31  C   UNK N   1      34.906  12.879   6.334  0.00  0.00     0.004 C 
HETATM   32  C   UNK N   1      35.396  12.632   7.760  0.00  0.00     0.020 C 
HETATM   33  C   UNK N   1      36.341  13.751   8.158  0.00  0.00     0.126 C 
HETATM   34  N   UNK N   1      35.666  14.833   8.872  0.00  0.00    -0.346 N 
HETATM   35  C   UNK N   1      34.529  15.429   8.416  0.00  0.00     0.242 C 
HETATM   36  O   UNK N   1      34.101  16.406   9.030  0.00  0.00    -0.271 OA
BRANCH  34  37
HETATM   37  C   UNK N   1      36.191  15.249  10.164  0.00  0.00     0.164 C 
BRANCH  37  38
HETATM   38  C   UNK N   1      36.050  14.081  11.066  0.00  0.00    -0.040 A 
HETATM   39  C   UNK N   1      37.212  13.426  11.498  0.00  0.00     0.009 A 
HETATM   40  C   UNK N   1      37.193  12.704  12.683  0.00  0.00     0.013 A 
HETATM   41  C   UNK N   1      36.009  12.619  13.429  0.00  0.00    -0.026 A 
HETATM   42  C   UNK N   1      34.823  13.165  12.914  0.00  0.00     0.013 A 
HETATM   43  C   UNK N   1      34.848  13.909  11.742  0.00  0.00     0.009 A 
BRANCH  41  44
HETATM   44  C   UNK N   1      36.059  12.217  14.845  0.00  0.00    -0.026 A 
HETATM   45  C   UNK N   1      36.583  10.965  15.201  0.00  0.00     0.012 A 
HETATM   46  C   UNK N   1      36.456  10.492  16.508  0.00  0.00     0.001 A 
HETATM   47  C   UNK N   1      35.778  11.253  17.462  0.00  0.00     0.000 A 
HETATM   48  C   UNK N   1      35.250  12.500  17.119  0.00  0.00     0.001 A 
HETATM   49  C   UNK N   1      35.386  12.980  15.815  0.00  0.00     0.012 A 
ENDBRANCH  41  44
ENDBRANCH  37  38
ENDBRANCH  34  37
ENDBRANCH   2  29
TORSDOF 15
ENDMDL
MODEL 9
REMARK VINA RESULT:      -8.3      4.310     11.006
REMARK  15 active torsions:
REMARK  status: ('A' for Active; 'I' for Inactive)
REMARK    1  A    between atoms: C_23  and  C_18 
REMARK    2  A    between atoms: C_29  and  C_18 
REMARK    3  A    between atoms: C_26  and  C_19 
REMARK    4  A    between atoms: C_30  and  C_19 
REMARK    5  A    between atoms: C_22  and  C_20 
REMARK    6  A    between atoms: N_38  and  C_20 
REMARK    7  A    between atoms: O_39  and  C_21 
REMARK    8  A    between atoms: C_25  and  C_24 
REMARK    9  A    between atoms: C_33  and  C_27 
REMARK   10  A    between atoms: C_28  and  N_36 
REMARK   11  A    between atoms: C_31  and  C_29 
REMARK   12  A    between atoms: C_29  and  N_34 
REMARK   13  A    between atoms: O_41  and  C_30 
REMARK   14  A    between atoms: C_31  and  O_42 
REMARK   15  A    between atoms: O_45  and  C_33 
ROOT
HETATM    1  C   UNK N   1      26.551  16.894   4.661  0.00  0.00     0.135 C 
HETATM    2  N   UNK N   1      25.539  16.134   4.898  0.00  0.00    -0.359 N 
ATOM      3  HN  UNK N   1      25.528  15.623   5.781  1.00  0.00     0.162 HD
ENDROOT
BRANCH   1   4
HETATM    4  C   UNK N   1      27.424  17.275   5.811  0.00  0.00     0.162 C 
BRANCH   4   5
HETATM    5  C   UNK N   1      28.656  16.349   5.706  0.00  0.00     0.072 C 
BRANCH   5   6
HETATM    6  C   UNK N   1      29.908  16.764   6.410  0.00  0.00    -0.055 A 
HETATM    7  C   UNK N   1      29.873  17.121   7.760  0.00  0.00     0.008 A 
HETATM    8  C   UNK N   1      31.037  17.568   8.393  0.00  0.00     0.009 A 
HETATM    9  C   UNK N   1      32.244  17.661   7.683  0.00  0.00    -0.031 A 
HETATM   10  C   UNK N   1      32.278  17.282   6.313  0.00  0.00     0.045 A 
HETATM   11  C   UNK N   1      31.099  16.854   5.700  0.00  0.00     0.026 A 
BRANCH   9  12
HETATM   12  C   UNK N   1      33.472  18.143   8.399  0.00  0.00     0.149 C 
BRANCH  12  13
HETATM   13  C   UNK N   1      34.167  17.038   9.133  0.00  0.00     0.143 C 
HETATM   14  O   UNK N   1      34.837  17.292  10.120  0.00  0.00    -0.650 OA
BRANCH  13  15
HETATM   15  O   UNK N   1      34.080  15.768   8.692  0.00  0.00    -0.776 OA
HETATM   16  H   UNK N   1      33.251  15.330   8.688  0.00  0.00     0.167 HD
ENDBRANCH  13  15
ENDBRANCH  12  13
ENDBRANCH   9  12
BRANCH  10  17
HETATM   17  C   UNK N   1      33.504  17.310   5.477  0.00  0.00     0.176 C 
HETATM   18  O   UNK N   1      34.472  16.619   5.749  0.00  0.00    -0.646 OA
BRANCH  17  19
HETATM   19  O   UNK N   1      33.549  18.101   4.386  0.00  0.00    -0.773 OA
HETATM   20  H   UNK N   1      33.123  17.970   3.561  0.00  0.00     0.167 HD
ENDBRANCH  17  19
ENDBRANCH  10  17
ENDBRANCH   5   6
ENDBRANCH   4   5
BRANCH   4  21
HETATM   21  N   UNK N   1      27.773  18.684   5.759  0.00  0.00    -0.362 N 
HETATM   22  C   UNK N   1      26.897  19.628   5.747  0.00  0.00     0.107 C 
HETATM   23  C   UNK N   1      27.350  21.046   5.687  0.00  0.00     0.097 C 
ATOM     24  HN  UNK N   1      28.760  18.938   5.731  1.00  0.00     0.162 HD
BRANCH  22  25
HETATM   25  O   UNK N   1      25.578  19.354   5.808  0.00  0.00    -0.350 OA
HETATM   26  H   UNK N   1      25.025  18.990   5.145  0.00  0.00     0.219 HD
ENDBRANCH  22  25
ENDBRANCH   4  21
ENDBRANCH   1   4
BRANCH   1  27
HETATM   27  O   UNK N   1      26.742  17.458   3.449  0.00  0.00    -0.348 OA
HETATM   28  H   UNK N   1      26.594  18.310   3.088  0.00  0.00     0.219 HD
ENDBRANCH   1  27
BRANCH   2  29
HETATM   29  C   UNK N   1      24.421  15.950   4.008  0.00  0.00     0.175 C 
HETATM   30  C   UNK N   1      24.393  14.526   3.455  0.00  0.00     0.035 C 
HETATM   31  C   UNK N   1      23.581  14.443   2.148  0.00  0.00     0.004 C 
HETATM   32  C   UNK N   1      22.300  15.274   2.174  0.00  0.00     0.020 C 
HETATM   33  C   UNK N   1      21.580  15.031   3.489  0.00  0.00     0.126 C 
HETATM   34  N   UNK N   1      21.916  16.023   4.508  0.00  0.00    -0.346 N 
HETATM   35  C   UNK N   1      23.198  16.359   4.824  0.00  0.00     0.242 C 
HETATM   36  O   UNK N   1      23.379  17.119   5.775  0.00  0.00    -0.271 OA
BRANCH  34  37
HETATM   37  C   UNK N   1      20.834  16.736   5.171  0.00  0.00     0.164 C 
BRANCH  37  38
HETATM   38  C   UNK N   1      20.479  15.935   6.366  0.00  0.00    -0.040 A 
HETATM   39  C   UNK N   1      20.472  14.537   6.257  0.00  0.00     0.009 A 
HETATM   40  C   UNK N   1      20.655  13.758   7.390  0.00  0.00     0.013 A 
HETATM   41  C   UNK N   1      20.827  14.373   8.638  0.00  0.00    -0.026 A 
HETATM   42  C   UNK N   1      20.695  15.766   8.751  0.00  0.00     0.013 A 
HETATM   43  C   UNK N   1      20.538  16.547   7.613  0.00  0.00     0.009 A 
BRANCH  41  44
HETATM   44  C   UNK N   1      21.410  13.615   9.758  0.00  0.00    -0.026 A 
HETATM   45  C   UNK N   1      22.787  13.346   9.782  0.00  0.00     0.012 A 
HETATM   46  C   UNK N   1      23.319  12.466  10.725  0.00  0.00     0.001 A 
HETATM   47  C   UNK N   1      22.475  11.825  11.635  0.00  0.00     0.000 A 
HETATM   48  C   UNK N   1      21.102  12.083  11.619  0.00  0.00     0.001 A 
HETATM   49  C   UNK N   1      20.570  12.971  10.683  0.00  0.00     0.012 A 
ENDBRANCH  41  44
ENDBRANCH  37  38
ENDBRANCH  34  37
ENDBRANCH   2  29
TORSDOF 15
ENDMDL
