REMARK  14 active torsions:
REMARK  status: ('A' for Active; 'I' for Inactive)
REMARK    1  A    between atoms: C_1  and  N_2 
REMARK    2  A    between atoms: C_7  and  C_12 
REMARK    3  A    between atoms: C_8  and  O_13 
REMARK    4  A    between atoms: C_12  and  O_16 
REMARK    5  A    between atoms: O_16  and  P_18 
REMARK    6  A    between atoms: P_18  and  O_19 
REMARK    7  A    between atoms: P_18  and  O_20 
REMARK    8  A    between atoms: O_19  and  P_22 
REMARK    9  A    between atoms: P_22  and  O_23 
REMARK   10  A    between atoms: P_22  and  O_24 
REMARK   11  A    between atoms: C_26  and  O_23 
REMARK   12  A    between atoms: C_27  and  O_30 
REMARK   13  A    between atoms: C_29  and  O_33 
REMARK   14  A    between atoms: C_32  and  O_35 
ROOT
HETATM    1  P   UNK N   1      13.344  -9.951   0.816  0.00  0.00     0.401 P 
HETATM    2  O   UNK N   1      12.753 -10.728   2.025  0.00  0.00    -0.631 OA
ENDROOT
BRANCH   1   3
HETATM    3  O   UNK N   1      15.063 -10.255   0.747  0.00  0.00    -0.294 OA
BRANCH   3   4
HETATM    4  C   UNK N   1      15.315 -11.517   1.292  0.00  0.00     0.215 C 
BRANCH   4   5
HETATM    5  C   UNK N   1      16.750 -11.980   0.971  0.00  0.00     0.177 C 
HETATM    6  O   UNK N   1      17.665 -10.918   1.141  0.00  0.00    -0.356 OA
HETATM    7  C   UNK N   1      17.989 -10.457  -0.162  0.00  0.00     0.235 C 
HETATM    8  C   UNK N   1      17.216 -11.255  -1.201  0.00  0.00     0.088 C 
HETATM    9  C   UNK N   1      16.950 -12.502  -0.439  0.00  0.00     0.153 C 
BRANCH   7  10
HETATM   10  N   UNK N   1      17.867  -8.988  -0.251  0.00  0.00    -0.282 N 
HETATM   11  C   UNK N   1      16.841  -8.321  -0.913  0.00  0.00     0.331 A 
HETATM   12  N   UNK N   1      16.815  -6.952  -0.931  0.00  0.00    -0.275 N 
HETATM   13  O   UNK N   1      15.950  -8.931  -1.474  0.00  0.00    -0.246 OA
HETATM   14  C   UNK N   1      17.789  -6.217  -0.319  0.00  0.00     0.256 A 
HETATM   15  H   UNK N   1      16.080  -6.488  -1.394  0.00  0.00     0.173 HD
HETATM   16  O   UNK N   1      17.742  -5.000  -0.356  0.00  0.00    -0.267 OA
HETATM   17  C   UNK N   1      18.831  -6.870   0.341  0.00  0.00     0.022 A 
HETATM   18  C   UNK N   1      18.842  -8.263   0.366  0.00  0.00     0.110 A 
HETATM   19  C   UNK N   1      19.925  -6.110   1.011  0.00  0.00     0.056 C 
ENDBRANCH   7  10
BRANCH   9  20
HETATM   20  O   UNK N   1      15.837 -13.186  -0.930  0.00  0.00    -0.393 OA
HETATM   21  H   UNK N   1      15.039 -12.754  -1.271  0.00  0.00     0.210 HD
ENDBRANCH   9  20
ENDBRANCH   4   5
ENDBRANCH   3   4
ENDBRANCH   1   3
BRANCH   1  22
HETATM   22  O   UNK N   1      12.551 -10.531  -0.635  0.00  0.00    -0.195 OA
BRANCH  22  23
HETATM   23  P   UNK N   1      11.291  -9.424  -1.151  0.00  0.00     0.404 P 
HETATM   24  O   UNK N   1      11.817  -8.884  -2.508  0.00  0.00    -0.631 OA
BRANCH  23  25
HETATM   25  O   UNK N   1       9.813 -10.226  -1.616  0.00  0.00    -0.263 OA
BRANCH  25  26
HETATM   26  C   UNK N   1       9.135 -10.682  -0.476  0.00  0.00     0.303 C 
HETATM   27  C   UNK N   1       9.217 -12.221  -0.507  0.00  0.00     0.205 C 
HETATM   28  C   UNK N   1       8.248 -12.870   0.473  0.00  0.00     0.183 C 
HETATM   29  C   UNK N   1       6.864 -12.272   0.292  0.00  0.00     0.178 C 
HETATM   30  C   UNK N   1       7.014 -10.760   0.465  0.00  0.00     0.152 C 
HETATM   31  O   UNK N   1       7.790 -10.251  -0.597  0.00  0.00    -0.350 OA
HETATM   32  C   UNK N   1       5.649 -10.093   0.430  0.00  0.00     0.042 C 
BRANCH  27  33
HETATM   33  O   UNK N   1      10.519 -12.636  -0.222  0.00  0.00    -0.388 OA
HETATM   34  H   UNK N   1      10.721 -13.564  -0.024  0.00  0.00     0.210 HD
ENDBRANCH  27  33
BRANCH  28  35
HETATM   35  O   UNK N   1       8.206 -14.247   0.246  0.00  0.00    -0.390 OA
HETATM   36  H   UNK N   1       7.363 -14.700   0.089  0.00  0.00     0.210 HD
ENDBRANCH  28  35
BRANCH  29  37
HETATM   37  O   UNK N   1       5.992 -12.806   1.244  0.00  0.00    -0.390 OA
HETATM   38  H   UNK N   1       5.368 -12.467   1.905  0.00  0.00     0.210 HD
ENDBRANCH  29  37
ENDBRANCH  25  26
ENDBRANCH  23  25
BRANCH  23  39
HETATM   39  O   UNK N   1      11.000  -7.987  -0.222  0.00  0.00    -0.307 OA
HETATM   40  H   UNK N   1      11.614  -7.445   0.298  0.00  0.00     0.222 HD
ENDBRANCH  23  39
ENDBRANCH  22  23
ENDBRANCH   1  22
BRANCH   1  41
HETATM   41  O   UNK N   1      13.125  -8.264   1.159  0.00  0.00    -0.307 OA
HETATM   42  H   UNK N   1      13.881  -7.686   1.351  0.00  0.00     0.222 HD
ENDBRANCH   1  41
TORSDOF 14
