REMARK  5 active torsions:
REMARK  status: ('A' for Active; 'I' for Inactive)
REMARK    1  A    between atoms: C_2  and  O_1 
REMARK    2  A    between atoms: C_2  and  C_3 
REMARK    3  A    between atoms: C_2  and  C_7 
REMARK    4  A    between atoms: C_3  and  C_4 
REMARK    5  A    between atoms: C_4  and  O_5 
ROOT
HETATM    1  C   UNK N   1       1.716  -0.643   0.000  0.00  0.00     0.228 C 
ENDROOT
BRANCH   1   2
HETATM    2  O   UNK N   1       3.104  -0.485   0.000  0.00  0.00    -0.384 OA
HETATM    3  H   UNK N   1       3.681  -1.264  -0.000  0.00  0.00     0.210 HD
ENDBRANCH   1   2
BRANCH   1   4
HETATM    4  C   UNK N   1       0.930   0.650   0.000  0.00  0.00     0.152 C 
BRANCH   4   5
HETATM    5  C   UNK N   1      -0.401   0.832   0.000  0.00  0.00     0.142 C 
HETATM    6  O   UNK N   1      -0.884   2.087  -0.000  0.00  0.00    -0.650 OA
BRANCH   5   7
HETATM    7  O   UNK N   1      -1.264  -0.197   0.000  0.00  0.00    -0.776 OA
HETATM    8  H   UNK N   1      -2.187  -0.035   0.000  0.00  0.00     0.167 HD
ENDBRANCH   5   7
ENDBRANCH   4   5
ENDBRANCH   1   4
BRANCH   1   9
HETATM    9  C   UNK N   1       1.221  -2.068  -0.000  0.00  0.00     0.203 C 
HETATM   10  O   UNK N   1       2.109  -3.079   0.000  0.00  0.00    -0.646 OA
HETATM   11  O   UNK N   1       0.031  -2.325  -0.000  0.00  0.00    -0.646 OA
ENDBRANCH   1   9
TORSDOF 5
