MODEL 1
REMARK VINA RESULT:      -3.6      0.000      0.000
REMARK  2 active torsions:
REMARK  status: ('A' for Active; 'I' for Inactive)
REMARK    1  A    between atoms: P_2  and  C_5 
REMARK    2  A    between atoms: C_5  and  S_6 
ROOT
HETATM    1  O   UNK N   1      35.290  19.233   8.551  0.00  0.00    -0.639 OA
HETATM    2  P   UNK N   1      34.280  17.898   8.087  0.00  0.00     0.268 P 
HETATM    3  O   UNK N   1      32.633  18.401   8.305  0.00  0.00    -0.639 OA
HETATM    4  O   UNK N   1      34.453  17.822   6.548  0.00  0.00    -0.639 OA
ENDROOT
BRANCH   2   5
HETATM    5  C   UNK N   1      34.746  16.272   8.860  0.00  0.00     0.216 C 
BRANCH   5   6
HETATM    6  S   UNK N   1      35.328  16.539  10.558  0.00  0.00    -0.169 SA
HETATM    7  H   UNK N   1      34.935  17.348  11.579  0.00  0.00     0.102 HD
ENDBRANCH   5   6
ENDBRANCH   2   5
TORSDOF 2
ENDMDL
MODEL 2
REMARK VINA RESULT:      -3.6      0.175      1.901
REMARK  2 active torsions:
REMARK  status: ('A' for Active; 'I' for Inactive)
REMARK    1  A    between atoms: P_2  and  C_5 
REMARK    2  A    between atoms: C_5  and  S_6 
ROOT
HETATM    1  O   UNK N   1      34.427  17.739   6.331  0.00  0.00    -0.639 OA
HETATM    2  P   UNK N   1      34.281  17.886   8.055  0.00  0.00     0.268 P 
HETATM    3  O   UNK N   1      35.298  19.203   8.546  0.00  0.00    -0.639 OA
HETATM    4  O   UNK N   1      32.841  18.423   8.258  0.00  0.00    -0.639 OA
ENDROOT
BRANCH   2   5
HETATM    5  C   UNK N   1      34.502  16.292   8.987  0.00  0.00     0.216 C 
BRANCH   5   6
HETATM    6  S   UNK N   1      35.336  16.611  10.567  0.00  0.00    -0.169 SA
HETATM    7  H   UNK N   1      35.098  16.248  11.856  0.00  0.00     0.102 HD
ENDBRANCH   5   6
ENDBRANCH   2   5
TORSDOF 2
ENDMDL
MODEL 3
REMARK VINA RESULT:      -3.4      0.230      1.879
REMARK  2 active torsions:
REMARK  status: ('A' for Active; 'I' for Inactive)
REMARK    1  A    between atoms: P_2  and  C_5 
REMARK    2  A    between atoms: C_5  and  S_6 
ROOT
HETATM    1  O   UNK N   1      32.553  18.329   8.349  0.00  0.00    -0.639 OA
HETATM    2  P   UNK N   1      34.173  17.847   7.952  0.00  0.00     0.268 P 
HETATM    3  O   UNK N   1      34.309  17.877   6.222  0.00  0.00    -0.639 OA
HETATM    4  O   UNK N   1      35.039  19.046   8.420  0.00  0.00    -0.639 OA
ENDROOT
BRANCH   2   5
HETATM    5  C   UNK N   1      34.743  16.287   8.789  0.00  0.00     0.216 C 
BRANCH   5   6
HETATM    6  S   UNK N   1      35.292  16.658  10.478  0.00  0.00    -0.169 SA
HETATM    7  H   UNK N   1      35.250  15.984  11.659  0.00  0.00     0.102 HD
ENDBRANCH   5   6
ENDBRANCH   2   5
TORSDOF 2
ENDMDL
MODEL 4
REMARK VINA RESULT:      -3.4      2.358      2.645
REMARK  2 active torsions:
REMARK  status: ('A' for Active; 'I' for Inactive)
REMARK    1  A    between atoms: P_2  and  C_5 
REMARK    2  A    between atoms: C_5  and  S_6 
ROOT
HETATM    1  O   UNK N   1      34.956  16.389   8.366  0.00  0.00    -0.639 OA
HETATM    2  P   UNK N   1      34.192  17.883   7.918  0.00  0.00     0.268 P 
HETATM    3  O   UNK N   1      35.213  19.170   8.480  0.00  0.00    -0.639 OA
HETATM    4  O   UNK N   1      34.344  17.926   6.376  0.00  0.00    -0.639 OA
ENDROOT
BRANCH   2   5
HETATM    5  C   UNK N   1      32.396  18.003   8.384  0.00  0.00     0.216 C 
BRANCH   5   6
HETATM    6  S   UNK N   1      31.675  16.341   8.499  0.00  0.00    -0.169 SA
HETATM    7  H   UNK N   1      31.847  15.183   7.806  0.00  0.00     0.102 HD
ENDBRANCH   5   6
ENDBRANCH   2   5
TORSDOF 2
ENDMDL
MODEL 5
REMARK VINA RESULT:      -3.3      2.661      2.850
REMARK  2 active torsions:
REMARK  status: ('A' for Active; 'I' for Inactive)
REMARK    1  A    between atoms: P_2  and  C_5 
REMARK    2  A    between atoms: C_5  and  S_6 
ROOT
HETATM    1  O   UNK N   1      35.082  19.181   8.440  0.00  0.00    -0.639 OA
HETATM    2  P   UNK N   1      34.075  17.887   7.869  0.00  0.00     0.268 P 
HETATM    3  O   UNK N   1      34.326  17.757   6.157  0.00  0.00    -0.639 OA
HETATM    4  O   UNK N   1      34.747  16.614   8.447  0.00  0.00    -0.639 OA
ENDROOT
BRANCH   2   5
HETATM    5  C   UNK N   1      32.304  17.981   8.430  0.00  0.00     0.216 C 
BRANCH   5   6
HETATM    6  S   UNK N   1      31.275  16.890   7.408  0.00  0.00    -0.169 SA
HETATM    7  H   UNK N   1      30.016  16.388   7.527  0.00  0.00     0.102 HD
ENDBRANCH   5   6
ENDBRANCH   2   5
TORSDOF 2
ENDMDL
MODEL 6
REMARK VINA RESULT:      -2.8      2.911      3.137
REMARK  2 active torsions:
REMARK  status: ('A' for Active; 'I' for Inactive)
REMARK    1  A    between atoms: P_2  and  C_5 
REMARK    2  A    between atoms: C_5  and  S_6 
ROOT
HETATM    1  O   UNK N   1      35.025  19.150   8.334  0.00  0.00    -0.639 OA
HETATM    2  P   UNK N   1      34.063  17.753   7.961  0.00  0.00     0.268 P 
HETATM    3  O   UNK N   1      34.694  16.432   8.894  0.00  0.00    -0.639 OA
HETATM    4  O   UNK N   1      32.694  18.062   8.621  0.00  0.00    -0.639 OA
ENDROOT
BRANCH   2   5
HETATM    5  C   UNK N   1      33.836  17.434   6.143  0.00  0.00     0.216 C 
BRANCH   5   6
HETATM    6  S   UNK N   1      32.098  17.043   5.798  0.00  0.00    -0.169 SA
HETATM    7  H   UNK N   1      31.085  17.698   5.169  0.00  0.00     0.102 HD
ENDBRANCH   5   6
ENDBRANCH   2   5
TORSDOF 2
ENDMDL
MODEL 7
REMARK VINA RESULT:      -2.8      2.099      2.729
REMARK  2 active torsions:
REMARK  status: ('A' for Active; 'I' for Inactive)
REMARK    1  A    between atoms: P_2  and  C_5 
REMARK    2  A    between atoms: C_5  and  S_6 
ROOT
HETATM    1  O   UNK N   1      32.414  18.348   8.432  0.00  0.00    -0.639 OA
HETATM    2  P   UNK N   1      34.042  17.803   8.173  0.00  0.00     0.268 P 
HETATM    3  O   UNK N   1      35.081  19.180   8.366  0.00  0.00    -0.639 OA
HETATM    4  O   UNK N   1      34.340  16.927   9.417  0.00  0.00    -0.639 OA
ENDROOT
BRANCH   2   5
HETATM    5  C   UNK N   1      34.286  16.807   6.621  0.00  0.00     0.216 C 
BRANCH   5   6
HETATM    6  S   UNK N   1      34.987  15.185   7.033  0.00  0.00    -0.169 SA
HETATM    7  H   UNK N   1      35.305  14.078   6.309  0.00  0.00     0.102 HD
ENDBRANCH   5   6
ENDBRANCH   2   5
TORSDOF 2
ENDMDL
MODEL 8
REMARK VINA RESULT:      -2.7     13.493     13.851
REMARK  2 active torsions:
REMARK  status: ('A' for Active; 'I' for Inactive)
REMARK    1  A    between atoms: P_2  and  C_5 
REMARK    2  A    between atoms: C_5  and  S_6 
ROOT
HETATM    1  O   UNK N   1      20.825  15.342   9.181  0.00  0.00    -0.639 OA
HETATM    2  P   UNK N   1      21.144  13.657   9.451  0.00  0.00     0.268 P 
HETATM    3  O   UNK N   1      19.920  13.069  10.534  0.00  0.00    -0.639 OA
HETATM    4  O   UNK N   1      20.797  12.993   8.094  0.00  0.00    -0.639 OA
ENDROOT
BRANCH   2   5
HETATM    5  C   UNK N   1      22.902  13.268   9.918  0.00  0.00     0.216 C 
BRANCH   5   6
HETATM    6  S   UNK N   1      22.969  11.688  10.809  0.00  0.00    -0.169 SA
HETATM    7  H   UNK N   1      22.098  11.010  11.603  0.00  0.00     0.102 HD
ENDBRANCH   5   6
ENDBRANCH   2   5
TORSDOF 2
ENDMDL
MODEL 9
REMARK VINA RESULT:      -2.6     18.027     18.213
REMARK  2 active torsions:
REMARK  status: ('A' for Active; 'I' for Inactive)
REMARK    1  A    between atoms: P_2  and  C_5 
REMARK    2  A    between atoms: C_5  and  S_6 
ROOT
HETATM    1  O   UNK N   1      27.683  27.718  -4.238  0.00  0.00    -0.639 OA
HETATM    2  P   UNK N   1      26.113  27.018  -3.995  0.00  0.00     0.268 P 
HETATM    3  O   UNK N   1      26.352  25.464  -3.258  0.00  0.00    -0.639 OA
HETATM    4  O   UNK N   1      25.495  27.881  -2.866  0.00  0.00    -0.639 OA
ENDROOT
BRANCH   2   5
HETATM    5  C   UNK N   1      25.012  27.049  -5.495  0.00  0.00     0.216 C 
BRANCH   5   6
HETATM    6  S   UNK N   1      25.895  26.362  -6.923  0.00  0.00    -0.169 SA
HETATM    7  H   UNK N   1      26.685  25.270  -7.115  0.00  0.00     0.102 HD
ENDBRANCH   5   6
ENDBRANCH   2   5
TORSDOF 2
ENDMDL
