MODEL 1
REMARK VINA RESULT:      -5.7      0.000      0.000
REMARK  11 active torsions:
REMARK  status: ('A' for Active; 'I' for Inactive)
REMARK    1  A    between atoms: C_3  and  C_1 
REMARK    2  A    between atoms: C_5  and  C_1 
REMARK    3  A    between atoms: C_4  and  C_2 
REMARK    4  A    between atoms: P_17  and  C_2 
REMARK    5  A    between atoms: C_6  and  C_3 
REMARK    6  A    between atoms: C_3  and  N_7 
REMARK    7  A    between atoms: C_4  and  O_9 
REMARK    8  A    between atoms: O_11  and  C_5 
REMARK    9  A    between atoms: O_13  and  C_6 
REMARK   10  A    between atoms: P_17  and  O_14 
REMARK   11  A    between atoms: P_17  and  O_15 
ROOT
HETATM    1  C   UNK N   1      31.062  16.566   7.729  0.00  0.00     0.123 C 
HETATM    2  N   UNK N   1      31.984  16.844   8.586  0.00  0.00    -0.359 N 
ATOM      3  HN  UNK N   1      31.809  17.614   9.230  1.00  0.00     0.162 HD
ENDROOT
BRANCH   2   4
HETATM    4  C   UNK N   1      33.247  16.152   8.708  0.00  0.00     0.191 C 
BRANCH   4   5
HETATM    5  C   UNK N   1      34.256  17.196   9.200  0.00  0.00     0.145 C 
BRANCH   5   6
HETATM    6  C   UNK N   1      34.617  18.208   8.160  0.00  0.00     0.141 C 
HETATM    7  O   UNK N   1      35.146  19.253   8.497  0.00  0.00    -0.650 OA
BRANCH   6   8
HETATM    8  O   UNK N   1      34.371  17.971   6.859  0.00  0.00    -0.776 OA
HETATM    9  H   UNK N   1      33.581  18.089   6.369  0.00  0.00     0.167 HD
ENDBRANCH   6   8
ENDBRANCH   5   6
ENDBRANCH   4   5
BRANCH   4  10
HETATM   10  C   UNK N   1      33.151  14.966   9.648  0.00  0.00     0.164 C 
HETATM   11  O   UNK N   1      33.180  13.824   9.218  0.00  0.00    -0.648 OA
BRANCH  10  12
HETATM   12  O   UNK N   1      33.015  15.164  10.974  0.00  0.00    -0.775 OA
HETATM   13  H   UNK N   1      33.282  15.885  11.510  0.00  0.00     0.167 HD
ENDBRANCH  10  12
ENDBRANCH   4  10
ENDBRANCH   2   4
BRANCH   1  14
HETATM   14  C   UNK N   1      29.887  17.472   7.649  0.00  0.00     0.208 C 
BRANCH  14  15
HETATM   15  P   UNK N   1      29.258  17.762   9.379  0.00  0.00     0.243 P 
HETATM   16  O   UNK N   1      29.898  19.055   9.954  0.00  0.00    -0.653 OA
BRANCH  15  17
HETATM   17  O   UNK N   1      29.698  16.549  10.538  0.00  0.00    -0.329 OA
HETATM   18  H   UNK N   1      29.382  15.674  10.812  0.00  0.00     0.220 HD
ENDBRANCH  15  17
BRANCH  15  19
HETATM   19  O   UNK N   1      27.553  18.045   9.531  0.00  0.00    -0.329 OA
HETATM   20  H   UNK N   1      26.877  18.656   9.863  0.00  0.00     0.220 HD
ENDBRANCH  15  19
ENDBRANCH  14  15
ENDBRANCH   1  14
BRANCH   1  21
HETATM   21  O   UNK N   1      31.204  15.559   6.842  0.00  0.00    -0.349 OA
HETATM   22  H   UNK N   1      31.602  14.850   6.377  0.00  0.00     0.219 HD
ENDBRANCH   1  21
TORSDOF 11
ENDMDL
MODEL 2
REMARK VINA RESULT:      -5.5      3.279      5.260
REMARK  11 active torsions:
REMARK  status: ('A' for Active; 'I' for Inactive)
REMARK    1  A    between atoms: C_3  and  C_1 
REMARK    2  A    between atoms: C_5  and  C_1 
REMARK    3  A    between atoms: C_4  and  C_2 
REMARK    4  A    between atoms: P_17  and  C_2 
REMARK    5  A    between atoms: C_6  and  C_3 
REMARK    6  A    between atoms: C_3  and  N_7 
REMARK    7  A    between atoms: C_4  and  O_9 
REMARK    8  A    between atoms: O_11  and  C_5 
REMARK    9  A    between atoms: O_13  and  C_6 
REMARK   10  A    between atoms: P_17  and  O_14 
REMARK   11  A    between atoms: P_17  and  O_15 
ROOT
HETATM    1  C   UNK N   1      34.230  15.540  10.500  0.00  0.00     0.123 C 
HETATM    2  N   UNK N   1      34.021  16.277   9.462  0.00  0.00    -0.359 N 
ATOM      3  HN  UNK N   1      34.831  16.716   9.027  1.00  0.00     0.162 HD
ENDROOT
BRANCH   2   4
HETATM    4  C   UNK N   1      32.729  16.531   8.866  0.00  0.00     0.191 C 
BRANCH   4   5
HETATM    5  C   UNK N   1      32.830  17.913   8.209  0.00  0.00     0.145 C 
BRANCH   5   6
HETATM    6  C   UNK N   1      34.208  18.243   7.732  0.00  0.00     0.141 C 
HETATM    7  O   UNK N   1      34.612  17.762   6.687  0.00  0.00    -0.650 OA
BRANCH   6   8
HETATM    8  O   UNK N   1      35.000  19.069   8.440  0.00  0.00    -0.776 OA
HETATM    9  H   UNK N   1      35.518  18.893   9.201  0.00  0.00     0.167 HD
ENDBRANCH   6   8
ENDBRANCH   5   6
ENDBRANCH   4   5
BRANCH   4  10
HETATM   10  C   UNK N   1      32.348  15.454   7.868  0.00  0.00     0.164 C 
HETATM   11  O   UNK N   1      32.086  14.321   8.241  0.00  0.00    -0.648 OA
BRANCH  10  12
HETATM   12  O   UNK N   1      32.310  15.736   6.551  0.00  0.00    -0.775 OA
HETATM   13  H   UNK N   1      32.325  15.166   5.808  0.00  0.00     0.167 HD
ENDBRANCH  10  12
ENDBRANCH   4  10
ENDBRANCH   2   4
BRANCH   1  14
HETATM   14  C   UNK N   1      35.605  15.505  11.063  0.00  0.00     0.208 C 
BRANCH  14  15
HETATM   15  P   UNK N   1      35.835  13.872  11.931  0.00  0.00     0.243 P 
HETATM   16  O   UNK N   1      35.320  12.724  11.022  0.00  0.00    -0.653 OA
BRANCH  15  17
HETATM   17  O   UNK N   1      34.914  13.672  13.387  0.00  0.00    -0.329 OA
HETATM   18  H   UNK N   1      34.587  14.232  14.109  0.00  0.00     0.220 HD
ENDBRANCH  15  17
BRANCH  15  19
HETATM   19  O   UNK N   1      37.474  13.418  12.276  0.00  0.00    -0.329 OA
HETATM   20  H   UNK N   1      38.308  13.105  11.892  0.00  0.00     0.220 HD
ENDBRANCH  15  19
ENDBRANCH  14  15
ENDBRANCH   1  14
BRANCH   1  21
HETATM   21  O   UNK N   1      33.219  14.915  11.135  0.00  0.00    -0.349 OA
HETATM   22  H   UNK N   1      32.764  14.430  11.796  0.00  0.00     0.219 HD
ENDBRANCH   1  21
TORSDOF 11
ENDMDL
MODEL 3
REMARK VINA RESULT:      -5.5      2.579      4.809
REMARK  11 active torsions:
REMARK  status: ('A' for Active; 'I' for Inactive)
REMARK    1  A    between atoms: C_3  and  C_1 
REMARK    2  A    between atoms: C_5  and  C_1 
REMARK    3  A    between atoms: C_4  and  C_2 
REMARK    4  A    between atoms: P_17  and  C_2 
REMARK    5  A    between atoms: C_6  and  C_3 
REMARK    6  A    between atoms: C_3  and  N_7 
REMARK    7  A    between atoms: C_4  and  O_9 
REMARK    8  A    between atoms: O_11  and  C_5 
REMARK    9  A    between atoms: O_13  and  C_6 
REMARK   10  A    between atoms: P_17  and  O_14 
REMARK   11  A    between atoms: P_17  and  O_15 
ROOT
HETATM    1  C   UNK N   1      33.456  15.225   9.790  0.00  0.00     0.123 C 
HETATM    2  N   UNK N   1      33.361  16.056   8.809  0.00  0.00    -0.359 N 
ATOM      3  HN  UNK N   1      34.153  16.120   8.170  1.00  0.00     0.162 HD
ENDROOT
BRANCH   2   4
HETATM    4  C   UNK N   1      32.223  16.906   8.542  0.00  0.00     0.191 C 
BRANCH   4   5
HETATM    5  C   UNK N   1      32.795  18.295   8.234  0.00  0.00     0.145 C 
BRANCH   5   6
HETATM    6  C   UNK N   1      34.225  18.263   7.795  0.00  0.00     0.141 C 
HETATM    7  O   UNK N   1      34.522  17.696   6.757  0.00  0.00    -0.650 OA
BRANCH   6   8
HETATM    8  O   UNK N   1      35.181  18.860   8.530  0.00  0.00    -0.776 OA
HETATM    9  H   UNK N   1      36.081  19.019   8.324  0.00  0.00     0.167 HD
ENDBRANCH   6   8
ENDBRANCH   5   6
ENDBRANCH   4   5
BRANCH   4  10
HETATM   10  C   UNK N   1      31.378  16.373   7.401  0.00  0.00     0.164 C 
HETATM   11  O   UNK N   1      30.345  16.936   7.073  0.00  0.00    -0.648 OA
BRANCH  10  12
HETATM   12  O   UNK N   1      31.753  15.257   6.747  0.00  0.00    -0.775 OA
HETATM   13  H   UNK N   1      31.396  14.391   6.769  0.00  0.00     0.167 HD
ENDBRANCH  10  12
ENDBRANCH   4  10
ENDBRANCH   2   4
BRANCH   1  14
HETATM   14  C   UNK N   1      34.756  14.535   9.996  0.00  0.00     0.208 C 
BRANCH  14  15
HETATM   15  P   UNK N   1      35.843  15.640  11.032  0.00  0.00     0.243 P 
HETATM   16  O   UNK N   1      35.318  17.099  10.959  0.00  0.00    -0.653 OA
BRANCH  15  17
HETATM   17  O   UNK N   1      37.485  15.778  10.491  0.00  0.00    -0.329 OA
HETATM   18  H   UNK N   1      38.371  15.587  10.838  0.00  0.00     0.220 HD
ENDBRANCH  15  17
BRANCH  15  19
HETATM   19  O   UNK N   1      35.873  15.299  12.733  0.00  0.00    -0.329 OA
HETATM   20  H   UNK N   1      35.399  14.876  13.466  0.00  0.00     0.220 HD
ENDBRANCH  15  19
ENDBRANCH  14  15
ENDBRANCH   1  14
BRANCH   1  21
HETATM   21  O   UNK N   1      32.456  15.069  10.681  0.00  0.00    -0.349 OA
HETATM   22  H   UNK N   1      31.755  15.294  11.261  0.00  0.00     0.219 HD
ENDBRANCH   1  21
TORSDOF 11
ENDMDL
MODEL 4
REMARK VINA RESULT:      -5.5      1.486      2.629
REMARK  11 active torsions:
REMARK  status: ('A' for Active; 'I' for Inactive)
REMARK    1  A    between atoms: C_3  and  C_1 
REMARK    2  A    between atoms: C_5  and  C_1 
REMARK    3  A    between atoms: C_4  and  C_2 
REMARK    4  A    between atoms: P_17  and  C_2 
REMARK    5  A    between atoms: C_6  and  C_3 
REMARK    6  A    between atoms: C_3  and  N_7 
REMARK    7  A    between atoms: C_4  and  O_9 
REMARK    8  A    between atoms: O_11  and  C_5 
REMARK    9  A    between atoms: O_13  and  C_6 
REMARK   10  A    between atoms: P_17  and  O_14 
REMARK   11  A    between atoms: P_17  and  O_15 
ROOT
HETATM    1  C   UNK N   1      31.577  16.686   8.684  0.00  0.00     0.123 C 
HETATM    2  N   UNK N   1      32.640  17.122   8.099  0.00  0.00    -0.359 N 
ATOM      3  HN  UNK N   1      32.521  17.842   7.386  1.00  0.00     0.162 HD
ENDROOT
BRANCH   2   4
HETATM    4  C   UNK N   1      33.987  16.674   8.370  0.00  0.00     0.191 C 
BRANCH   4   5
HETATM    5  C   UNK N   1      34.538  16.156   7.036  0.00  0.00     0.145 C 
BRANCH   5   6
HETATM    6  C   UNK N   1      33.838  16.728   5.844  0.00  0.00     0.141 C 
HETATM    7  O   UNK N   1      33.147  16.003   5.149  0.00  0.00    -0.650 OA
BRANCH   6   8
HETATM    8  O   UNK N   1      33.959  18.033   5.539  0.00  0.00    -0.776 OA
HETATM    9  H   UNK N   1      33.942  18.782   6.102  0.00  0.00     0.167 HD
ENDBRANCH   6   8
ENDBRANCH   5   6
ENDBRANCH   4   5
BRANCH   4  10
HETATM   10  C   UNK N   1      34.845  17.783   8.948  0.00  0.00     0.164 C 
HETATM   11  O   UNK N   1      35.436  17.629  10.005  0.00  0.00    -0.648 OA
BRANCH  10  12
HETATM   12  O   UNK N   1      34.949  18.961   8.303  0.00  0.00    -0.775 OA
HETATM   13  H   UNK N   1      34.624  19.810   8.532  0.00  0.00     0.167 HD
ENDBRANCH  10  12
ENDBRANCH   4  10
ENDBRANCH   2   4
BRANCH   1  14
HETATM   14  C   UNK N   1      30.261  17.156   8.180  0.00  0.00     0.208 C 
BRANCH  14  15
HETATM   15  P   UNK N   1      29.212  17.630   9.646  0.00  0.00     0.243 P 
HETATM   16  O   UNK N   1      29.717  18.977  10.231  0.00  0.00    -0.653 OA
BRANCH  15  17
HETATM   17  O   UNK N   1      29.302  16.548  10.999  0.00  0.00    -0.329 OA
HETATM   18  H   UNK N   1      29.525  15.618  11.157  0.00  0.00     0.220 HD
ENDBRANCH  15  17
BRANCH  15  19
HETATM   19  O   UNK N   1      27.535  17.927   9.317  0.00  0.00    -0.329 OA
HETATM   20  H   UNK N   1      26.799  17.738   8.714  0.00  0.00     0.220 HD
ENDBRANCH  15  19
ENDBRANCH  14  15
ENDBRANCH   1  14
BRANCH   1  21
HETATM   21  O   UNK N   1      31.640  15.740   9.644  0.00  0.00    -0.349 OA
HETATM   22  H   UNK N   1      31.352  15.131  10.295  0.00  0.00     0.219 HD
ENDBRANCH   1  21
TORSDOF 11
ENDMDL
MODEL 5
REMARK VINA RESULT:      -5.4      1.184      3.347
REMARK  11 active torsions:
REMARK  status: ('A' for Active; 'I' for Inactive)
REMARK    1  A    between atoms: C_3  and  C_1 
REMARK    2  A    between atoms: C_5  and  C_1 
REMARK    3  A    between atoms: C_4  and  C_2 
REMARK    4  A    between atoms: P_17  and  C_2 
REMARK    5  A    between atoms: C_6  and  C_3 
REMARK    6  A    between atoms: C_3  and  N_7 
REMARK    7  A    between atoms: C_4  and  O_9 
REMARK    8  A    between atoms: O_11  and  C_5 
REMARK    9  A    between atoms: O_13  and  C_6 
REMARK   10  A    between atoms: P_17  and  O_14 
REMARK   11  A    between atoms: P_17  and  O_15 
ROOT
HETATM    1  C   UNK N   1      31.144  17.416   8.186  0.00  0.00     0.123 C 
HETATM    2  N   UNK N   1      32.333  16.974   7.951  0.00  0.00    -0.359 N 
ATOM      3  HN  UNK N   1      32.449  16.335   7.166  1.00  0.00     0.162 HD
ENDROOT
BRANCH   2   4
HETATM    4  C   UNK N   1      33.515  17.313   8.711  0.00  0.00     0.191 C 
BRANCH   4   5
HETATM    5  C   UNK N   1      34.170  15.980   9.091  0.00  0.00     0.145 C 
BRANCH   5   6
HETATM    6  C   UNK N   1      33.231  15.027   9.759  0.00  0.00     0.141 C 
HETATM    7  O   UNK N   1      32.580  14.251   9.080  0.00  0.00    -0.650 OA
BRANCH   6   8
HETATM    8  O   UNK N   1      33.104  15.015  11.098  0.00  0.00    -0.776 OA
HETATM    9  H   UNK N   1      32.644  14.413  11.650  0.00  0.00     0.167 HD
ENDBRANCH   6   8
ENDBRANCH   5   6
ENDBRANCH   4   5
BRANCH   4  10
HETATM   10  C   UNK N   1      34.455  18.205   7.923  0.00  0.00     0.164 C 
HETATM   11  O   UNK N   1      34.561  18.086   6.713  0.00  0.00    -0.648 OA
BRANCH  10  12
HETATM   12  O   UNK N   1      35.198  19.131   8.559  0.00  0.00    -0.775 OA
HETATM   13  H   UNK N   1      36.087  19.100   8.853  0.00  0.00     0.167 HD
ENDBRANCH  10  12
ENDBRANCH   4  10
ENDBRANCH   2   4
BRANCH   1  14
HETATM   14  C   UNK N   1      30.022  16.852   7.393  0.00  0.00     0.208 C 
BRANCH  14  15
HETATM   15  P   UNK N   1      28.429  17.556   8.057  0.00  0.00     0.243 P 
HETATM   16  O   UNK N   1      28.473  19.106   7.973  0.00  0.00    -0.653 OA
BRANCH  15  17
HETATM   17  O   UNK N   1      28.133  17.254   9.739  0.00  0.00    -0.329 OA
HETATM   18  H   UNK N   1      27.437  17.442  10.387  0.00  0.00     0.220 HD
ENDBRANCH  15  17
BRANCH  15  19
HETATM   19  O   UNK N   1      26.990  17.138   7.183  0.00  0.00    -0.329 OA
HETATM   20  H   UNK N   1      26.254  16.508   7.121  0.00  0.00     0.220 HD
ENDBRANCH  15  19
ENDBRANCH  14  15
ENDBRANCH   1  14
BRANCH   1  21
HETATM   21  O   UNK N   1      30.898  18.271   9.199  0.00  0.00    -0.349 OA
HETATM   22  H   UNK N   1      31.011  18.995   9.783  0.00  0.00     0.219 HD
ENDBRANCH   1  21
TORSDOF 11
ENDMDL
MODEL 6
REMARK VINA RESULT:      -5.2      1.635      4.159
REMARK  11 active torsions:
REMARK  status: ('A' for Active; 'I' for Inactive)
REMARK    1  A    between atoms: C_3  and  C_1 
REMARK    2  A    between atoms: C_5  and  C_1 
REMARK    3  A    between atoms: C_4  and  C_2 
REMARK    4  A    between atoms: P_17  and  C_2 
REMARK    5  A    between atoms: C_6  and  C_3 
REMARK    6  A    between atoms: C_3  and  N_7 
REMARK    7  A    between atoms: C_4  and  O_9 
REMARK    8  A    between atoms: O_11  and  C_5 
REMARK    9  A    between atoms: O_13  and  C_6 
REMARK   10  A    between atoms: P_17  and  O_14 
REMARK   11  A    between atoms: P_17  and  O_15 
ROOT
HETATM    1  C   UNK N   1      31.161  17.513   8.255  0.00  0.00     0.123 C 
HETATM    2  N   UNK N   1      32.313  16.986   8.015  0.00  0.00    -0.359 N 
ATOM      3  HN  UNK N   1      32.367  16.299   7.264  1.00  0.00     0.162 HD
ENDROOT
BRANCH   2   4
HETATM    4  C   UNK N   1      33.535  17.292   8.724  0.00  0.00     0.191 C 
BRANCH   4   5
HETATM    5  C   UNK N   1      34.192  15.942   9.035  0.00  0.00     0.145 C 
BRANCH   5   6
HETATM    6  C   UNK N   1      33.295  15.001   9.773  0.00  0.00     0.141 C 
HETATM    7  O   UNK N   1      32.616  14.204   9.147  0.00  0.00    -0.650 OA
BRANCH   6   8
HETATM    8  O   UNK N   1      33.235  15.022  11.116  0.00  0.00    -0.776 OA
HETATM    9  H   UNK N   1      32.498  14.907  11.684  0.00  0.00     0.167 HD
ENDBRANCH   6   8
ENDBRANCH   5   6
ENDBRANCH   4   5
BRANCH   4  10
HETATM   10  C   UNK N   1      34.445  18.196   7.915  0.00  0.00     0.164 C 
HETATM   11  O   UNK N   1      34.512  18.089   6.701  0.00  0.00    -0.648 OA
BRANCH  10  12
HETATM   12  O   UNK N   1      35.203  19.120   8.535  0.00  0.00    -0.775 OA
HETATM   13  H   UNK N   1      36.109  19.101   8.776  0.00  0.00     0.167 HD
ENDBRANCH  10  12
ENDBRANCH   4  10
ENDBRANCH   2   4
BRANCH   1  14
HETATM   14  C   UNK N   1      29.983  16.977   7.524  0.00  0.00     0.208 C 
BRANCH  14  15
HETATM   15  P   UNK N   1      30.602  15.887   6.144  0.00  0.00     0.243 P 
HETATM   16  O   UNK N   1      31.655  16.660   5.305  0.00  0.00    -0.653 OA
BRANCH  15  17
HETATM   17  O   UNK N   1      29.409  15.435   4.969  0.00  0.00    -0.329 OA
HETATM   18  H   UNK N   1      29.371  15.274   4.013  0.00  0.00     0.220 HD
ENDBRANCH  15  17
BRANCH  15  19
HETATM   19  O   UNK N   1      31.439  14.447   6.630  0.00  0.00    -0.329 OA
HETATM   20  H   UNK N   1      32.156  14.093   7.178  0.00  0.00     0.220 HD
ENDBRANCH  15  19
ENDBRANCH  14  15
ENDBRANCH   1  14
BRANCH   1  21
HETATM   21  O   UNK N   1      30.996  18.437   9.224  0.00  0.00    -0.349 OA
HETATM   22  H   UNK N   1      30.629  18.870   9.969  0.00  0.00     0.219 HD
ENDBRANCH   1  21
TORSDOF 11
ENDMDL
MODEL 7
REMARK VINA RESULT:      -5.2      2.719      5.051
REMARK  11 active torsions:
REMARK  status: ('A' for Active; 'I' for Inactive)
REMARK    1  A    between atoms: C_3  and  C_1 
REMARK    2  A    between atoms: C_5  and  C_1 
REMARK    3  A    between atoms: C_4  and  C_2 
REMARK    4  A    between atoms: P_17  and  C_2 
REMARK    5  A    between atoms: C_6  and  C_3 
REMARK    6  A    between atoms: C_3  and  N_7 
REMARK    7  A    between atoms: C_4  and  O_9 
REMARK    8  A    between atoms: O_11  and  C_5 
REMARK    9  A    between atoms: O_13  and  C_6 
REMARK   10  A    between atoms: P_17  and  O_14 
REMARK   11  A    between atoms: P_17  and  O_15 
ROOT
HETATM    1  C   UNK N   1      35.533  14.790   8.345  0.00  0.00     0.123 C 
HETATM    2  N   UNK N   1      34.546  15.612   8.243  0.00  0.00    -0.359 N 
ATOM      3  HN  UNK N   1      34.198  16.037   9.102  1.00  0.00     0.162 HD
ENDROOT
BRANCH   2   4
HETATM    4  C   UNK N   1      33.891  15.982   7.009  0.00  0.00     0.191 C 
BRANCH   4   5
HETATM    5  C   UNK N   1      32.400  15.693   7.218  0.00  0.00     0.145 C 
BRANCH   5   6
HETATM    6  C   UNK N   1      31.723  16.684   8.110  0.00  0.00     0.141 C 
HETATM    7  O   UNK N   1      30.661  17.175   7.766  0.00  0.00    -0.650 OA
BRANCH   6   8
HETATM    8  O   UNK N   1      32.272  17.031   9.289  0.00  0.00    -0.776 OA
HETATM    9  H   UNK N   1      32.855  16.548   9.842  0.00  0.00     0.167 HD
ENDBRANCH   6   8
ENDBRANCH   5   6
ENDBRANCH   4   5
BRANCH   4  10
HETATM   10  C   UNK N   1      34.144  17.433   6.649  0.00  0.00     0.164 C 
HETATM   11  O   UNK N   1      33.903  17.850   5.528  0.00  0.00    -0.648 OA
BRANCH  10  12
HETATM   12  O   UNK N   1      34.655  18.277   7.567  0.00  0.00    -0.775 OA
HETATM   13  H   UNK N   1      34.754  18.179   8.494  0.00  0.00     0.167 HD
ENDBRANCH  10  12
ENDBRANCH   4  10
ENDBRANCH   2   4
BRANCH   1  14
HETATM   14  C   UNK N   1      35.991  14.415   9.708  0.00  0.00     0.208 C 
BRANCH  14  15
HETATM   15  P   UNK N   1      35.055  15.452  10.942  0.00  0.00     0.243 P 
HETATM   16  O   UNK N   1      35.732  15.339  12.334  0.00  0.00    -0.653 OA
BRANCH  15  17
HETATM   17  O   UNK N   1      33.425  14.945  11.247  0.00  0.00    -0.329 OA
HETATM   18  H   UNK N   1      32.779  15.009  11.968  0.00  0.00     0.220 HD
ENDBRANCH  15  17
BRANCH  15  19
HETATM   19  O   UNK N   1      35.029  17.160  10.635  0.00  0.00    -0.329 OA
HETATM   20  H   UNK N   1      34.721  17.852  10.030  0.00  0.00     0.220 HD
ENDBRANCH  15  19
ENDBRANCH  14  15
ENDBRANCH   1  14
BRANCH   1  21
HETATM   21  O   UNK N   1      36.063  14.186   7.261  0.00  0.00    -0.349 OA
HETATM   22  H   UNK N   1      36.622  14.042   6.523  0.00  0.00     0.219 HD
ENDBRANCH   1  21
TORSDOF 11
ENDMDL
MODEL 8
REMARK VINA RESULT:      -5.2      2.428      5.930
REMARK  11 active torsions:
REMARK  status: ('A' for Active; 'I' for Inactive)
REMARK    1  A    between atoms: C_3  and  C_1 
REMARK    2  A    between atoms: C_5  and  C_1 
REMARK    3  A    between atoms: C_4  and  C_2 
REMARK    4  A    between atoms: P_17  and  C_2 
REMARK    5  A    between atoms: C_6  and  C_3 
REMARK    6  A    between atoms: C_3  and  N_7 
REMARK    7  A    between atoms: C_4  and  O_9 
REMARK    8  A    between atoms: O_11  and  C_5 
REMARK    9  A    between atoms: O_13  and  C_6 
REMARK   10  A    between atoms: P_17  and  O_14 
REMARK   11  A    between atoms: P_17  and  O_15 
ROOT
HETATM    1  C   UNK N   1      31.396  17.365   7.421  0.00  0.00     0.123 C 
HETATM    2  N   UNK N   1      30.148  17.681   7.493  0.00  0.00    -0.359 N 
ATOM      3  HN  UNK N   1      29.876  18.358   8.204  1.00  0.00     0.162 HD
ENDROOT
BRANCH   2   4
HETATM    4  C   UNK N   1      29.103  17.152   6.646  0.00  0.00     0.191 C 
BRANCH   4   5
HETATM    5  C   UNK N   1      27.920  16.847   7.573  0.00  0.00     0.145 C 
BRANCH   5   6
HETATM    6  C   UNK N   1      27.940  17.641   8.840  0.00  0.00     0.141 C 
HETATM    7  O   UNK N   1      28.224  17.089   9.889  0.00  0.00    -0.650 OA
BRANCH   6   8
HETATM    8  O   UNK N   1      27.657  18.956   8.829  0.00  0.00    -0.776 OA
HETATM    9  H   UNK N   1      28.223  19.688   8.681  0.00  0.00     0.167 HD
ENDBRANCH   6   8
ENDBRANCH   5   6
ENDBRANCH   4   5
BRANCH   4  10
HETATM   10  C   UNK N   1      28.726  18.123   5.543  0.00  0.00     0.164 C 
HETATM   11  O   UNK N   1      27.789  18.892   5.682  0.00  0.00    -0.648 OA
BRANCH  10  12
HETATM   12  O   UNK N   1      29.418  18.133   4.387  0.00  0.00    -0.775 OA
HETATM   13  H   UNK N   1      30.339  18.056   4.229  0.00  0.00     0.167 HD
ENDBRANCH  10  12
ENDBRANCH   4  10
ENDBRANCH   2   4
BRANCH   1  14
HETATM   14  C   UNK N   1      32.311  17.896   8.465  0.00  0.00     0.208 C 
BRANCH  14  15
HETATM   15  P   UNK N   1      34.047  17.862   7.789  0.00  0.00     0.243 P 
HETATM   16  O   UNK N   1      34.714  16.504   8.142  0.00  0.00    -0.653 OA
BRANCH  15  17
HETATM   17  O   UNK N   1      35.130  19.029   8.476  0.00  0.00    -0.329 OA
HETATM   18  H   UNK N   1      35.145  19.631   9.236  0.00  0.00     0.220 HD
ENDBRANCH  15  17
BRANCH  15  19
HETATM   19  O   UNK N   1      34.194  17.955   6.063  0.00  0.00    -0.329 OA
HETATM   20  H   UNK N   1      33.747  18.214   5.242  0.00  0.00     0.220 HD
ENDBRANCH  15  19
ENDBRANCH  14  15
ENDBRANCH   1  14
BRANCH   1  21
HETATM   21  O   UNK N   1      31.848  16.482   6.507  0.00  0.00    -0.349 OA
HETATM   22  H   UNK N   1      32.403  16.102   5.855  0.00  0.00     0.219 HD
ENDBRANCH   1  21
TORSDOF 11
ENDMDL
MODEL 9
REMARK VINA RESULT:      -5.2      9.029     10.687
REMARK  11 active torsions:
REMARK  status: ('A' for Active; 'I' for Inactive)
REMARK    1  A    between atoms: C_3  and  C_1 
REMARK    2  A    between atoms: C_5  and  C_1 
REMARK    3  A    between atoms: C_4  and  C_2 
REMARK    4  A    between atoms: P_17  and  C_2 
REMARK    5  A    between atoms: C_6  and  C_3 
REMARK    6  A    between atoms: C_3  and  N_7 
REMARK    7  A    between atoms: C_4  and  O_9 
REMARK    8  A    between atoms: O_11  and  C_5 
REMARK    9  A    between atoms: O_13  and  C_6 
REMARK   10  A    between atoms: P_17  and  O_14 
REMARK   11  A    between atoms: P_17  and  O_15 
ROOT
HETATM    1  C   UNK N   1      21.017  13.351  10.148  0.00  0.00     0.123 C 
HETATM    2  N   UNK N   1      22.221  13.000   9.849  0.00  0.00    -0.359 N 
ATOM      3  HN  UNK N   1      22.758  13.627   9.251  1.00  0.00     0.162 HD
ENDROOT
BRANCH   2   4
HETATM    4  C   UNK N   1      22.872  11.787  10.293  0.00  0.00     0.191 C 
BRANCH   4   5
HETATM    5  C   UNK N   1      23.879  11.422   9.196  0.00  0.00     0.145 C 
BRANCH   5   6
HETATM    6  C   UNK N   1      24.289  12.588   8.355  0.00  0.00     0.141 C 
HETATM    7  O   UNK N   1      25.051  13.421   8.816  0.00  0.00    -0.650 OA
BRANCH   6   8
HETATM    8  O   UNK N   1      23.832  12.722   7.097  0.00  0.00    -0.776 OA
HETATM    9  H   UNK N   1      24.302  12.714   6.287  0.00  0.00     0.167 HD
ENDBRANCH   6   8
ENDBRANCH   5   6
ENDBRANCH   4   5
BRANCH   4  10
HETATM   10  C   UNK N   1      23.540  11.969  11.642  0.00  0.00     0.164 C 
HETATM   11  O   UNK N   1      22.904  11.844  12.676  0.00  0.00    -0.648 OA
BRANCH  10  12
HETATM   12  O   UNK N   1      24.847  12.286  11.710  0.00  0.00    -0.775 OA
HETATM   13  H   UNK N   1      25.518  12.245  11.056  0.00  0.00     0.167 HD
ENDBRANCH  10  12
ENDBRANCH   4  10
ENDBRANCH   2   4
BRANCH   1  14
HETATM   14  C   UNK N   1      20.459  14.560   9.488  0.00  0.00     0.208 C 
BRANCH  14  15
HETATM   15  P   UNK N   1      20.766  14.415   7.655  0.00  0.00     0.243 P 
HETATM   16  O   UNK N   1      19.603  15.091   6.879  0.00  0.00    -0.653 OA
BRANCH  15  17
HETATM   17  O   UNK N   1      20.773  12.796   7.033  0.00  0.00    -0.329 OA
HETATM   18  H   UNK N   1      20.144  12.064   6.936  0.00  0.00     0.220 HD
ENDBRANCH  15  17
BRANCH  15  19
HETATM   19  O   UNK N   1      22.182  15.219   7.055  0.00  0.00    -0.329 OA
HETATM   20  H   UNK N   1      23.150  15.185   7.001  0.00  0.00     0.220 HD
ENDBRANCH  15  19
ENDBRANCH  14  15
ENDBRANCH   1  14
BRANCH   1  21
HETATM   21  O   UNK N   1      20.236  12.587  10.939  0.00  0.00    -0.349 OA
HETATM   22  H   UNK N   1      19.531  12.026  11.197  0.00  0.00     0.219 HD
ENDBRANCH   1  21
TORSDOF 11
ENDMDL
