MODEL 1
REMARK VINA RESULT:      -8.8      0.000      0.000
REMARK  5 active torsions:
REMARK  status: ('A' for Active; 'I' for Inactive)
REMARK    1  A    between atoms: C_13  and  C_15 
REMARK    2  A    between atoms: C_15  and  O_16 
REMARK    3  A    between atoms: C_15  and  C_17 
REMARK    4  A    between atoms: C_24  and  C_27 
REMARK    5  A    between atoms: C_27  and  O_28 
ROOT
HETATM    1  C   UNK N   1      28.106  18.543   6.445  0.00  0.00     0.184 C 
ENDROOT
BRANCH   1   2
HETATM    2  C   UNK N   1      29.342  17.836   5.928  0.00  0.00    -0.025 A 
HETATM    3  C   UNK N   1      29.383  17.445   4.584  0.00  0.00     0.011 A 
HETATM    4  C   UNK N   1      30.426  16.665   4.104  0.00  0.00     0.009 A 
HETATM    5  C   UNK N   1      31.485  16.298   4.943  0.00  0.00    -0.043 A 
HETATM    6  C   UNK N   1      31.526  16.803   6.271  0.00  0.00    -0.043 A 
HETATM    7  C   UNK N   1      32.539  15.338   4.415  0.00  0.00    -0.020 C 
HETATM    8  C   UNK N   1      32.732  16.578   7.168  0.00  0.00    -0.020 C 
HETATM    9  C   UNK N   1      30.428  17.538   6.760  0.00  0.00     0.018 A 
HETATM   10  C   UNK N   1      33.915  15.975   6.409  0.00  0.00     0.015 C 
HETATM   11  C   UNK N   1      33.223  17.913   7.705  0.00  0.00     0.020 C 
HETATM   12  C   UNK N   1      32.353  15.694   8.344  0.00  0.00     0.020 C 
HETATM   13  C   UNK N   1      33.469  14.837   5.519  0.00  0.00     0.015 C 
HETATM   14  C   UNK N   1      33.338  15.990   3.301  0.00  0.00     0.020 C 
HETATM   15  C   UNK N   1      31.859  14.096   3.856  0.00  0.00     0.020 C 
ENDBRANCH   1   2
BRANCH   1  16
HETATM   16  O   UNK N   1      27.461  17.826   7.457  0.00  0.00    -0.386 OA
HETATM   17  H   UNK N   1      27.624  17.882   8.411  0.00  0.00     0.210 HD
ENDBRANCH   1  16
BRANCH   1  18
HETATM   18  C   UNK N   1      27.133  18.934   5.352  0.00  0.00    -0.024 A 
HETATM   19  C   UNK N   1      25.881  18.307   5.297  0.00  0.00     0.022 A 
HETATM   20  C   UNK N   1      24.877  18.818   4.465  0.00  0.00    -0.025 A 
HETATM   21  C   UNK N   1      25.130  19.967   3.683  0.00  0.00    -0.025 A 
HETATM   22  C   UNK N   1      23.606  18.241   4.458  0.00  0.00     0.013 A 
HETATM   23  C   UNK N   1      26.391  20.551   3.687  0.00  0.00     0.013 A 
HETATM   24  C   UNK N   1      24.100  20.552   2.948  0.00  0.00     0.030 A 
HETATM   25  C   UNK N   1      27.383  20.041   4.519  0.00  0.00     0.011 A 
HETATM   26  C   UNK N   1      22.814  20.004   2.979  0.00  0.00     0.038 A 
HETATM   27  C   UNK N   1      22.576  18.833   3.718  0.00  0.00     0.019 A 
BRANCH  26  28
HETATM   28  C   UNK N   1      21.706  20.696   2.293  0.00  0.00     0.176 C 
HETATM   29  O   UNK N   1      21.578  20.610   1.084  0.00  0.00    -0.646 OA
BRANCH  28  30
HETATM   30  O   UNK N   1      20.794  21.386   3.008  0.00  0.00    -0.773 OA
HETATM   31  H   UNK N   1      19.897  21.493   2.761  0.00  0.00     0.167 HD
ENDBRANCH  28  30
ENDBRANCH  26  28
ENDBRANCH   1  18
TORSDOF 5
ENDMDL
MODEL 2
REMARK VINA RESULT:      -8.8     10.290     14.062
REMARK  5 active torsions:
REMARK  status: ('A' for Active; 'I' for Inactive)
REMARK    1  A    between atoms: C_13  and  C_15 
REMARK    2  A    between atoms: C_15  and  O_16 
REMARK    3  A    between atoms: C_15  and  C_17 
REMARK    4  A    between atoms: C_24  and  C_27 
REMARK    5  A    between atoms: C_27  and  O_28 
ROOT
HETATM    1  C   UNK N   1      29.486  22.815  -2.563  0.00  0.00     0.184 C 
ENDROOT
BRANCH   1   2
HETATM    2  C   UNK N   1      28.725  23.991  -3.138  0.00  0.00    -0.025 A 
HETATM    3  C   UNK N   1      27.326  23.990  -3.070  0.00  0.00     0.011 A 
HETATM    4  C   UNK N   1      26.583  24.969  -3.714  0.00  0.00     0.009 A 
HETATM    5  C   UNK N   1      27.221  26.010  -4.401  0.00  0.00    -0.043 A 
HETATM    6  C   UNK N   1      28.639  26.101  -4.362  0.00  0.00    -0.043 A 
HETATM    7  C   UNK N   1      26.374  26.987  -5.201  0.00  0.00    -0.020 C 
HETATM    8  C   UNK N   1      29.372  27.298  -4.943  0.00  0.00    -0.020 C 
HETATM    9  C   UNK N   1      29.377  25.063  -3.759  0.00  0.00     0.018 A 
HETATM   10  C   UNK N   1      28.419  28.428  -5.338  0.00  0.00     0.015 C 
HETATM   11  C   UNK N   1      30.298  27.889  -3.891  0.00  0.00     0.020 C 
HETATM   12  C   UNK N   1      30.209  26.872  -6.137  0.00  0.00     0.020 C 
HETATM   13  C   UNK N   1      27.223  27.892  -6.092  0.00  0.00     0.015 C 
HETATM   14  C   UNK N   1      25.507  27.817  -4.272  0.00  0.00     0.020 C 
HETATM   15  C   UNK N   1      25.465  26.215  -6.146  0.00  0.00     0.020 C 
ENDBRANCH   1   2
BRANCH   1  16
HETATM   16  O   UNK N   1      30.116  23.123  -1.354  0.00  0.00    -0.386 OA
HETATM   17  H   UNK N   1      30.393  22.503  -0.662  0.00  0.00     0.210 HD
ENDBRANCH   1  16
BRANCH   1  18
HETATM   18  C   UNK N   1      30.462  22.191  -3.539  0.00  0.00    -0.024 A 
HETATM   19  C   UNK N   1      31.764  21.899  -3.110  0.00  0.00     0.022 A 
HETATM   20  C   UNK N   1      32.600  21.103  -3.902  0.00  0.00    -0.025 A 
HETATM   21  C   UNK N   1      32.128  20.594  -5.133  0.00  0.00    -0.025 A 
HETATM   22  C   UNK N   1      33.872  20.749  -3.448  0.00  0.00     0.013 A 
HETATM   23  C   UNK N   1      30.861  20.937  -5.590  0.00  0.00     0.013 A 
HETATM   24  C   UNK N   1      32.909  19.702  -5.866  0.00  0.00     0.030 A 
HETATM   25  C   UNK N   1      30.033  21.726  -4.796  0.00  0.00     0.011 A 
HETATM   26  C   UNK N   1      34.163  19.308  -5.389  0.00  0.00     0.038 A 
HETATM   27  C   UNK N   1      34.652  19.853  -4.189  0.00  0.00     0.019 A 
BRANCH  26  28
HETATM   28  C   UNK N   1      34.931  18.277  -6.112  0.00  0.00     0.176 C 
HETATM   29  O   UNK N   1      34.607  17.940  -7.238  0.00  0.00    -0.646 OA
BRANCH  28  30
HETATM   30  O   UNK N   1      36.032  17.736  -5.549  0.00  0.00    -0.773 OA
HETATM   31  H   UNK N   1      36.634  18.206  -5.006  0.00  0.00     0.167 HD
ENDBRANCH  28  30
ENDBRANCH  26  28
ENDBRANCH   1  18
TORSDOF 5
ENDMDL
MODEL 3
REMARK VINA RESULT:      -8.7      3.452      8.843
REMARK  5 active torsions:
REMARK  status: ('A' for Active; 'I' for Inactive)
REMARK    1  A    between atoms: C_13  and  C_15 
REMARK    2  A    between atoms: C_15  and  O_16 
REMARK    3  A    between atoms: C_15  and  C_17 
REMARK    4  A    between atoms: C_24  and  C_27 
REMARK    5  A    between atoms: C_27  and  O_28 
ROOT
HETATM    1  C   UNK N   1      29.430  15.919   2.833  0.00  0.00     0.184 C 
ENDROOT
BRANCH   1   2
HETATM    2  C   UNK N   1      28.017  16.131   3.334  0.00  0.00    -0.025 A 
HETATM    3  C   UNK N   1      27.220  15.010   3.600  0.00  0.00     0.011 A 
HETATM    4  C   UNK N   1      25.876  15.154   3.915  0.00  0.00     0.009 A 
HETATM    5  C   UNK N   1      25.303  16.427   4.027  0.00  0.00    -0.043 A 
HETATM    6  C   UNK N   1      26.132  17.574   3.896  0.00  0.00    -0.043 A 
HETATM    7  C   UNK N   1      23.803  16.538   4.245  0.00  0.00    -0.020 C 
HETATM    8  C   UNK N   1      25.600  18.971   4.174  0.00  0.00    -0.020 C 
HETATM    9  C   UNK N   1      27.477  17.410   3.512  0.00  0.00     0.018 A 
HETATM   10  C   UNK N   1      24.207  18.947   4.804  0.00  0.00     0.015 C 
HETATM   11  C   UNK N   1      26.498  19.664   5.187  0.00  0.00     0.020 C 
HETATM   12  C   UNK N   1      25.589  19.792   2.897  0.00  0.00     0.020 C 
HETATM   13  C   UNK N   1      23.301  17.973   4.085  0.00  0.00     0.015 C 
HETATM   14  C   UNK N   1      23.426  15.992   5.610  0.00  0.00     0.020 C 
HETATM   15  C   UNK N   1      23.074  15.727   3.184  0.00  0.00     0.020 C 
ENDBRANCH   1   2
BRANCH   1  16
HETATM   16  O   UNK N   1      29.741  14.567   2.658  0.00  0.00    -0.386 OA
HETATM   17  H   UNK N   1      30.095  14.146   1.860  0.00  0.00     0.210 HD
ENDBRANCH   1  16
BRANCH   1  18
HETATM   18  C   UNK N   1      30.480  16.612   3.677  0.00  0.00    -0.024 A 
HETATM   19  C   UNK N   1      30.235  16.810   5.043  0.00  0.00     0.022 A 
HETATM   20  C   UNK N   1      31.275  17.214   5.890  0.00  0.00    -0.025 A 
HETATM   21  C   UNK N   1      32.571  17.421   5.364  0.00  0.00    -0.025 A 
HETATM   22  C   UNK N   1      31.056  17.344   7.262  0.00  0.00     0.013 A 
HETATM   23  C   UNK N   1      32.798  17.289   3.999  0.00  0.00     0.013 A 
HETATM   24  C   UNK N   1      33.634  17.702   6.218  0.00  0.00     0.030 A 
HETATM   25  C   UNK N   1      31.762  16.883   3.163  0.00  0.00     0.011 A 
HETATM   26  C   UNK N   1      33.427  17.784   7.598  0.00  0.00     0.038 A 
HETATM   27  C   UNK N   1      32.129  17.628   8.115  0.00  0.00     0.019 A 
BRANCH  26  28
HETATM   28  C   UNK N   1      34.577  17.967   8.504  0.00  0.00     0.176 C 
HETATM   29  O   UNK N   1      34.933  17.065   9.242  0.00  0.00    -0.646 OA
BRANCH  28  30
HETATM   30  O   UNK N   1      35.277  19.120   8.481  0.00  0.00    -0.773 OA
HETATM   31  H   UNK N   1      35.333  19.692   7.741  0.00  0.00     0.167 HD
ENDBRANCH  28  30
ENDBRANCH  26  28
ENDBRANCH   1  18
TORSDOF 5
ENDMDL
MODEL 4
REMARK VINA RESULT:      -8.6      1.822      3.292
REMARK  5 active torsions:
REMARK  status: ('A' for Active; 'I' for Inactive)
REMARK    1  A    between atoms: C_13  and  C_15 
REMARK    2  A    between atoms: C_15  and  O_16 
REMARK    3  A    between atoms: C_15  and  C_17 
REMARK    4  A    between atoms: C_24  and  C_27 
REMARK    5  A    between atoms: C_27  and  O_28 
ROOT
HETATM    1  C   UNK N   1      27.437  15.938   3.978  0.00  0.00     0.184 C 
ENDROOT
BRANCH   1   2
HETATM    2  C   UNK N   1      28.535  16.322   4.947  0.00  0.00    -0.025 A 
HETATM    3  C   UNK N   1      29.856  15.965   4.646  0.00  0.00     0.011 A 
HETATM    4  C   UNK N   1      30.872  16.161   5.571  0.00  0.00     0.009 A 
HETATM    5  C   UNK N   1      30.605  16.771   6.803  0.00  0.00    -0.043 A 
HETATM    6  C   UNK N   1      29.298  17.263   7.065  0.00  0.00    -0.043 A 
HETATM    7  C   UNK N   1      31.716  16.850   7.838  0.00  0.00    -0.020 C 
HETATM    8  C   UNK N   1      28.994  18.081   8.309  0.00  0.00    -0.020 C 
HETATM    9  C   UNK N   1      28.266  16.997   6.144  0.00  0.00     0.018 A 
HETATM   10  C   UNK N   1      30.261  18.475   9.070  0.00  0.00     0.015 C 
HETATM   11  C   UNK N   1      28.330  19.389   7.909  0.00  0.00     0.020 C 
HETATM   12  C   UNK N   1      28.047  17.318   9.220  0.00  0.00     0.020 C 
HETATM   13  C   UNK N   1      31.203  17.299   9.205  0.00  0.00     0.015 C 
HETATM   14  C   UNK N   1      32.822  17.771   7.356  0.00  0.00     0.020 C 
HETATM   15  C   UNK N   1      32.306  15.464   8.056  0.00  0.00     0.020 C 
ENDBRANCH   1   2
BRANCH   1  16
HETATM   16  O   UNK N   1      27.878  15.908   2.652  0.00  0.00    -0.386 OA
HETATM   17  H   UNK N   1      28.211  16.652   2.127  0.00  0.00     0.210 HD
ENDBRANCH   1  16
BRANCH   1  18
HETATM   18  C   UNK N   1      26.188  16.785   4.115  0.00  0.00    -0.024 A 
HETATM   19  C   UNK N   1      26.203  18.104   3.642  0.00  0.00     0.022 A 
HETATM   20  C   UNK N   1      25.005  18.820   3.527  0.00  0.00    -0.025 A 
HETATM   21  C   UNK N   1      23.783  18.210   3.887  0.00  0.00    -0.025 A 
HETATM   22  C   UNK N   1      25.004  20.109   2.990  0.00  0.00     0.013 A 
HETATM   23  C   UNK N   1      23.775  16.925   4.418  0.00  0.00     0.013 A 
HETATM   24  C   UNK N   1      22.578  18.871   3.659  0.00  0.00     0.030 A 
HETATM   25  C   UNK N   1      24.968  16.217   4.526  0.00  0.00     0.011 A 
HETATM   26  C   UNK N   1      22.571  20.142   3.077  0.00  0.00     0.038 A 
HETATM   27  C   UNK N   1      23.790  20.768   2.764  0.00  0.00     0.019 A 
BRANCH  26  28
HETATM   28  C   UNK N   1      21.288  20.785   2.733  0.00  0.00     0.176 C 
HETATM   29  O   UNK N   1      21.033  21.077   1.578  0.00  0.00    -0.646 OA
BRANCH  28  30
HETATM   30  O   UNK N   1      20.366  21.005   3.692  0.00  0.00    -0.773 OA
HETATM   31  H   UNK N   1      19.460  20.774   3.620  0.00  0.00     0.167 HD
ENDBRANCH  28  30
ENDBRANCH  26  28
ENDBRANCH   1  18
TORSDOF 5
ENDMDL
MODEL 5
REMARK VINA RESULT:      -8.6      5.384     11.029
REMARK  5 active torsions:
REMARK  status: ('A' for Active; 'I' for Inactive)
REMARK    1  A    between atoms: C_13  and  C_15 
REMARK    2  A    between atoms: C_15  and  O_16 
REMARK    3  A    between atoms: C_15  and  C_17 
REMARK    4  A    between atoms: C_24  and  C_27 
REMARK    5  A    between atoms: C_27  and  O_28 
ROOT
HETATM    1  C   UNK N   1      34.275  16.789   7.438  0.00  0.00     0.184 C 
ENDROOT
BRANCH   1   2
HETATM    2  C   UNK N   1      32.800  17.131   7.438  0.00  0.00    -0.025 A 
HETATM    3  C   UNK N   1      32.296  17.953   8.454  0.00  0.00     0.011 A 
HETATM    4  C   UNK N   1      30.931  18.170   8.581  0.00  0.00     0.009 A 
HETATM    5  C   UNK N   1      30.034  17.614   7.661  0.00  0.00    -0.043 A 
HETATM    6  C   UNK N   1      30.541  16.894   6.545  0.00  0.00    -0.043 A 
HETATM    7  C   UNK N   1      28.542  17.768   7.908  0.00  0.00    -0.020 C 
HETATM    8  C   UNK N   1      29.627  16.416   5.429  0.00  0.00    -0.020 C 
HETATM    9  C   UNK N   1      31.922  16.628   6.470  0.00  0.00     0.018 A 
HETATM   10  C   UNK N   1      28.214  16.989   5.549  0.00  0.00     0.015 C 
HETATM   11  C   UNK N   1      30.158  16.907   4.091  0.00  0.00     0.020 C 
HETATM   12  C   UNK N   1      29.580  14.898   5.402  0.00  0.00     0.020 C 
HETATM   13  C   UNK N   1      27.708  16.895   6.971  0.00  0.00     0.015 C 
HETATM   14  C   UNK N   1      28.133  19.224   7.783  0.00  0.00     0.020 C 
HETATM   15  C   UNK N   1      28.210  17.294   9.315  0.00  0.00     0.020 C 
ENDBRANCH   1   2
BRANCH   1  16
HETATM   16  O   UNK N   1      34.749  16.458   6.166  0.00  0.00    -0.386 OA
HETATM   17  H   UNK N   1      35.521  15.911   5.951  0.00  0.00     0.210 HD
ENDBRANCH   1  16
BRANCH   1  18
HETATM   18  C   UNK N   1      34.647  15.724   8.450  0.00  0.00    -0.024 A 
HETATM   19  C   UNK N   1      35.266  16.108   9.648  0.00  0.00     0.022 A 
HETATM   20  C   UNK N   1      35.391  15.188  10.697  0.00  0.00    -0.025 A 
HETATM   21  C   UNK N   1      34.892  13.875  10.545  0.00  0.00    -0.025 A 
HETATM   22  C   UNK N   1      35.942  15.583  11.917  0.00  0.00     0.013 A 
HETATM   23  C   UNK N   1      34.337  13.476   9.335  0.00  0.00     0.013 A 
HETATM   24  C   UNK N   1      34.902  12.995  11.625  0.00  0.00     0.030 A 
HETATM   25  C   UNK N   1      34.211  14.395   8.297  0.00  0.00     0.011 A 
HETATM   26  C   UNK N   1      35.408  13.404  12.862  0.00  0.00     0.038 A 
HETATM   27  C   UNK N   1      35.950  14.694  12.998  0.00  0.00     0.019 A 
BRANCH  26  28
HETATM   28  C   UNK N   1      35.309  12.506  14.029  0.00  0.00     0.176 C 
HETATM   29  O   UNK N   1      34.222  12.225  14.502  0.00  0.00    -0.646 OA
BRANCH  28  30
HETATM   30  O   UNK N   1      36.422  11.947  14.547  0.00  0.00    -0.773 OA
HETATM   31  H   UNK N   1      36.714  12.067  15.429  0.00  0.00     0.167 HD
ENDBRANCH  28  30
ENDBRANCH  26  28
ENDBRANCH   1  18
TORSDOF 5
ENDMDL
MODEL 6
REMARK VINA RESULT:      -8.5      5.501     11.310
REMARK  5 active torsions:
REMARK  status: ('A' for Active; 'I' for Inactive)
REMARK    1  A    between atoms: C_13  and  C_15 
REMARK    2  A    between atoms: C_15  and  O_16 
REMARK    3  A    between atoms: C_15  and  C_17 
REMARK    4  A    between atoms: C_24  and  C_27 
REMARK    5  A    between atoms: C_27  and  O_28 
ROOT
HETATM    1  C   UNK N   1      34.129  15.678   7.748  0.00  0.00     0.184 C 
ENDROOT
BRANCH   1   2
HETATM    2  C   UNK N   1      32.675  15.974   7.444  0.00  0.00    -0.025 A 
HETATM    3  C   UNK N   1      32.152  15.590   6.203  0.00  0.00     0.011 A 
HETATM    4  C   UNK N   1      30.873  15.972   5.823  0.00  0.00     0.009 A 
HETATM    5  C   UNK N   1      30.060  16.704   6.696  0.00  0.00    -0.043 A 
HETATM    6  C   UNK N   1      30.526  16.981   8.010  0.00  0.00    -0.043 A 
HETATM    7  C   UNK N   1      28.718  17.214   6.194  0.00  0.00    -0.020 C 
HETATM    8  C   UNK N   1      29.623  17.621   9.052  0.00  0.00    -0.020 C 
HETATM    9  C   UNK N   1      31.849  16.643   8.355  0.00  0.00     0.018 A 
HETATM   10  C   UNK N   1      28.168  17.702   8.589  0.00  0.00     0.015 C 
HETATM   11  C   UNK N   1      29.609  16.765  10.309  0.00  0.00     0.020 C 
HETATM   12  C   UNK N   1      30.139  19.003   9.416  0.00  0.00     0.020 C 
HETATM   13  C   UNK N   1      28.076  18.203   7.166  0.00  0.00     0.015 C 
HETATM   14  C   UNK N   1      27.781  16.052   5.921  0.00  0.00     0.020 C 
HETATM   15  C   UNK N   1      28.921  17.984   4.898  0.00  0.00     0.020 C 
ENDBRANCH   1   2
BRANCH   1  16
HETATM   16  O   UNK N   1      34.608  14.569   7.044  0.00  0.00    -0.386 OA
HETATM   17  H   UNK N   1      35.506  14.204   7.066  0.00  0.00     0.210 HD
ENDBRANCH   1  16
BRANCH   1  18
HETATM   18  C   UNK N   1      34.422  15.549   9.229  0.00  0.00    -0.024 A 
HETATM   19  C   UNK N   1      34.332  14.288   9.834  0.00  0.00     0.022 A 
HETATM   20  C   UNK N   1      34.834  14.095  11.127  0.00  0.00    -0.025 A 
HETATM   21  C   UNK N   1      35.434  15.172  11.817  0.00  0.00    -0.025 A 
HETATM   22  C   UNK N   1      34.812  12.826  11.709  0.00  0.00     0.013 A 
HETATM   23  C   UNK N   1      35.465  16.437  11.243  0.00  0.00     0.013 A 
HETATM   24  C   UNK N   1      36.045  14.958  13.051  0.00  0.00     0.030 A 
HETATM   25  C   UNK N   1      34.967  16.623   9.957  0.00  0.00     0.011 A 
HETATM   26  C   UNK N   1      36.067  13.678  13.613  0.00  0.00     0.038 A 
HETATM   27  C   UNK N   1      35.427  12.617  12.949  0.00  0.00     0.019 A 
BRANCH  26  28
HETATM   28  C   UNK N   1      36.816  13.438  14.862  0.00  0.00     0.176 C 
HETATM   29  O   UNK N   1      36.806  12.338  15.387  0.00  0.00    -0.646 OA
BRANCH  28  30
HETATM   30  O   UNK N   1      37.561  14.424  15.402  0.00  0.00    -0.773 OA
HETATM   31  H   UNK N   1      38.495  14.403  15.476  0.00  0.00     0.167 HD
ENDBRANCH  28  30
ENDBRANCH  26  28
ENDBRANCH   1  18
TORSDOF 5
ENDMDL
MODEL 7
REMARK VINA RESULT:      -8.3     12.069     17.240
REMARK  5 active torsions:
REMARK  status: ('A' for Active; 'I' for Inactive)
REMARK    1  A    between atoms: C_13  and  C_15 
REMARK    2  A    between atoms: C_15  and  O_16 
REMARK    3  A    between atoms: C_15  and  C_17 
REMARK    4  A    between atoms: C_24  and  C_27 
REMARK    5  A    between atoms: C_27  and  O_28 
ROOT
HETATM    1  C   UNK N   1      35.603   9.279  17.185  0.00  0.00     0.184 C 
ENDROOT
BRANCH   1   2
HETATM    2  C   UNK N   1      34.944   9.392  18.544  0.00  0.00    -0.025 A 
HETATM    3  C   UNK N   1      35.390  10.380  19.431  0.00  0.00     0.011 A 
HETATM    4  C   UNK N   1      34.923  10.425  20.737  0.00  0.00     0.009 A 
HETATM    5  C   UNK N   1      33.955   9.515  21.179  0.00  0.00    -0.043 A 
HETATM    6  C   UNK N   1      33.392   8.596  20.251  0.00  0.00    -0.043 A 
HETATM    7  C   UNK N   1      33.565   9.514  22.648  0.00  0.00    -0.020 C 
HETATM    8  C   UNK N   1      32.222   7.704  20.631  0.00  0.00    -0.020 C 
HETATM    9  C   UNK N   1      33.925   8.522  18.949  0.00  0.00     0.018 A 
HETATM   10  C   UNK N   1      31.622   8.078  21.986  0.00  0.00     0.015 C 
HETATM   11  C   UNK N   1      31.100   7.879  19.620  0.00  0.00     0.020 C 
HETATM   12  C   UNK N   1      32.651   6.246  20.628  0.00  0.00     0.020 C 
HETATM   13  C   UNK N   1      32.704   8.307  23.017  0.00  0.00     0.015 C 
HETATM   14  C   UNK N   1      32.853  10.806  23.006  0.00  0.00     0.020 C 
HETATM   15  C   UNK N   1      34.818   9.403  23.504  0.00  0.00     0.020 C 
ENDBRANCH   1   2
BRANCH   1  16
HETATM   16  O   UNK N   1      36.990   9.131  17.272  0.00  0.00    -0.386 OA
HETATM   17  H   UNK N   1      37.493   8.737  18.001  0.00  0.00     0.210 HD
ENDBRANCH   1  16
BRANCH   1  18
HETATM   18  C   UNK N   1      35.235  10.406  16.242  0.00  0.00    -0.024 A 
HETATM   19  C   UNK N   1      36.000  11.581  16.253  0.00  0.00     0.022 A 
HETATM   20  C   UNK N   1      35.844  12.527  15.232  0.00  0.00    -0.025 A 
HETATM   21  C   UNK N   1      34.916  12.294  14.191  0.00  0.00    -0.025 A 
HETATM   22  C   UNK N   1      36.651  13.666  15.197  0.00  0.00     0.013 A 
HETATM   23  C   UNK N   1      34.112  11.160  14.216  0.00  0.00     0.013 A 
HETATM   24  C   UNK N   1      34.845  13.169  13.110  0.00  0.00     0.030 A 
HETATM   25  C   UNK N   1      34.274  10.221  15.230  0.00  0.00     0.011 A 
HETATM   26  C   UNK N   1      35.687  14.284  13.049  0.00  0.00     0.038 A 
HETATM   27  C   UNK N   1      36.573  14.542  14.109  0.00  0.00     0.019 A 
BRANCH  26  28
HETATM   28  C   UNK N   1      35.685  15.140  11.847  0.00  0.00     0.176 C 
HETATM   29  O   UNK N   1      34.640  15.403  11.278  0.00  0.00    -0.646 OA
BRANCH  28  30
HETATM   30  O   UNK N   1      36.838  15.679  11.401  0.00  0.00    -0.773 OA
HETATM   31  H   UNK N   1      36.968  16.008  10.533  0.00  0.00     0.167 HD
ENDBRANCH  28  30
ENDBRANCH  26  28
ENDBRANCH   1  18
TORSDOF 5
ENDMDL
MODEL 8
REMARK VINA RESULT:      -8.3      2.568      9.150
REMARK  5 active torsions:
REMARK  status: ('A' for Active; 'I' for Inactive)
REMARK    1  A    between atoms: C_13  and  C_15 
REMARK    2  A    between atoms: C_15  and  O_16 
REMARK    3  A    between atoms: C_15  and  C_17 
REMARK    4  A    between atoms: C_24  and  C_27 
REMARK    5  A    between atoms: C_27  and  O_28 
ROOT
HETATM    1  C   UNK N   1      26.657  20.384   4.186  0.00  0.00     0.184 C 
ENDROOT
BRANCH   1   2
HETATM    2  C   UNK N   1      25.263  19.920   3.818  0.00  0.00    -0.025 A 
HETATM    3  C   UNK N   1      24.456  20.758   3.038  0.00  0.00     0.011 A 
HETATM    4  C   UNK N   1      23.125  20.443   2.804  0.00  0.00     0.009 A 
HETATM    5  C   UNK N   1      22.577  19.252   3.297  0.00  0.00    -0.043 A 
HETATM    6  C   UNK N   1      23.420  18.327   3.971  0.00  0.00    -0.043 A 
HETATM    7  C   UNK N   1      21.086  19.007   3.130  0.00  0.00    -0.020 C 
HETATM    8  C   UNK N   1      22.921  16.951   4.377  0.00  0.00    -0.020 C 
HETATM    9  C   UNK N   1      24.750  18.693   4.257  0.00  0.00     0.018 A 
HETATM   10  C   UNK N   1      21.547  16.633   3.785  0.00  0.00     0.015 C 
HETATM   11  C   UNK N   1      23.861  15.887   3.830  0.00  0.00     0.020 C 
HETATM   12  C   UNK N   1      22.885  16.831   5.891  0.00  0.00     0.020 C 
HETATM   13  C   UNK N   1      20.603  17.805   3.941  0.00  0.00     0.015 C 
HETATM   14  C   UNK N   1      20.741  18.832   1.662  0.00  0.00     0.020 C 
HETATM   15  C   UNK N   1      20.312  20.202   3.667  0.00  0.00     0.020 C 
ENDBRANCH   1   2
BRANCH   1  16
HETATM   16  O   UNK N   1      27.483  20.536   3.069  0.00  0.00    -0.386 OA
HETATM   17  H   UNK N   1      27.221  20.820   2.180  0.00  0.00     0.210 HD
ENDBRANCH   1  16
BRANCH   1  18
HETATM   18  C   UNK N   1      27.322  19.522   5.239  0.00  0.00    -0.024 A 
HETATM   19  C   UNK N   1      28.216  18.520   4.836  0.00  0.00     0.022 A 
HETATM   20  C   UNK N   1      29.027  17.883   5.783  0.00  0.00    -0.025 A 
HETATM   21  C   UNK N   1      28.943  18.254   7.145  0.00  0.00    -0.025 A 
HETATM   22  C   UNK N   1      29.969  16.935   5.381  0.00  0.00     0.013 A 
HETATM   23  C   UNK N   1      28.011  19.200   7.554  0.00  0.00     0.013 A 
HETATM   24  C   UNK N   1      29.832  17.713   8.071  0.00  0.00     0.030 A 
HETATM   25  C   UNK N   1      27.210  19.833   6.607  0.00  0.00     0.011 A 
HETATM   26  C   UNK N   1      30.809  16.800   7.661  0.00  0.00     0.038 A 
HETATM   27  C   UNK N   1      30.858  16.395   6.316  0.00  0.00     0.019 A 
BRANCH  26  28
HETATM   28  C   UNK N   1      31.817  16.323   8.627  0.00  0.00     0.176 C 
HETATM   29  O   UNK N   1      31.894  15.139   8.905  0.00  0.00    -0.646 OA
BRANCH  28  30
HETATM   30  O   UNK N   1      32.697  17.190   9.168  0.00  0.00    -0.773 OA
HETATM   31  H   UNK N   1      33.517  17.425   8.779  0.00  0.00     0.167 HD
ENDBRANCH  28  30
ENDBRANCH  26  28
ENDBRANCH   1  18
TORSDOF 5
ENDMDL
MODEL 9
REMARK VINA RESULT:      -8.2      1.231      2.760
REMARK  5 active torsions:
REMARK  status: ('A' for Active; 'I' for Inactive)
REMARK    1  A    between atoms: C_13  and  C_15 
REMARK    2  A    between atoms: C_15  and  O_16 
REMARK    3  A    between atoms: C_15  and  C_17 
REMARK    4  A    between atoms: C_24  and  C_27 
REMARK    5  A    between atoms: C_27  and  O_28 
ROOT
HETATM    1  C   UNK N   1      28.255  18.507   6.164  0.00  0.00     0.184 C 
ENDROOT
BRANCH   1   2
HETATM    2  C   UNK N   1      29.205  17.420   5.706  0.00  0.00    -0.025 A 
HETATM    3  C   UNK N   1      30.526  17.436   6.171  0.00  0.00     0.011 A 
HETATM    4  C   UNK N   1      31.468  16.552   5.664  0.00  0.00     0.009 A 
HETATM    5  C   UNK N   1      31.103  15.590   4.715  0.00  0.00    -0.043 A 
HETATM    6  C   UNK N   1      29.738  15.471   4.337  0.00  0.00    -0.043 A 
HETATM    7  C   UNK N   1      32.188  14.728   4.089  0.00  0.00    -0.020 C 
HETATM    8  C   UNK N   1      29.259  14.339   3.443  0.00  0.00    -0.020 C 
HETATM    9  C   UNK N   1      28.809  16.418   4.812  0.00  0.00     0.018 A 
HETATM   10  C   UNK N   1      30.339  13.280   3.218  0.00  0.00     0.015 C 
HETATM   11  C   UNK N   1      28.104  13.613   4.116  0.00  0.00     0.020 C 
HETATM   12  C   UNK N   1      28.773  14.889   2.113  0.00  0.00     0.020 C 
HETATM   13  C   UNK N   1      31.671  13.921   2.899  0.00  0.00     0.015 C 
HETATM   14  C   UNK N   1      32.799  13.809   5.131  0.00  0.00     0.020 C 
HETATM   15  C   UNK N   1      33.287  15.622   3.533  0.00  0.00     0.020 C 
ENDBRANCH   1   2
BRANCH   1  16
HETATM   16  O   UNK N   1      27.664  18.218   7.398  0.00  0.00    -0.386 OA
HETATM   17  H   UNK N   1      27.888  17.491   7.999  0.00  0.00     0.210 HD
ENDBRANCH   1  16
BRANCH   1  18
HETATM   18  C   UNK N   1      27.207  18.867   5.131  0.00  0.00    -0.024 A 
HETATM   19  C   UNK N   1      25.926  18.308   5.236  0.00  0.00     0.022 A 
HETATM   20  C   UNK N   1      24.877  18.810   4.455  0.00  0.00    -0.025 A 
HETATM   21  C   UNK N   1      25.114  19.881   3.564  0.00  0.00    -0.025 A 
HETATM   22  C   UNK N   1      23.584  18.306   4.605  0.00  0.00     0.013 A 
HETATM   23  C   UNK N   1      26.397  20.391   3.412  0.00  0.00     0.013 A 
HETATM   24  C   UNK N   1      24.051  20.465   2.877  0.00  0.00     0.030 A 
HETATM   25  C   UNK N   1      27.435  19.892   4.194  0.00  0.00     0.011 A 
HETATM   26  C   UNK N   1      22.748  19.994   3.063  0.00  0.00     0.038 A 
HETATM   27  C   UNK N   1      22.522  18.897   3.912  0.00  0.00     0.019 A 
BRANCH  26  28
HETATM   28  C   UNK N   1      21.618  20.692   2.422  0.00  0.00     0.176 C 
HETATM   29  O   UNK N   1      21.482  20.666   1.211  0.00  0.00    -0.646 OA
BRANCH  28  30
HETATM   30  O   UNK N   1      20.696  21.321   3.179  0.00  0.00    -0.773 OA
HETATM   31  H   UNK N   1      19.886  21.663   2.854  0.00  0.00     0.167 HD
ENDBRANCH  28  30
ENDBRANCH  26  28
ENDBRANCH   1  18
TORSDOF 5
ENDMDL
