MODEL 1
REMARK VINA RESULT:      -6.0      0.000      0.000
REMARK  4 active torsions:
REMARK  status: ('A' for Active; 'I' for Inactive)
REMARK    1  A    between atoms: O_1  and  C_2 
REMARK    2  A    between atoms: C_3  and  N_14 
REMARK    3  A    between atoms: C_5  and  N_11 
REMARK    4  A    between atoms: C_7  and  N_8 
ROOT
HETATM    1  C   UNK N   1      34.941  16.541   9.823  0.00  0.00     0.132 A 
HETATM    2  C   UNK N   1      34.698  15.275  10.422  0.00  0.00     0.140 A 
HETATM    3  C   UNK N   1      33.959  14.320   9.718  0.00  0.00     0.075 A 
HETATM    4  C   UNK N   1      33.458  14.583   8.445  0.00  0.00     0.107 A 
HETATM    5  C   UNK N   1      33.698  15.826   7.858  0.00  0.00     0.075 A 
HETATM    6  C   UNK N   1      34.432  16.816   8.524  0.00  0.00     0.140 A 
ENDROOT
BRANCH   2   7
HETATM    7  N   UNK N   1      35.178  14.929  11.723  0.00  0.00    -0.113 N 
HETATM    8  O   UNK N   1      34.546  14.019  12.435  0.00  0.00    -0.532 OA
HETATM    9  O   UNK N   1      36.149  15.454  12.181  0.00  0.00    -0.532 OA
ENDBRANCH   2   7
BRANCH   1  10
HETATM   10  O   UNK N   1      35.650  17.476  10.483  0.00  0.00    -0.356 OA
HETATM   11  H   UNK N   1      36.226  17.223  11.178  0.00  0.00     0.218 HD
ENDBRANCH   1  10
BRANCH   6  12
HETATM   12  N   UNK N   1      34.642  18.070   7.866  0.00  0.00    -0.113 N 
HETATM   13  O   UNK N   1      35.173  19.090   8.502  0.00  0.00    -0.532 OA
HETATM   14  O   UNK N   1      34.331  18.199   6.718  0.00  0.00    -0.532 OA
ENDBRANCH   6  12
BRANCH   4  15
HETATM   15  N   UNK N   1      32.711  13.591   7.756  0.00  0.00    -0.116 N 
HETATM   16  O   UNK N   1      32.855  12.321   8.067  0.00  0.00    -0.532 OA
HETATM   17  O   UNK N   1      31.949  13.903   6.891  0.00  0.00    -0.532 OA
ENDBRANCH   4  15
TORSDOF 4
ENDMDL
MODEL 2
REMARK VINA RESULT:      -5.9      0.064      3.930
REMARK  4 active torsions:
REMARK  status: ('A' for Active; 'I' for Inactive)
REMARK    1  A    between atoms: O_1  and  C_2 
REMARK    2  A    between atoms: C_3  and  N_14 
REMARK    3  A    between atoms: C_5  and  N_11 
REMARK    4  A    between atoms: C_7  and  N_8 
ROOT
HETATM    1  C   UNK N   1      34.941  16.528   9.806  0.00  0.00     0.132 A 
HETATM    2  C   UNK N   1      34.432  16.800   8.506  0.00  0.00     0.140 A 
HETATM    3  C   UNK N   1      33.706  15.808   7.839  0.00  0.00     0.075 A 
HETATM    4  C   UNK N   1      33.473  14.564   8.420  0.00  0.00     0.107 A 
HETATM    5  C   UNK N   1      33.973  14.299   9.695  0.00  0.00     0.075 A 
HETATM    6  C   UNK N   1      34.706  15.260  10.404  0.00  0.00     0.140 A 
ENDROOT
BRANCH   2   7
HETATM    7  N   UNK N   1      34.629  18.051   7.843  0.00  0.00    -0.113 N 
HETATM    8  O   UNK N   1      35.159  19.063   8.498  0.00  0.00    -0.532 OA
HETATM    9  O   UNK N   1      34.319  18.197   6.699  0.00  0.00    -0.532 OA
ENDBRANCH   2   7
BRANCH   1  10
HETATM   10  O   UNK N   1      35.643  17.469  10.466  0.00  0.00    -0.356 OA
HETATM   11  H   UNK N   1      36.093  18.138   9.989  0.00  0.00     0.218 HD
ENDBRANCH   1  10
BRANCH   6  12
HETATM   12  N   UNK N   1      35.191  14.924  11.708  0.00  0.00    -0.113 N 
HETATM   13  O   UNK N   1      34.551  14.066  12.471  0.00  0.00    -0.532 OA
HETATM   14  O   UNK N   1      36.195  15.429  12.117  0.00  0.00    -0.532 OA
ENDBRANCH   6  12
BRANCH   4  15
HETATM   15  N   UNK N   1      32.732  13.579   7.715  0.00  0.00    -0.116 N 
HETATM   16  O   UNK N   1      31.848  13.938   6.810  0.00  0.00    -0.532 OA
HETATM   17  O   UNK N   1      32.906  12.418   7.941  0.00  0.00    -0.532 OA
ENDBRANCH   4  15
TORSDOF 4
ENDMDL
MODEL 3
REMARK VINA RESULT:      -5.9      3.243      5.390
REMARK  4 active torsions:
REMARK  status: ('A' for Active; 'I' for Inactive)
REMARK    1  A    between atoms: O_1  and  C_2 
REMARK    2  A    between atoms: C_3  and  N_14 
REMARK    3  A    between atoms: C_5  and  N_11 
REMARK    4  A    between atoms: C_7  and  N_8 
ROOT
HETATM    1  C   UNK N   1      33.426  17.461   6.630  0.00  0.00     0.132 A 
HETATM    2  C   UNK N   1      32.189  17.144   6.004  0.00  0.00     0.140 A 
HETATM    3  C   UNK N   1      31.004  17.269   6.738  0.00  0.00     0.075 A 
HETATM    4  C   UNK N   1      31.013  17.695   8.064  0.00  0.00     0.107 A 
HETATM    5  C   UNK N   1      32.227  18.005   8.676  0.00  0.00     0.075 A 
HETATM    6  C   UNK N   1      33.441  17.897   7.984  0.00  0.00     0.140 A 
ENDROOT
BRANCH   2   7
HETATM    7  N   UNK N   1      32.098  16.700   4.649  0.00  0.00    -0.113 N 
HETATM    8  O   UNK N   1      32.739  17.352   3.701  0.00  0.00    -0.532 OA
HETATM    9  O   UNK N   1      31.446  15.743   4.357  0.00  0.00    -0.532 OA
ENDBRANCH   2   7
BRANCH   1  10
HETATM   10  O   UNK N   1      34.578  17.348   5.943  0.00  0.00    -0.356 OA
HETATM   11  H   UNK N   1      35.367  17.106   6.388  0.00  0.00     0.218 HD
ENDBRANCH   1  10
BRANCH   6  12
HETATM   12  N   UNK N   1      34.652  18.230   8.670  0.00  0.00    -0.113 N 
HETATM   13  O   UNK N   1      35.118  17.468   9.634  0.00  0.00    -0.532 OA
HETATM   14  O   UNK N   1      35.254  19.218   8.367  0.00  0.00    -0.532 OA
ENDBRANCH   6  12
BRANCH   4  15
HETATM   15  N   UNK N   1      29.792  17.811   8.780  0.00  0.00    -0.116 N 
HETATM   16  O   UNK N   1      29.731  18.548   9.868  0.00  0.00    -0.532 OA
HETATM   17  O   UNK N   1      28.813  17.241   8.400  0.00  0.00    -0.532 OA
ENDBRANCH   4  15
TORSDOF 4
ENDMDL
MODEL 4
REMARK VINA RESULT:      -5.9      3.245      4.692
REMARK  4 active torsions:
REMARK  status: ('A' for Active; 'I' for Inactive)
REMARK    1  A    between atoms: O_1  and  C_2 
REMARK    2  A    between atoms: C_3  and  N_14 
REMARK    3  A    between atoms: C_5  and  N_11 
REMARK    4  A    between atoms: C_7  and  N_8 
ROOT
HETATM    1  C   UNK N   1      33.395  17.473   6.625  0.00  0.00     0.132 A 
HETATM    2  C   UNK N   1      33.431  17.915   7.976  0.00  0.00     0.140 A 
HETATM    3  C   UNK N   1      32.231  18.031   8.685  0.00  0.00     0.075 A 
HETATM    4  C   UNK N   1      31.007  17.724   8.096  0.00  0.00     0.107 A 
HETATM    5  C   UNK N   1      30.974  17.291   6.771  0.00  0.00     0.075 A 
HETATM    6  C   UNK N   1      32.149  17.158   6.018  0.00  0.00     0.140 A 
ENDROOT
BRANCH   2   7
HETATM    7  N   UNK N   1      34.646  18.249   8.650  0.00  0.00    -0.113 N 
HETATM    8  O   UNK N   1      35.100  17.468   9.608  0.00  0.00    -0.532 OA
HETATM    9  O   UNK N   1      35.262  19.230   8.359  0.00  0.00    -0.532 OA
ENDBRANCH   2   7
BRANCH   1  10
HETATM   10  O   UNK N   1      34.538  17.355   5.924  0.00  0.00    -0.356 OA
HETATM   11  H   UNK N   1      35.352  17.622   6.305  0.00  0.00     0.218 HD
ENDBRANCH   1  10
BRANCH   6  12
HETATM   12  N   UNK N   1      32.046  16.709   4.663  0.00  0.00    -0.113 N 
HETATM   13  O   UNK N   1      32.591  17.389   3.679  0.00  0.00    -0.532 OA
HETATM   14  O   UNK N   1      31.455  15.699   4.415  0.00  0.00    -0.532 OA
ENDBRANCH   6  12
BRANCH   4  15
HETATM   15  N   UNK N   1      29.806  17.852   8.844  0.00  0.00    -0.116 N 
HETATM   16  O   UNK N   1      28.717  17.224   8.460  0.00  0.00    -0.532 OA
HETATM   17  O   UNK N   1      29.779  18.532   9.827  0.00  0.00    -0.532 OA
ENDBRANCH   4  15
TORSDOF 4
ENDMDL
MODEL 5
REMARK VINA RESULT:      -5.8     13.618     15.422
REMARK  4 active torsions:
REMARK  status: ('A' for Active; 'I' for Inactive)
REMARK    1  A    between atoms: O_1  and  C_2 
REMARK    2  A    between atoms: C_3  and  N_14 
REMARK    3  A    between atoms: C_5  and  N_11 
REMARK    4  A    between atoms: C_7  and  N_8 
ROOT
HETATM    1  C   UNK N   1      20.710  18.505   1.912  0.00  0.00     0.132 A 
HETATM    2  C   UNK N   1      20.537  17.217   2.489  0.00  0.00     0.140 A 
HETATM    3  C   UNK N   1      20.768  17.049   3.858  0.00  0.00     0.075 A 
HETATM    4  C   UNK N   1      21.164  18.113   4.664  0.00  0.00     0.107 A 
HETATM    5  C   UNK N   1      21.334  19.376   4.096  0.00  0.00     0.075 A 
HETATM    6  C   UNK N   1      21.115  19.596   2.730  0.00  0.00     0.140 A 
ENDROOT
BRANCH   2   7
HETATM    7  N   UNK N   1      20.133  16.076   1.730  0.00  0.00    -0.113 N 
HETATM    8  O   UNK N   1      20.452  15.991   0.455  0.00  0.00    -0.532 OA
HETATM    9  O   UNK N   1      19.506  15.192   2.232  0.00  0.00    -0.532 OA
ENDBRANCH   2   7
BRANCH   1  10
HETATM   10  O   UNK N   1      20.493  18.690   0.596  0.00  0.00    -0.356 OA
HETATM   11  H   UNK N   1      21.046  19.267   0.107  0.00  0.00     0.218 HD
ENDBRANCH   1  10
BRANCH   6  12
HETATM   12  N   UNK N   1      21.307  20.915   2.210  0.00  0.00    -0.113 N 
HETATM   13  O   UNK N   1      20.605  21.352   1.188  0.00  0.00    -0.532 OA
HETATM   14  O   UNK N   1      22.118  21.639   2.709  0.00  0.00    -0.532 OA
ENDBRANCH   6  12
BRANCH   4  15
HETATM   15  N   UNK N   1      21.391  17.908   6.051  0.00  0.00    -0.116 N 
HETATM   16  O   UNK N   1      22.038  16.841   6.465  0.00  0.00    -0.532 OA
HETATM   17  O   UNK N   1      20.996  18.704   6.850  0.00  0.00    -0.532 OA
ENDBRANCH   4  15
TORSDOF 4
ENDMDL
MODEL 6
REMARK VINA RESULT:      -5.8     13.688     15.626
REMARK  4 active torsions:
REMARK  status: ('A' for Active; 'I' for Inactive)
REMARK    1  A    between atoms: O_1  and  C_2 
REMARK    2  A    between atoms: C_3  and  N_14 
REMARK    3  A    between atoms: C_5  and  N_11 
REMARK    4  A    between atoms: C_7  and  N_8 
ROOT
HETATM    1  C   UNK N   1      20.732  18.475   1.926  0.00  0.00     0.132 A 
HETATM    2  C   UNK N   1      21.110  19.557   2.768  0.00  0.00     0.140 A 
HETATM    3  C   UNK N   1      21.312  19.319   4.132  0.00  0.00     0.075 A 
HETATM    4  C   UNK N   1      21.151  18.049   4.679  0.00  0.00     0.107 A 
HETATM    5  C   UNK N   1      20.781  16.989   3.851  0.00  0.00     0.075 A 
HETATM    6  C   UNK N   1      20.567  17.176   2.479  0.00  0.00     0.140 A 
ENDROOT
BRANCH   2   7
HETATM    7  N   UNK N   1      21.294  20.888   2.283  0.00  0.00    -0.113 N 
HETATM    8  O   UNK N   1      22.220  21.658   2.816  0.00  0.00    -0.532 OA
HETATM    9  O   UNK N   1      20.620  21.319   1.396  0.00  0.00    -0.532 OA
ENDBRANCH   2   7
BRANCH   1  10
HETATM   10  O   UNK N   1      20.532  18.681   0.611  0.00  0.00    -0.356 OA
HETATM   11  H   UNK N   1      19.913  18.156   0.143  0.00  0.00     0.218 HD
ENDBRANCH   1  10
BRANCH   6  12
HETATM   12  N   UNK N   1      20.188  16.046   1.686  0.00  0.00    -0.113 N 
HETATM   13  O   UNK N   1      19.481  15.063   2.198  0.00  0.00    -0.532 OA
HETATM   14  O   UNK N   1      20.518  15.988   0.538  0.00  0.00    -0.532 OA
ENDBRANCH   6  12
BRANCH   4  15
HETATM   15  N   UNK N   1      21.364  17.841   6.067  0.00  0.00    -0.116 N 
HETATM   16  O   UNK N   1      21.013  18.764   6.936  0.00  0.00    -0.532 OA
HETATM   17  O   UNK N   1      21.863  16.827   6.456  0.00  0.00    -0.532 OA
ENDBRANCH   4  15
TORSDOF 4
ENDMDL
MODEL 7
REMARK VINA RESULT:      -5.8      3.265      5.942
REMARK  4 active torsions:
REMARK  status: ('A' for Active; 'I' for Inactive)
REMARK    1  A    between atoms: O_1  and  C_2 
REMARK    2  A    between atoms: C_3  and  N_14 
REMARK    3  A    between atoms: C_5  and  N_11 
REMARK    4  A    between atoms: C_7  and  N_8 
ROOT
HETATM    1  C   UNK N   1      31.638  16.964   6.199  0.00  0.00     0.132 A 
HETATM    2  C   UNK N   1      32.976  16.952   5.718  0.00  0.00     0.140 A 
HETATM    3  C   UNK N   1      34.005  17.392   6.557  0.00  0.00     0.075 A 
HETATM    4  C   UNK N   1      33.745  17.840   7.850  0.00  0.00     0.107 A 
HETATM    5  C   UNK N   1      32.432  17.851   8.321  0.00  0.00     0.075 A 
HETATM    6  C   UNK N   1      31.367  17.420   7.519  0.00  0.00     0.140 A 
ENDROOT
BRANCH   2   7
HETATM    7  N   UNK N   1      33.322  16.508   4.404  0.00  0.00    -0.113 N 
HETATM    8  O   UNK N   1      34.095  15.452   4.252  0.00  0.00    -0.532 OA
HETATM    9  O   UNK N   1      32.921  17.079   3.435  0.00  0.00    -0.532 OA
ENDBRANCH   2   7
BRANCH   1  10
HETATM   10  O   UNK N   1      30.632  16.544   5.409  0.00  0.00    -0.356 OA
HETATM   11  H   UNK N   1      29.750  16.796   5.600  0.00  0.00     0.218 HD
ENDBRANCH   1  10
BRANCH   6  12
HETATM   12  N   UNK N   1      30.044  17.456   8.062  0.00  0.00    -0.113 N 
HETATM   13  O   UNK N   1      29.036  17.930   7.365  0.00  0.00    -0.532 OA
HETATM   14  O   UNK N   1      29.844  17.050   9.169  0.00  0.00    -0.532 OA
ENDBRANCH   6  12
BRANCH   4  15
HETATM   15  N   UNK N   1      34.813  18.281   8.676  0.00  0.00    -0.116 N 
HETATM   16  O   UNK N   1      35.222  17.537   9.681  0.00  0.00    -0.532 OA
HETATM   17  O   UNK N   1      35.346  19.329   8.464  0.00  0.00    -0.532 OA
ENDBRANCH   4  15
TORSDOF 4
ENDMDL
MODEL 8
REMARK VINA RESULT:      -5.5      3.952      6.414
REMARK  4 active torsions:
REMARK  status: ('A' for Active; 'I' for Inactive)
REMARK    1  A    between atoms: O_1  and  C_2 
REMARK    2  A    between atoms: C_3  and  N_14 
REMARK    3  A    between atoms: C_5  and  N_11 
REMARK    4  A    between atoms: C_7  and  N_8 
ROOT
HETATM    1  C   UNK N   1      29.700  17.182   7.209  0.00  0.00     0.132 A 
HETATM    2  C   UNK N   1      30.636  16.901   6.175  0.00  0.00     0.140 A 
HETATM    3  C   UNK N   1      31.995  17.136   6.406  0.00  0.00     0.075 A 
HETATM    4  C   UNK N   1      32.449  17.637   7.624  0.00  0.00     0.107 A 
HETATM    5  C   UNK N   1      31.529  17.912   8.637  0.00  0.00     0.075 A 
HETATM    6  C   UNK N   1      30.157  17.694   8.454  0.00  0.00     0.140 A 
ENDROOT
BRANCH   2   7
HETATM    7  N   UNK N   1      30.249  16.386   4.900  0.00  0.00    -0.113 N 
HETATM    8  O   UNK N   1      29.381  15.398   4.827  0.00  0.00    -0.532 OA
HETATM    9  O   UNK N   1      30.701  16.838   3.890  0.00  0.00    -0.532 OA
ENDBRANCH   2   7
BRANCH   1  10
HETATM   10  O   UNK N   1      28.387  16.963   7.008  0.00  0.00    -0.356 OA
HETATM   11  H   UNK N   1      27.753  17.385   7.555  0.00  0.00     0.218 HD
ENDBRANCH   1  10
BRANCH   6  12
HETATM   12  N   UNK N   1      29.267  17.996   9.534  0.00  0.00    -0.113 N 
HETATM   13  O   UNK N   1      28.127  17.357   9.673  0.00  0.00    -0.532 OA
HETATM   14  O   UNK N   1      29.559  18.843  10.326  0.00  0.00    -0.532 OA
ENDBRANCH   6  12
BRANCH   4  15
HETATM   15  N   UNK N   1      33.836  17.865   7.826  0.00  0.00    -0.116 N 
HETATM   16  O   UNK N   1      34.352  17.775   9.033  0.00  0.00    -0.532 OA
HETATM   17  O   UNK N   1      34.543  18.139   6.903  0.00  0.00    -0.532 OA
ENDBRANCH   4  15
TORSDOF 4
ENDMDL
MODEL 9
REMARK VINA RESULT:      -5.4     12.748     14.440
REMARK  4 active torsions:
REMARK  status: ('A' for Active; 'I' for Inactive)
REMARK    1  A    between atoms: O_1  and  C_2 
REMARK    2  A    between atoms: C_3  and  N_14 
REMARK    3  A    between atoms: C_5  and  N_11 
REMARK    4  A    between atoms: C_7  and  N_8 
ROOT
HETATM    1  C   UNK N   1      19.869  15.186   8.942  0.00  0.00     0.132 A 
HETATM    2  C   UNK N   1      21.071  14.815   8.280  0.00  0.00     0.140 A 
HETATM    3  C   UNK N   1      21.660  15.714   7.384  0.00  0.00     0.075 A 
HETATM    4  C   UNK N   1      21.093  16.960   7.129  0.00  0.00     0.107 A 
HETATM    5  C   UNK N   1      19.914  17.323   7.780  0.00  0.00     0.075 A 
HETATM    6  C   UNK N   1      19.286  16.457   8.685  0.00  0.00     0.140 A 
ENDROOT
BRANCH   2   7
HETATM    7  N   UNK N   1      21.713  13.555   8.488  0.00  0.00    -0.113 N 
HETATM    8  O   UNK N   1      21.059  12.438   8.244  0.00  0.00    -0.532 OA
HETATM    9  O   UNK N   1      22.839  13.495   8.882  0.00  0.00    -0.532 OA
ENDBRANCH   2   7
BRANCH   1  10
HETATM   10  O   UNK N   1      19.285  14.336   9.808  0.00  0.00    -0.356 OA
HETATM   11  H   UNK N   1      18.396  14.473  10.071  0.00  0.00     0.218 HD
ENDBRANCH   1  10
BRANCH   6  12
HETATM   12  N   UNK N   1      18.078  16.890   9.319  0.00  0.00    -0.113 N 
HETATM   13  O   UNK N   1      18.039  18.001  10.021  0.00  0.00    -0.532 OA
HETATM   14  O   UNK N   1      17.083  16.235   9.213  0.00  0.00    -0.532 OA
ENDBRANCH   6  12
BRANCH   4  15
HETATM   15  N   UNK N   1      21.716  17.850   6.214  0.00  0.00    -0.116 N 
HETATM   16  O   UNK N   1      21.147  18.997   5.915  0.00  0.00    -0.532 OA
HETATM   17  O   UNK N   1      22.761  17.561   5.709  0.00  0.00    -0.532 OA
ENDBRANCH   4  15
TORSDOF 4
ENDMDL
