MODEL 1
REMARK VINA RESULT:      -6.4      0.000      0.000
REMARK  5 active torsions:
REMARK  status: ('A' for Active; 'I' for Inactive)
REMARK       I    between atoms: N_1  and  C_2 
REMARK    1  A    between atoms: C_9  and  C_10 
REMARK    2  A    between atoms: C_10  and  O_11 
REMARK    3  A    between atoms: O_11  and  P_12 
REMARK    4  A    between atoms: P_12  and  O_13 
REMARK    5  A    between atoms: P_12  and  O_14 
ROOT
HETATM    1  N   UNK N   1      20.395  20.977   0.496  0.00  0.00    -0.234 N 
HETATM    2  C   UNK N   1      20.689  20.165   1.609  0.00  0.00     0.680 A 
HETATM    3  N   UNK N   1      19.830  19.173   1.969  0.00  0.00    -0.174 N 
ATOM      4  HN  UNK N   1      18.965  19.041   1.445  1.00  0.00     0.186 HD
HETATM    5  C   UNK N   1      20.109  18.358   3.019  0.00  0.00     0.153 A 
HETATM    6  N   UNK N   1      19.252  17.364   3.364  0.00  0.00    -0.348 N 
ATOM      7  HN  UNK N   1      18.378  17.249   2.849  1.00  0.00     0.167 HD
HETATM    8  C   UNK N   1      19.544  16.519   4.388  0.00  0.00     0.117 A 
HETATM    9  C   UNK N   1      20.739  16.673   5.097  0.00  0.00     0.050 A 
HETATM   10  N   UNK N   1      21.593  17.683   4.767  0.00  0.00    -0.349 N 
ATOM     11  HN  UNK N   1      22.460  17.802   5.291  1.00  0.00     0.166 HD
HETATM   12  C   UNK N   1      21.299  18.531   3.746  0.00  0.00     0.147 A 
HETATM   13  C   UNK N   1      22.160  19.568   3.378  0.00  0.00     0.290 A 
HETATM   14  O   UNK N   1      23.195  19.762   3.991  0.00  0.00    -0.265 OA
HETATM   15  N   UNK N   1      21.837  20.366   2.311  0.00  0.00    -0.154 N 
HETATM   16  H   UNK N   1      19.629  20.761  -0.083  0.00  0.00     0.174 HD
HETATM   17  H   UNK N   1      20.957  21.760   0.297  0.00  0.00     0.174 HD
HETATM   18  H   UNK N   1      22.446  21.094   2.048  0.00  0.00     0.187 HD
ENDROOT
BRANCH   9  19
HETATM   19  C   UNK N   1      21.104  15.679   6.143  0.00  0.00     0.239 C 
BRANCH  19  20
HETATM   20  O   UNK N   1      19.972  15.162   6.776  0.00  0.00    -0.291 OA
BRANCH  20  21
HETATM   21  P   UNK N   1      20.414  15.113   8.459  0.00  0.00     0.391 P 
HETATM   22  O   UNK N   1      20.271  13.608   8.104  0.00  0.00    -0.632 OA
BRANCH  21  23
HETATM   23  O   UNK N   1      19.277  14.530   9.633  0.00  0.00    -0.307 OA
HETATM   24  H   UNK N   1      18.734  13.738   9.505  0.00  0.00     0.222 HD
ENDBRANCH  21  23
BRANCH  21  25
HETATM   25  O   UNK N   1      18.894  15.932   8.283  0.00  0.00    -0.307 OA
HETATM   26  H   UNK N   1      18.694  16.782   7.862  0.00  0.00     0.222 HD
ENDBRANCH  21  25
ENDBRANCH  20  21
ENDBRANCH  19  20
ENDBRANCH   9  19
TORSDOF 5
ENDMDL
MODEL 2
REMARK VINA RESULT:      -6.4     11.203     12.623
REMARK  5 active torsions:
REMARK  status: ('A' for Active; 'I' for Inactive)
REMARK       I    between atoms: N_1  and  C_2 
REMARK    1  A    between atoms: C_9  and  C_10 
REMARK    2  A    between atoms: C_10  and  O_11 
REMARK    3  A    between atoms: O_11  and  P_12 
REMARK    4  A    between atoms: P_12  and  O_13 
REMARK    5  A    between atoms: P_12  and  O_14 
ROOT
HETATM    1  N   UNK N   1      26.598  17.064   6.622  0.00  0.00    -0.234 N 
HETATM    2  C   UNK N   1      27.858  17.183   7.240  0.00  0.00     0.680 A 
HETATM    3  N   UNK N   1      28.958  16.649   6.644  0.00  0.00    -0.174 N 
ATOM      4  HN  UNK N   1      28.859  16.143   5.764  1.00  0.00     0.186 HD
HETATM    5  C   UNK N   1      30.187  16.780   7.206  0.00  0.00     0.153 A 
HETATM    6  N   UNK N   1      31.281  16.253   6.598  0.00  0.00    -0.348 N 
ATOM      7  HN  UNK N   1      31.173  15.731   5.728  1.00  0.00     0.167 HD
HETATM    8  C   UNK N   1      32.519  16.416   7.135  0.00  0.00     0.117 A 
HETATM    9  C   UNK N   1      32.672  17.129   8.327  0.00  0.00     0.050 A 
HETATM   10  N   UNK N   1      31.575  17.642   8.952  0.00  0.00    -0.349 N 
ATOM     11  HN  UNK N   1      31.684  18.154   9.827  1.00  0.00     0.166 HD
HETATM   12  C   UNK N   1      30.335  17.476   8.418  0.00  0.00     0.147 A 
HETATM   13  C   UNK N   1      29.193  17.999   9.030  0.00  0.00     0.290 A 
HETATM   14  O   UNK N   1      29.274  18.597  10.088  0.00  0.00    -0.265 OA
HETATM   15  N   UNK N   1      27.973  17.843   8.425  0.00  0.00    -0.154 N 
HETATM   16  H   UNK N   1      26.529  16.692   5.713  0.00  0.00     0.174 HD
HETATM   17  H   UNK N   1      25.787  17.353   7.098  0.00  0.00     0.174 HD
HETATM   18  H   UNK N   1      27.168  18.215   8.852  0.00  0.00     0.187 HD
ENDROOT
BRANCH   9  19
HETATM   19  C   UNK N   1      34.040  17.398   8.851  0.00  0.00     0.239 C 
BRANCH  19  20
HETATM   20  O   UNK N   1      34.823  16.242   8.852  0.00  0.00    -0.291 OA
BRANCH  20  21
HETATM   21  P   UNK N   1      35.262  16.031  10.524  0.00  0.00     0.391 P 
HETATM   22  O   UNK N   1      35.668  17.505  10.251  0.00  0.00    -0.632 OA
BRANCH  21  23
HETATM   23  O   UNK N   1      36.932  16.079  10.990  0.00  0.00    -0.307 OA
HETATM   24  H   UNK N   1      37.665  15.927  10.374  0.00  0.00     0.222 HD
ENDBRANCH  21  23
BRANCH  21  25
HETATM   25  O   UNK N   1      36.193  14.946   9.540  0.00  0.00    -0.307 OA
HETATM   26  H   UNK N   1      36.973  14.418   9.769  0.00  0.00     0.222 HD
ENDBRANCH  21  25
ENDBRANCH  20  21
ENDBRANCH  19  20
ENDBRANCH   9  19
TORSDOF 5
ENDMDL
MODEL 3
REMARK VINA RESULT:      -6.3     12.677     14.339
REMARK  5 active torsions:
REMARK  status: ('A' for Active; 'I' for Inactive)
REMARK       I    between atoms: N_1  and  C_2 
REMARK    1  A    between atoms: C_9  and  C_10 
REMARK    2  A    between atoms: C_10  and  O_11 
REMARK    3  A    between atoms: O_11  and  P_12 
REMARK    4  A    between atoms: P_12  and  O_13 
REMARK    5  A    between atoms: P_12  and  O_14 
ROOT
HETATM    1  N   UNK N   1      36.727  13.463  12.276  0.00  0.00    -0.234 N 
HETATM    2  C   UNK N   1      35.933  14.336  11.508  0.00  0.00     0.680 A 
HETATM    3  N   UNK N   1      34.769  13.890  10.962  0.00  0.00    -0.174 N 
ATOM      4  HN  UNK N   1      34.492  12.917  11.092  1.00  0.00     0.186 HD
HETATM    5  C   UNK N   1      33.973  14.723  10.245  0.00  0.00     0.153 A 
HETATM    6  N   UNK N   1      32.808  14.272   9.714  0.00  0.00    -0.348 N 
ATOM      7  HN  UNK N   1      32.545  13.293   9.830  1.00  0.00     0.167 HD
HETATM    8  C   UNK N   1      31.986  15.111   9.029  0.00  0.00     0.117 A 
HETATM    9  C   UNK N   1      32.341  16.453   8.867  0.00  0.00     0.050 A 
HETATM   10  N   UNK N   1      33.519  16.906   9.381  0.00  0.00    -0.349 N 
ATOM     11  HN  UNK N   1      33.784  17.882   9.254  1.00  0.00     0.166 HD
HETATM   12  C   UNK N   1      34.344  16.066  10.061  0.00  0.00     0.147 A 
HETATM   13  C   UNK N   1      35.553  16.504  10.609  0.00  0.00     0.290 A 
HETATM   14  O   UNK N   1      35.920  17.656  10.462  0.00  0.00    -0.265 OA
HETATM   15  N   UNK N   1      36.325  15.627  11.326  0.00  0.00    -0.154 N 
HETATM   16  H   UNK N   1      36.392  12.567  12.508  0.00  0.00     0.174 HD
HETATM   17  H   UNK N   1      37.618  13.748  12.582  0.00  0.00     0.174 HD
HETATM   18  H   UNK N   1      37.175  15.935  11.716  0.00  0.00     0.187 HD
ENDROOT
BRANCH   9  19
HETATM   19  C   UNK N   1      31.386  17.391   8.213  0.00  0.00     0.239 C 
BRANCH  19  20
HETATM   20  O   UNK N   1      30.067  16.953   8.346  0.00  0.00    -0.291 OA
BRANCH  20  21
HETATM   21  P   UNK N   1      29.267  18.263   9.167  0.00  0.00     0.391 P 
HETATM   22  O   UNK N   1      29.027  17.067  10.127  0.00  0.00    -0.632 OA
BRANCH  21  23
HETATM   23  O   UNK N   1      27.543  18.240   9.354  0.00  0.00    -0.307 OA
HETATM   24  H   UNK N   1      27.071  17.587   9.893  0.00  0.00     0.222 HD
ENDBRANCH  21  23
BRANCH  21  25
HETATM   25  O   UNK N   1      28.500  17.986   7.636  0.00  0.00    -0.307 OA
HETATM   26  H   UNK N   1      28.573  17.228   7.035  0.00  0.00     0.222 HD
ENDBRANCH  21  25
ENDBRANCH  20  21
ENDBRANCH  19  20
ENDBRANCH   9  19
TORSDOF 5
ENDMDL
MODEL 4
REMARK VINA RESULT:      -6.1     16.271     18.215
REMARK  5 active torsions:
REMARK  status: ('A' for Active; 'I' for Inactive)
REMARK       I    between atoms: N_1  and  C_2 
REMARK    1  A    between atoms: C_9  and  C_10 
REMARK    2  A    between atoms: C_10  and  O_11 
REMARK    3  A    between atoms: O_11  and  P_12 
REMARK    4  A    between atoms: P_12  and  O_13 
REMARK    5  A    between atoms: P_12  and  O_14 
ROOT
HETATM    1  N   UNK N   1      35.020  11.387  16.845  0.00  0.00    -0.234 N 
HETATM    2  C   UNK N   1      35.421  12.307  15.858  0.00  0.00     0.680 A 
HETATM    3  N   UNK N   1      34.909  12.217  14.600  0.00  0.00    -0.174 N 
ATOM      4  HN  UNK N   1      34.256  11.467  14.375  1.00  0.00     0.186 HD
HETATM    5  C   UNK N   1      35.257  13.114  13.642  0.00  0.00     0.153 A 
HETATM    6  N   UNK N   1      34.732  13.023  12.393  0.00  0.00    -0.348 N 
ATOM      7  HN  UNK N   1      34.095  12.259  12.167  1.00  0.00     0.167 HD
HETATM    8  C   UNK N   1      35.045  13.941  11.440  0.00  0.00     0.117 A 
HETATM    9  C   UNK N   1      35.918  14.989  11.744  0.00  0.00     0.050 A 
HETATM   10  N   UNK N   1      36.464  15.072  12.990  0.00  0.00    -0.349 N 
ATOM     11  HN  UNK N   1      37.109  15.831  13.209  1.00  0.00     0.166 HD
HETATM   12  C   UNK N   1      36.155  14.152  13.942  0.00  0.00     0.147 A 
HETATM   13  C   UNK N   1      36.690  14.218  15.231  0.00  0.00     0.290 A 
HETATM   14  O   UNK N   1      37.483  15.093  15.531  0.00  0.00    -0.265 OA
HETATM   15  N   UNK N   1      36.309  13.291  16.167  0.00  0.00    -0.154 N 
HETATM   16  H   UNK N   1      34.294  10.749  16.659  0.00  0.00     0.174 HD
HETATM   17  H   UNK N   1      35.467  11.381  17.722  0.00  0.00     0.174 HD
HETATM   18  H   UNK N   1      36.682  13.339  17.077  0.00  0.00     0.187 HD
ENDROOT
BRANCH   9  19
HETATM   19  C   UNK N   1      36.170  16.051  10.731  0.00  0.00     0.239 C 
BRANCH  19  20
HETATM   20  O   UNK N   1      35.068  16.897  10.592  0.00  0.00    -0.291 OA
BRANCH  20  21
HETATM   21  P   UNK N   1      34.733  16.877   8.883  0.00  0.00     0.391 P 
HETATM   22  O   UNK N   1      35.133  18.356   9.131  0.00  0.00    -0.632 OA
BRANCH  21  23
HETATM   23  O   UNK N   1      33.383  17.767   8.258  0.00  0.00    -0.307 OA
HETATM   24  H   UNK N   1      32.855  17.477   7.499  0.00  0.00     0.222 HD
ENDBRANCH  21  23
BRANCH  21  25
HETATM   25  O   UNK N   1      33.291  16.475   9.760  0.00  0.00    -0.307 OA
HETATM   26  H   UNK N   1      32.554  15.898   9.508  0.00  0.00     0.222 HD
ENDBRANCH  21  25
ENDBRANCH  20  21
ENDBRANCH  19  20
ENDBRANCH   9  19
TORSDOF 5
ENDMDL
MODEL 5
REMARK VINA RESULT:      -6.1     13.409     15.455
REMARK  5 active torsions:
REMARK  status: ('A' for Active; 'I' for Inactive)
REMARK       I    between atoms: N_1  and  C_2 
REMARK    1  A    between atoms: C_9  and  C_10 
REMARK    2  A    between atoms: C_10  and  O_11 
REMARK    3  A    between atoms: O_11  and  P_12 
REMARK    4  A    between atoms: P_12  and  O_13 
REMARK    5  A    between atoms: P_12  and  O_14 
ROOT
HETATM    1  N   UNK N   1      37.150  13.520  12.529  0.00  0.00    -0.234 N 
HETATM    2  C   UNK N   1      36.298  14.245  11.674  0.00  0.00     0.680 A 
HETATM    3  N   UNK N   1      35.269  13.611  11.047  0.00  0.00    -0.174 N 
ATOM      4  HN  UNK N   1      35.138  12.608  11.182  1.00  0.00     0.186 HD
HETATM    5  C   UNK N   1      34.416  14.296  10.243  0.00  0.00     0.153 A 
HETATM    6  N   UNK N   1      33.386  13.658   9.631  0.00  0.00    -0.348 N 
ATOM      7  HN  UNK N   1      33.272  12.651   9.754  1.00  0.00     0.167 HD
HETATM    8  C   UNK N   1      32.505  14.345   8.858  0.00  0.00     0.117 A 
HETATM    9  C   UNK N   1      32.658  15.723   8.686  0.00  0.00     0.050 A 
HETATM   10  N   UNK N   1      33.702  16.365   9.282  0.00  0.00    -0.349 N 
ATOM     11  HN  UNK N   1      33.821  17.369   9.149  1.00  0.00     0.166 HD
HETATM   12  C   UNK N   1      34.588  15.677  10.052  0.00  0.00     0.147 A 
HETATM   13  C   UNK N   1      35.661  16.310  10.684  0.00  0.00     0.290 A 
HETATM   14  O   UNK N   1      35.855  17.503  10.534  0.00  0.00    -0.265 OA
HETATM   15  N   UNK N   1      36.497  15.578  11.487  0.00  0.00    -0.154 N 
HETATM   16  H   UNK N   1      36.940  12.586  12.759  0.00  0.00     0.174 HD
HETATM   17  H   UNK N   1      37.955  13.948  12.899  0.00  0.00     0.174 HD
HETATM   18  H   UNK N   1      37.251  16.023  11.936  0.00  0.00     0.187 HD
ENDROOT
BRANCH   9  19
HETATM   19  C   UNK N   1      31.628  16.488   7.929  0.00  0.00     0.239 C 
BRANCH  19  20
HETATM   20  O   UNK N   1      32.193  17.562   7.238  0.00  0.00    -0.291 OA
BRANCH  20  21
HETATM   21  P   UNK N   1      32.915  16.828   5.834  0.00  0.00     0.391 P 
HETATM   22  O   UNK N   1      33.957  17.911   6.223  0.00  0.00    -0.632 OA
BRANCH  21  23
HETATM   23  O   UNK N   1      33.097  17.750   4.377  0.00  0.00    -0.307 OA
HETATM   24  H   UNK N   1      33.725  17.523   3.674  0.00  0.00     0.222 HD
ENDBRANCH  21  23
BRANCH  21  25
HETATM   25  O   UNK N   1      31.405  17.560   5.392  0.00  0.00    -0.307 OA
HETATM   26  H   UNK N   1      30.939  18.308   5.795  0.00  0.00     0.222 HD
ENDBRANCH  21  25
ENDBRANCH  20  21
ENDBRANCH  19  20
ENDBRANCH   9  19
TORSDOF 5
ENDMDL
MODEL 6
REMARK VINA RESULT:      -6.0     16.069     18.265
REMARK  5 active torsions:
REMARK  status: ('A' for Active; 'I' for Inactive)
REMARK       I    between atoms: N_1  and  C_2 
REMARK    1  A    between atoms: C_9  and  C_10 
REMARK    2  A    between atoms: C_10  and  O_11 
REMARK    3  A    between atoms: O_11  and  P_12 
REMARK    4  A    between atoms: P_12  and  O_13 
REMARK    5  A    between atoms: P_12  and  O_14 
ROOT
HETATM    1  N   UNK N   1      38.327  10.533  14.294  0.00  0.00    -0.234 N 
HETATM    2  C   UNK N   1      37.522  11.574  13.791  0.00  0.00     0.680 A 
HETATM    3  N   UNK N   1      37.891  12.226  12.654  0.00  0.00    -0.174 N 
ATOM      4  HN  UNK N   1      38.762  11.972  12.188  1.00  0.00     0.186 HD
HETATM    5  C   UNK N   1      37.114  13.210  12.134  0.00  0.00     0.153 A 
HETATM    6  N   UNK N   1      37.484  13.846  10.994  0.00  0.00    -0.348 N 
ATOM      7  HN  UNK N   1      38.366  13.603  10.542  1.00  0.00     0.167 HD
HETATM    8  C   UNK N   1      36.691  14.805  10.445  0.00  0.00     0.117 A 
HETATM    9  C   UNK N   1      35.483  15.143  11.060  0.00  0.00     0.050 A 
HETATM   10  N   UNK N   1      35.117  14.521  12.216  0.00  0.00    -0.349 N 
ATOM     11  HN  UNK N   1      34.240  14.774  12.671  1.00  0.00     0.166 HD
HETATM   12  C   UNK N   1      35.912  13.566  12.768  0.00  0.00     0.147 A 
HETATM   13  C   UNK N   1      35.558  12.903  13.946  0.00  0.00     0.290 A 
HETATM   14  O   UNK N   1      34.531  13.190  14.536  0.00  0.00    -0.265 OA
HETATM   15  N   UNK N   1      36.373  11.915  14.434  0.00  0.00    -0.154 N 
HETATM   16  H   UNK N   1      39.093  10.205  13.770  0.00  0.00     0.174 HD
HETATM   17  H   UNK N   1      38.123  10.133  15.169  0.00  0.00     0.174 HD
HETATM   18  H   UNK N   1      36.123  11.444  15.262  0.00  0.00     0.187 HD
ENDROOT
BRANCH   9  19
HETATM   19  C   UNK N   1      34.568  16.113  10.396  0.00  0.00     0.239 C 
BRANCH  19  20
HETATM   20  O   UNK N   1      35.267  16.982   9.556  0.00  0.00    -0.291 OA
BRANCH  20  21
HETATM   21  P   UNK N   1      34.068  17.521   8.414  0.00  0.00     0.391 P 
HETATM   22  O   UNK N   1      34.708  16.310   7.684  0.00  0.00    -0.632 OA
BRANCH  21  23
HETATM   23  O   UNK N   1      34.564  18.188   6.892  0.00  0.00    -0.307 OA
HETATM   24  H   UNK N   1      34.999  17.671   6.197  0.00  0.00     0.222 HD
ENDBRANCH  21  23
BRANCH  21  25
HETATM   25  O   UNK N   1      35.238  18.778   8.661  0.00  0.00    -0.307 OA
HETATM   26  H   UNK N   1      35.538  19.191   9.485  0.00  0.00     0.222 HD
ENDBRANCH  21  25
ENDBRANCH  20  21
ENDBRANCH  19  20
ENDBRANCH   9  19
TORSDOF 5
ENDMDL
MODEL 7
REMARK VINA RESULT:      -5.9     13.534     14.740
REMARK  5 active torsions:
REMARK  status: ('A' for Active; 'I' for Inactive)
REMARK       I    between atoms: N_1  and  C_2 
REMARK    1  A    between atoms: C_9  and  C_10 
REMARK    2  A    between atoms: C_10  and  O_11 
REMARK    3  A    between atoms: O_11  and  P_12 
REMARK    4  A    between atoms: P_12  and  O_13 
REMARK    5  A    between atoms: P_12  and  O_14 
ROOT
HETATM    1  N   UNK N   1      32.134  19.782  -4.363  0.00  0.00    -0.234 N 
HETATM    2  C   UNK N   1      31.288  20.872  -4.083  0.00  0.00     0.680 A 
HETATM    3  N   UNK N   1      30.416  21.313  -5.030  0.00  0.00    -0.174 N 
ATOM      4  HN  UNK N   1      30.398  20.865  -5.947  1.00  0.00     0.186 HD
HETATM    5  C   UNK N   1      29.568  22.341  -4.771  0.00  0.00     0.153 A 
HETATM    6  N   UNK N   1      28.693  22.766  -5.718  0.00  0.00    -0.348 N 
ATOM      7  HN  UNK N   1      28.694  22.328  -6.639  1.00  0.00     0.167 HD
HETATM    8  C   UNK N   1      27.815  23.769  -5.452  0.00  0.00     0.117 A 
HETATM    9  C   UNK N   1      27.810  24.373  -4.192  0.00  0.00     0.050 A 
HETATM   10  N   UNK N   1      28.700  23.964  -3.244  0.00  0.00    -0.349 N 
ATOM     11  HN  UNK N   1      28.705  24.411  -2.328  1.00  0.00     0.166 HD
HETATM   12  C   UNK N   1      29.583  22.964  -3.512  0.00  0.00     0.147 A 
HETATM   13  C   UNK N   1      30.500  22.516  -2.557  0.00  0.00     0.290 A 
HETATM   14  O   UNK N   1      30.556  23.037  -1.458  0.00  0.00    -0.265 OA
HETATM   15  N   UNK N   1      31.336  21.474  -2.863  0.00  0.00    -0.154 N 
HETATM   16  H   UNK N   1      32.021  19.272  -5.197  0.00  0.00     0.174 HD
HETATM   17  H   UNK N   1      32.838  19.530  -3.723  0.00  0.00     0.174 HD
HETATM   18  H   UNK N   1      31.979  21.154  -2.190  0.00  0.00     0.187 HD
ENDROOT
BRANCH   9  19
HETATM   19  C   UNK N   1      26.773  25.393  -3.871  0.00  0.00     0.239 C 
BRANCH  19  20
HETATM   20  O   UNK N   1      27.336  26.661  -3.708  0.00  0.00    -0.291 OA
BRANCH  20  21
HETATM   21  P   UNK N   1      26.066  27.751  -4.190  0.00  0.00     0.391 P 
HETATM   22  O   UNK N   1      27.349  28.550  -4.543  0.00  0.00    -0.632 OA
BRANCH  21  23
HETATM   23  O   UNK N   1      25.850  29.249  -3.344  0.00  0.00    -0.307 OA
HETATM   24  H   UNK N   1      26.409  29.533  -2.605  0.00  0.00     0.222 HD
ENDBRANCH  21  23
BRANCH  21  25
HETATM   25  O   UNK N   1      25.970  27.469  -2.480  0.00  0.00    -0.307 OA
HETATM   26  H   UNK N   1      25.463  26.804  -1.990  0.00  0.00     0.222 HD
ENDBRANCH  21  25
ENDBRANCH  20  21
ENDBRANCH  19  20
ENDBRANCH   9  19
TORSDOF 5
ENDMDL
MODEL 8
REMARK VINA RESULT:      -5.8     15.122     16.356
REMARK  5 active torsions:
REMARK  status: ('A' for Active; 'I' for Inactive)
REMARK       I    between atoms: N_1  and  C_2 
REMARK    1  A    between atoms: C_9  and  C_10 
REMARK    2  A    between atoms: C_10  and  O_11 
REMARK    3  A    between atoms: O_11  and  P_12 
REMARK    4  A    between atoms: P_12  and  O_13 
REMARK    5  A    between atoms: P_12  and  O_14 
ROOT
HETATM    1  N   UNK N   1      34.497  18.518   8.446  0.00  0.00    -0.234 N 
HETATM    2  C   UNK N   1      34.459  17.309   9.166  0.00  0.00     0.680 A 
HETATM    3  N   UNK N   1      35.321  17.110  10.201  0.00  0.00    -0.174 N 
ATOM      4  HN  UNK N   1      36.005  17.830  10.432  1.00  0.00     0.186 HD
HETATM    5  C   UNK N   1      35.279  15.965  10.930  0.00  0.00     0.153 A 
HETATM    6  N   UNK N   1      36.135  15.781  11.968  0.00  0.00    -0.348 N 
ATOM      7  HN  UNK N   1      36.831  16.495  12.182  1.00  0.00     0.167 HD
HETATM    8  C   UNK N   1      36.073  14.655  12.727  0.00  0.00     0.117 A 
HETATM    9  C   UNK N   1      35.121  13.673  12.438  0.00  0.00     0.050 A 
HETATM   10  N   UNK N   1      34.273  13.844  11.384  0.00  0.00    -0.349 N 
ATOM     11  HN  UNK N   1      33.586  13.124  11.166  1.00  0.00     0.166 HD
HETATM   12  C   UNK N   1      34.339  14.969  10.621  0.00  0.00     0.147 A 
HETATM   13  C   UNK N   1      33.476  15.177   9.542  0.00  0.00     0.290 A 
HETATM   14  O   UNK N   1      32.655  14.333   9.230  0.00  0.00    -0.265 OA
HETATM   15  N   UNK N   1      33.553  16.349   8.835  0.00  0.00    -0.154 N 
HETATM   16  H   UNK N   1      35.068  19.258   8.755  0.00  0.00     0.174 HD
HETATM   17  H   UNK N   1      33.953  18.623   7.633  0.00  0.00     0.174 HD
HETATM   18  H   UNK N   1      32.944  16.500   8.076  0.00  0.00     0.187 HD
ENDROOT
BRANCH   9  19
HETATM   19  C   UNK N   1      34.985  12.495  13.338  0.00  0.00     0.239 C 
BRANCH  19  20
HETATM   20  O   UNK N   1      34.486  12.862  14.590  0.00  0.00    -0.291 OA
BRANCH  20  21
HETATM   21  P   UNK N   1      35.603  12.144  15.716  0.00  0.00     0.391 P 
HETATM   22  O   UNK N   1      34.818  10.913  15.189  0.00  0.00    -0.632 OA
BRANCH  21  23
HETATM   23  O   UNK N   1      35.008  11.399  17.165  0.00  0.00    -0.307 OA
HETATM   24  H   UNK N   1      34.071  11.385  17.414  0.00  0.00     0.222 HD
ENDBRANCH  21  23
BRANCH  21  25
HETATM   25  O   UNK N   1      34.547  13.231  16.562  0.00  0.00    -0.307 OA
HETATM   26  H   UNK N   1      34.373  14.172  16.405  0.00  0.00     0.222 HD
ENDBRANCH  21  25
ENDBRANCH  20  21
ENDBRANCH  19  20
ENDBRANCH   9  19
TORSDOF 5
ENDMDL
MODEL 9
REMARK VINA RESULT:      -5.7     14.503     15.713
REMARK  5 active torsions:
REMARK  status: ('A' for Active; 'I' for Inactive)
REMARK       I    between atoms: N_1  and  C_2 
REMARK    1  A    between atoms: C_9  and  C_10 
REMARK    2  A    between atoms: C_10  and  O_11 
REMARK    3  A    between atoms: O_11  and  P_12 
REMARK    4  A    between atoms: P_12  and  O_13 
REMARK    5  A    between atoms: P_12  and  O_14 
ROOT
HETATM    1  N   UNK N   1      31.639  17.541   7.223  0.00  0.00    -0.234 N 
HETATM    2  C   UNK N   1      32.335  16.663   8.076  0.00  0.00     0.680 A 
HETATM    3  N   UNK N   1      33.291  17.149   8.914  0.00  0.00    -0.174 N 
ATOM      4  HN  UNK N   1      33.515  18.144   8.899  1.00  0.00     0.186 HD
HETATM    5  C   UNK N   1      33.951  16.326   9.768  0.00  0.00     0.153 A 
HETATM    6  N   UNK N   1      34.895  16.821  10.608  0.00  0.00    -0.348 N 
ATOM      7  HN  UNK N   1      35.130  17.813  10.575  1.00  0.00     0.167 HD
HETATM    8  C   UNK N   1      35.531  16.009  11.494  0.00  0.00     0.117 A 
HETATM    9  C   UNK N   1      35.214  14.649  11.542  0.00  0.00     0.050 A 
HETATM   10  N   UNK N   1      34.281  14.143  10.687  0.00  0.00    -0.349 N 
ATOM     11  HN  UNK N   1      34.057  13.149  10.714  1.00  0.00     0.166 HD
HETATM   12  C   UNK N   1      33.648  14.954   9.797  0.00  0.00     0.147 A 
HETATM   13  C   UNK N   1      32.680  14.466   8.915  0.00  0.00     0.290 A 
HETATM   14  O   UNK N   1      32.397  13.281   8.897  0.00  0.00    -0.265 OA
HETATM   15  N   UNK N   1      32.039  15.335   8.071  0.00  0.00    -0.154 N 
HETATM   16  H   UNK N   1      31.766  18.514   7.306  0.00  0.00     0.174 HD
HETATM   17  H   UNK N   1      31.026  17.182   6.542  0.00  0.00     0.174 HD
HETATM   18  H   UNK N   1      31.354  14.994   7.452  0.00  0.00     0.187 HD
ENDROOT
BRANCH   9  19
HETATM   19  C   UNK N   1      35.833  13.788  12.588  0.00  0.00     0.239 C 
BRANCH  19  20
HETATM   20  O   UNK N   1      34.984  13.624  13.685  0.00  0.00    -0.291 OA
BRANCH  20  21
HETATM   21  P   UNK N   1      36.035  13.058  14.951  0.00  0.00     0.391 P 
HETATM   22  O   UNK N   1      36.669  14.424  14.572  0.00  0.00    -0.632 OA
BRANCH  21  23
HETATM   23  O   UNK N   1      37.681  12.649  14.588  0.00  0.00    -0.307 OA
HETATM   24  H   UNK N   1      38.444  13.080  15.001  0.00  0.00     0.222 HD
ENDBRANCH  21  23
BRANCH  21  25
HETATM   25  O   UNK N   1      36.100  11.958  13.611  0.00  0.00    -0.307 OA
HETATM   26  H   UNK N   1      36.718  11.928  12.864  0.00  0.00     0.222 HD
ENDBRANCH  21  25
ENDBRANCH  20  21
ENDBRANCH  19  20
ENDBRANCH   9  19
TORSDOF 5
ENDMDL
