REMARK  19 active torsions:
REMARK  status: ('A' for Active; 'I' for Inactive)
REMARK    1  A    between atoms: C_2  and  C_1 
REMARK    2  A    between atoms: C_4  and  C_1 
REMARK    3  A    between atoms: C_7  and  C_2 
REMARK    4  A    between atoms: C_8  and  C_4 
REMARK    5  A    between atoms: C_11  and  C_7 
REMARK    6  A    between atoms: C_14  and  C_8 
REMARK    7  A    between atoms: O_32  and  C_11 
REMARK    8  A    between atoms: C_15  and  C_12 
REMARK    9  A    between atoms: O_25  and  C_12 
REMARK   10  A    between atoms: C_16  and  C_13 
REMARK   11  A    between atoms: O_26  and  C_13 
REMARK   12  A    between atoms: C_17  and  O_27 
REMARK   13  A    between atoms: C_18  and  O_28 
REMARK   14  A    between atoms: C_19  and  O_29 
REMARK   15  A    between atoms: C_20  and  O_30 
REMARK   16  A    between atoms: C_21  and  O_31 
REMARK   17  A    between atoms: C_22  and  O_35 
REMARK   18  A    between atoms: C_23  and  O_32 
REMARK   19  A    between atoms: C_24  and  O_35 
ROOT
HETATM    1  C   UNK N   1      -0.677   3.894   0.666  0.00  0.00     0.180 C 
HETATM    2  C   UNK N   1      -1.502   1.535   0.651  0.00  0.00     0.183 C 
HETATM    3  C   UNK N   1      -0.288   1.181  -0.211  0.00  0.00     0.204 C 
HETATM    4  C   UNK N   1      -1.922   3.006   0.423  0.00  0.00     0.187 C 
HETATM    5  C   UNK N   1       0.834   2.184   0.089  0.00  0.00     0.291 C 
HETATM    6  O   UNK N   1       0.396   3.513  -0.186  0.00  0.00    -0.348 OA
ENDROOT
BRANCH   4   7
HETATM    7  O   UNK N   1      -2.374   3.237  -0.905  0.00  0.00    -0.348 OA
BRANCH   7   8
HETATM    8  C   UNK N   1      -3.791   3.278  -1.084  0.00  0.00     0.292 C 
HETATM    9  C   UNK N   1      -4.593   4.304  -0.195  0.00  0.00     0.204 C 
HETATM   10  C   UNK N   1      -6.068   4.102  -0.556  0.00  0.00     0.183 C 
HETATM   11  C   UNK N   1      -6.499   2.653  -0.226  0.00  0.00     0.180 C 
HETATM   12  C   UNK N   1      -5.277   1.694  -0.160  0.00  0.00     0.179 C 
HETATM   13  O   UNK N   1      -4.342   1.966  -1.186  0.00  0.00    -0.348 OA
BRANCH   9  14
HETATM   14  O   UNK N   1      -4.186   5.609  -0.473  0.00  0.00    -0.388 OA
HETATM   15  H   UNK N   1      -3.258   5.817  -0.667  0.00  0.00     0.210 HD
ENDBRANCH   9  14
BRANCH  10  16
HETATM   16  O   UNK N   1      -6.893   5.017   0.103  0.00  0.00    -0.390 OA
HETATM   17  H   UNK N   1      -6.629   5.831   0.561  0.00  0.00     0.210 HD
ENDBRANCH  10  16
BRANCH  11  18
HETATM   18  O   UNK N   1      -7.431   2.235  -1.182  0.00  0.00    -0.390 OA
HETATM   19  H   UNK N   1      -8.005   2.649  -1.845  0.00  0.00     0.210 HD
ENDBRANCH  11  18
BRANCH  12  20
HETATM   20  C   UNK N   1      -5.685   0.226  -0.229  0.00  0.00     0.198 C 
BRANCH  20  21
HETATM   21  O   UNK N   1      -6.491  -0.117   0.858  0.00  0.00    -0.398 OA
HETATM   22  H   UNK N   1      -6.977   0.250   1.613  0.00  0.00     0.209 HD
ENDBRANCH  20  21
ENDBRANCH  12  20
ENDBRANCH   7   8
ENDBRANCH   4   7
BRANCH   1  23
HETATM   23  C   UNK N   1      -1.016   5.357   0.394  0.00  0.00     0.198 C 
BRANCH  23  24
HETATM   24  O   UNK N   1       0.114   6.159   0.572  0.00  0.00    -0.398 OA
HETATM   25  H   UNK N   1       0.988   5.758   0.695  0.00  0.00     0.209 HD
ENDBRANCH  23  24
ENDBRANCH   1  23
BRANCH   2  26
HETATM   26  O   UNK N   1      -2.545   0.648   0.395  0.00  0.00    -0.390 OA
HETATM   27  H   UNK N   1      -3.443   0.969   0.216  0.00  0.00     0.210 HD
ENDBRANCH   2  26
BRANCH   3  28
HETATM   28  O   UNK N   1      -0.618   1.231  -1.569  0.00  0.00    -0.388 OA
HETATM   29  H   UNK N   1      -0.703   1.447  -2.511  0.00  0.00     0.210 HD
ENDBRANCH   3  28
BRANCH   5  30
HETATM   30  O   UNK N   1       1.262   2.026   1.430  0.00  0.00    -0.359 OA
BRANCH  30  31
HETATM   31  C   UNK N   1       2.349   2.879   1.672  0.00  0.00     0.171 C 
BRANCH  31  32
HETATM   32  C   UNK N   1       3.644   2.123   1.477  0.00  0.00     0.026 C 
BRANCH  32  33
HETATM   33  C   UNK N   1       4.229   2.521   0.143  0.00  0.00     0.002 C 
BRANCH  33  34
HETATM   34  C   UNK N   1       4.733   1.297  -0.592  0.00  0.00     0.000 C 
BRANCH  34  35
HETATM   35  C   UNK N   1       5.752   1.741  -1.626  0.00  0.00     0.000 C 
BRANCH  35  36
HETATM   36  C   UNK N   1       7.178   1.631  -1.088  0.00  0.00     0.004 C 
BRANCH  36  37
HETATM   37  C   UNK N   1       7.392   2.392   0.225  0.00  0.00    -0.014 C 
HETATM   38  C   UNK N   1       7.140   3.900   0.090  0.00  0.00     0.004 C 
HETATM   39  C   UNK N   1       8.219   4.573  -0.753  0.00  0.00     0.000 C 
HETATM   40  C   UNK N   1       9.592   4.317  -0.141  0.00  0.00     0.000 C 
HETATM   41  C   UNK N   1       9.862   2.817  -0.065  0.00  0.00     0.000 C 
HETATM   42  C   UNK N   1       8.791   2.132   0.784  0.00  0.00     0.004 C 
ENDBRANCH  36  37
ENDBRANCH  35  36
ENDBRANCH  34  35
ENDBRANCH  33  34
ENDBRANCH  32  33
ENDBRANCH  31  32
ENDBRANCH  30  31
ENDBRANCH   5  30
TORSDOF 19
