REMARK  3 active torsions:
REMARK  status: ('A' for Active; 'I' for Inactive)
REMARK    1  A    between atoms: C_3  and  N_4 
REMARK    2  A    between atoms: C_3  and  C_5 
REMARK    3  A    between atoms: C_5  and  O_6 
ROOT
HETATM    1  C   UNK N   1       2.113   1.378  -0.000  0.00  0.00     0.038 C 
HETATM    2  C   UNK N   1       1.378   0.076   0.000  0.00  0.00     0.005 C 
HETATM    3  C   UNK N   1       0.040   0.027  -0.000  0.00  0.00     0.096 C 
ENDROOT
BRANCH   3   4
HETATM    4  N   UNK N   1      -0.716   1.223  -0.000  0.00  0.00    -0.394 N 
HETATM    5  H   UNK N   1      -0.259   2.095  -0.000  0.00  0.00     0.156 HD
HETATM    6  H   UNK N   1      -1.700   1.184  -0.000  0.00  0.00     0.156 HD
ENDBRANCH   3   4
BRANCH   3   7
HETATM    7  C   UNK N   1      -0.659  -1.273   0.000  0.00  0.00     0.192 C 
HETATM    8  O   UNK N   1      -1.881  -1.303  -0.000  0.00  0.00    -0.645 OA
BRANCH   7   9
HETATM    9  O   UNK N   1       0.033  -2.428   0.000  0.00  0.00    -0.772 OA
HETATM   10  H   UNK N   1      -0.422  -3.247   0.000  0.00  0.00     0.167 HD
ENDBRANCH   7   9
ENDBRANCH   3   7
TORSDOF 3
