MODEL 1
REMARK VINA RESULT:      -4.2      0.000      0.000
REMARK  0 active torsions:
REMARK  status: ('A' for Active; 'I' for Inactive)
ROOT
HETATM    1  C   UNK N   1      26.873  27.152  -6.398  0.00  0.00     0.006 C 
HETATM    2  C   UNK N   1      26.708  28.409  -5.530  0.00  0.00     0.012 C 
HETATM    3  C   UNK N   1      24.693  27.207  -5.518  0.00  0.00     0.017 C 
HETATM    4  C   UNK N   1      26.243  25.715  -4.457  0.00  0.00     0.083 C 
HETATM    5  C   UNK N   1      25.800  26.214  -5.845  0.00  0.00    -0.007 C 
HETATM    6  C   UNK N   1      25.545  28.050  -4.605  0.00  0.00     0.056 C 
HETATM    7  C   UNK N   1      26.008  26.969  -3.702  0.00  0.00     0.131 C 
HETATM    8  O   UNK N   1      25.996  27.037  -2.484  0.00  0.00    -0.298 OA
ENDROOT
TORSDOF 0
ENDMDL
MODEL 2
REMARK VINA RESULT:      -4.1     20.389     21.614
REMARK  0 active torsions:
REMARK  status: ('A' for Active; 'I' for Inactive)
ROOT
HETATM    1  C   UNK N   1      23.297  13.360   9.184  0.00  0.00     0.006 C 
HETATM    2  C   UNK N   1      22.133  13.284  10.185  0.00  0.00     0.012 C 
HETATM    3  C   UNK N   1      22.966  11.120   9.823  0.00  0.00     0.017 C 
HETATM    4  C   UNK N   1      24.809  12.267  10.843  0.00  0.00     0.083 C 
HETATM    5  C   UNK N   1      24.092  12.090   9.492  0.00  0.00    -0.007 C 
HETATM    6  C   UNK N   1      22.387  11.970  10.924  0.00  0.00     0.056 C 
HETATM    7  C   UNK N   1      23.624  12.138  11.724  0.00  0.00     0.131 C 
HETATM    8  O   UNK N   1      23.689  11.980  12.933  0.00  0.00    -0.298 OA
ENDROOT
TORSDOF 0
ENDMDL
MODEL 3
REMARK VINA RESULT:      -3.9     19.948     20.977
REMARK  0 active torsions:
REMARK  status: ('A' for Active; 'I' for Inactive)
ROOT
HETATM    1  C   UNK N   1      24.550  12.028  10.871  0.00  0.00     0.006 C 
HETATM    2  C   UNK N   1      24.691  13.120   9.800  0.00  0.00     0.012 C 
HETATM    3  C   UNK N   1      23.132  11.529   9.063  0.00  0.00     0.017 C 
HETATM    4  C   UNK N   1      22.097  12.467  11.013  0.00  0.00     0.083 C 
HETATM    5  C   UNK N   1      23.165  11.446  10.583  0.00  0.00    -0.007 C 
HETATM    6  C   UNK N   1      23.385  13.013   9.012  0.00  0.00     0.056 C 
HETATM    7  C   UNK N   1      22.284  13.439   9.909  0.00  0.00     0.131 C 
HETATM    8  O   UNK N   1      21.505  14.345   9.661  0.00  0.00    -0.298 OA
ENDROOT
TORSDOF 0
ENDMDL
MODEL 4
REMARK VINA RESULT:      -3.8     17.434     18.454
REMARK  0 active torsions:
REMARK  status: ('A' for Active; 'I' for Inactive)
ROOT
HETATM    1  C   UNK N   1      32.358  17.246   7.486  0.00  0.00     0.006 C 
HETATM    2  C   UNK N   1      32.613  16.186   8.568  0.00  0.00     0.012 C 
HETATM    3  C   UNK N   1      34.467  16.267   7.131  0.00  0.00     0.017 C 
HETATM    4  C   UNK N   1      34.449  18.440   8.147  0.00  0.00     0.083 C 
HETATM    5  C   UNK N   1      33.772  17.619   7.035  0.00  0.00    -0.007 C 
HETATM    6  C   UNK N   1      34.137  16.059   8.586  0.00  0.00     0.056 C 
HETATM    7  C   UNK N   1      34.687  17.334   9.105  0.00  0.00     0.131 C 
HETATM    8  O   UNK N   1      35.416  17.424  10.080  0.00  0.00    -0.298 OA
ENDROOT
TORSDOF 0
ENDMDL
MODEL 5
REMARK VINA RESULT:      -3.8     17.215     18.099
REMARK  0 active torsions:
REMARK  status: ('A' for Active; 'I' for Inactive)
ROOT
HETATM    1  C   UNK N   1      32.969  16.318   6.738  0.00  0.00     0.006 C 
HETATM    2  C   UNK N   1      33.818  17.594   6.630  0.00  0.00     0.012 C 
HETATM    3  C   UNK N   1      32.273  17.855   8.377  0.00  0.00     0.017 C 
HETATM    4  C   UNK N   1      33.661  16.045   9.121  0.00  0.00     0.083 C 
HETATM    5  C   UNK N   1      32.478  16.358   8.186  0.00  0.00    -0.007 C 
HETATM    6  C   UNK N   1      33.689  18.223   8.018  0.00  0.00     0.056 C 
HETATM    7  C   UNK N   1      34.382  17.332   8.980  0.00  0.00     0.131 C 
HETATM    8  O   UNK N   1      35.294  17.684   9.710  0.00  0.00    -0.298 OA
ENDROOT
TORSDOF 0
ENDMDL
MODEL 6
REMARK VINA RESULT:      -3.7      2.171      2.945
REMARK  0 active torsions:
REMARK  status: ('A' for Active; 'I' for Inactive)
ROOT
HETATM    1  C   UNK N   1      27.030  27.122  -4.796  0.00  0.00     0.006 C 
HETATM    2  C   UNK N   1      26.310  25.834  -4.367  0.00  0.00     0.012 C 
HETATM    3  C   UNK N   1      24.805  27.187  -5.555  0.00  0.00     0.017 C 
HETATM    4  C   UNK N   1      26.481  26.647  -7.184  0.00  0.00     0.083 C 
HETATM    5  C   UNK N   1      26.206  27.588  -5.997  0.00  0.00    -0.007 C 
HETATM    6  C   UNK N   1      25.148  25.734  -5.355  0.00  0.00     0.056 C 
HETATM    7  C   UNK N   1      25.721  25.472  -6.697  0.00  0.00     0.131 C 
HETATM    8  O   UNK N   1      25.435  24.511  -7.393  0.00  0.00    -0.298 OA
ENDROOT
TORSDOF 0
ENDMDL
MODEL 7
REMARK VINA RESULT:      -3.7     16.367     17.379
REMARK  0 active torsions:
REMARK  status: ('A' for Active; 'I' for Inactive)
ROOT
HETATM    1  C   UNK N   1      31.973  15.817   8.693  0.00  0.00     0.006 C 
HETATM    2  C   UNK N   1      32.491  15.272   7.353  0.00  0.00     0.012 C 
HETATM    3  C   UNK N   1      31.141  17.146   6.939  0.00  0.00     0.017 C 
HETATM    4  C   UNK N   1      32.980  18.045   8.189  0.00  0.00     0.083 C 
HETATM    5  C   UNK N   1      31.657  17.278   8.366  0.00  0.00    -0.007 C 
HETATM    6  C   UNK N   1      32.384  16.476   6.417  0.00  0.00     0.056 C 
HETATM    7  C   UNK N   1      33.368  17.487   6.872  0.00  0.00     0.131 C 
HETATM    8  O   UNK N   1      34.255  17.950   6.172  0.00  0.00    -0.298 OA
ENDROOT
TORSDOF 0
ENDMDL
MODEL 8
REMARK VINA RESULT:      -3.5     25.717     26.946
REMARK  0 active torsions:
REMARK  status: ('A' for Active; 'I' for Inactive)
ROOT
HETATM    1  C   UNK N   1      35.463  10.101  15.480  0.00  0.00     0.006 C 
HETATM    2  C   UNK N   1      34.114  10.737  15.110  0.00  0.00     0.012 C 
HETATM    3  C   UNK N   1      35.208  12.121  16.658  0.00  0.00     0.017 C 
HETATM    4  C   UNK N   1      36.653  12.168  14.743  0.00  0.00     0.083 C 
HETATM    5  C   UNK N   1      36.283  11.299  15.960  0.00  0.00    -0.007 C 
HETATM    6  C   UNK N   1      34.316  12.215  15.448  0.00  0.00     0.056 C 
HETATM    7  C   UNK N   1      35.316  12.759  14.498  0.00  0.00     0.131 C 
HETATM    8  O   UNK N   1      35.118  13.710  13.760  0.00  0.00    -0.298 OA
ENDROOT
TORSDOF 0
ENDMDL
MODEL 9
REMARK VINA RESULT:      -3.5      5.581      6.297
REMARK  0 active torsions:
REMARK  status: ('A' for Active; 'I' for Inactive)
ROOT
HETATM    1  C   UNK N   1      31.967  23.949  -4.771  0.00  0.00     0.006 C 
HETATM    2  C   UNK N   1      31.054  24.902  -3.984  0.00  0.00     0.012 C 
HETATM    3  C   UNK N   1      29.837  22.977  -4.549  0.00  0.00     0.017 C 
HETATM    4  C   UNK N   1      31.554  22.148  -3.092  0.00  0.00     0.083 C 
HETATM    5  C   UNK N   1      31.309  22.587  -4.548  0.00  0.00    -0.007 C 
HETATM    6  C   UNK N   1      29.971  23.976  -3.429  0.00  0.00     0.056 C 
HETATM    7  C   UNK N   1      30.611  23.083  -2.434  0.00  0.00     0.131 C 
HETATM    8  O   UNK N   1      30.258  22.986  -1.269  0.00  0.00    -0.298 OA
ENDROOT
TORSDOF 0
ENDMDL
