MODEL 1
REMARK VINA RESULT:      -3.2      0.000      0.000
REMARK  2 active torsions:
REMARK  status: ('A' for Active; 'I' for Inactive)
REMARK    1  A    between atoms: N_1  and  C_2 
REMARK    2  A    between atoms: C_2  and  C_3 
REMARK       I    between atoms: C_3  and  N_4 
ROOT
HETATM    1  C   UNK N   1      20.195  20.034   2.718  0.00  0.00     0.232 C 
HETATM    2  N   UNK N   1      19.179  19.176   2.516  0.00  0.00    -0.369 N 
HETATM    3  O   UNK N   1      20.357  20.530   3.825  0.00  0.00    -0.272 OA
HETATM    4  H   UNK N   1      18.571  18.950   3.256  0.00  0.00     0.159 HD
HETATM    5  H   UNK N   1      19.044  18.774   1.627  0.00  0.00     0.159 HD
ENDROOT
BRANCH   1   6
HETATM    6  C   UNK N   1      21.115  20.369   1.579  0.00  0.00     0.214 C 
BRANCH   6   7
HETATM    7  N   UNK N   1      20.401  20.962   0.460  0.00  0.00    -0.422 N 
HETATM    8  H   UNK N   1      20.767  20.865  -0.488  0.00  0.00     0.150 HD
HETATM    9  H   UNK N   1      19.534  21.474   0.621  0.00  0.00     0.150 HD
ENDBRANCH   6   7
ENDBRANCH   1   6
TORSDOF 2
ENDMDL
MODEL 2
REMARK VINA RESULT:      -3.2      7.959      8.273
REMARK  2 active torsions:
REMARK  status: ('A' for Active; 'I' for Inactive)
REMARK    1  A    between atoms: N_1  and  C_2 
REMARK    2  A    between atoms: C_2  and  C_3 
REMARK       I    between atoms: C_3  and  N_4 
ROOT
HETATM    1  C   UNK N   1      19.052  18.939  10.105  0.00  0.00     0.232 C 
HETATM    2  N   UNK N   1      18.294  19.566  11.023  0.00  0.00    -0.369 N 
HETATM    3  O   UNK N   1      20.176  19.356   9.860  0.00  0.00    -0.272 OA
HETATM    4  H   UNK N   1      18.645  20.356  11.494  0.00  0.00     0.159 HD
HETATM    5  H   UNK N   1      17.390  19.234  11.224  0.00  0.00     0.159 HD
ENDROOT
BRANCH   1   6
HETATM    6  C   UNK N   1      18.504  17.735   9.394  0.00  0.00     0.214 C 
BRANCH   6   7
HETATM    7  N   UNK N   1      17.054  17.784   9.282  0.00  0.00    -0.422 N 
HETATM    8  H   UNK N   1      16.472  17.481  10.063  0.00  0.00     0.150 HD
HETATM    9  H   UNK N   1      16.620  18.121   8.423  0.00  0.00     0.150 HD
ENDBRANCH   6   7
ENDBRANCH   1   6
TORSDOF 2
ENDMDL
MODEL 3
REMARK VINA RESULT:      -3.1     23.525     23.954
REMARK  2 active torsions:
REMARK  status: ('A' for Active; 'I' for Inactive)
REMARK    1  A    between atoms: N_1  and  C_2 
REMARK    2  A    between atoms: C_2  and  C_3 
REMARK       I    between atoms: C_3  and  N_4 
ROOT
HETATM    1  C   UNK N   1      43.414  22.742   3.610  0.00  0.00     0.232 C 
HETATM    2  N   UNK N   1      43.580  24.003   4.050  0.00  0.00    -0.369 N 
HETATM    3  O   UNK N   1      42.468  22.474   2.883  0.00  0.00    -0.272 OA
HETATM    4  H   UNK N   1      42.941  24.704   3.787  0.00  0.00     0.159 HD
HETATM    5  H   UNK N   1      44.340  24.224   4.635  0.00  0.00     0.159 HD
ENDROOT
BRANCH   1   6
HETATM    6  C   UNK N   1      44.398  21.684   4.020  0.00  0.00     0.214 C 
BRANCH   6   7
HETATM    7  N   UNK N   1      45.739  22.222   4.185  0.00  0.00    -0.422 N 
HETATM    8  H   UNK N   1      46.090  22.923   3.532  0.00  0.00     0.150 HD
HETATM    9  H   UNK N   1      46.328  21.901   4.952  0.00  0.00     0.150 HD
ENDBRANCH   6   7
ENDBRANCH   1   6
TORSDOF 2
ENDMDL
MODEL 4
REMARK VINA RESULT:      -3.0     15.904     16.054
REMARK  2 active torsions:
REMARK  status: ('A' for Active; 'I' for Inactive)
REMARK    1  A    between atoms: N_1  and  C_2 
REMARK    2  A    between atoms: C_2  and  C_3 
REMARK       I    between atoms: C_3  and  N_4 
ROOT
HETATM    1  C   UNK N   1      34.470  18.102   8.192  0.00  0.00     0.232 C 
HETATM    2  N   UNK N   1      33.947  17.919   6.965  0.00  0.00    -0.369 N 
HETATM    3  O   UNK N   1      35.079  19.132   8.442  0.00  0.00    -0.272 OA
HETATM    4  H   UNK N   1      34.056  18.613   6.276  0.00  0.00     0.159 HD
HETATM    5  H   UNK N   1      33.456  17.092   6.758  0.00  0.00     0.159 HD
ENDROOT
BRANCH   1   6
HETATM    6  C   UNK N   1      34.296  17.034   9.233  0.00  0.00     0.214 C 
BRANCH   6   7
HETATM    7  N   UNK N   1      35.083  17.304  10.425  0.00  0.00    -0.422 N 
HETATM    8  H   UNK N   1      35.463  16.530  10.972  0.00  0.00     0.150 HD
HETATM    9  H   UNK N   1      35.257  18.266  10.715  0.00  0.00     0.150 HD
ENDBRANCH   6   7
ENDBRANCH   1   6
TORSDOF 2
ENDMDL
MODEL 5
REMARK VINA RESULT:      -3.0      0.977      2.230
REMARK  2 active torsions:
REMARK  status: ('A' for Active; 'I' for Inactive)
REMARK    1  A    between atoms: N_1  and  C_2 
REMARK    2  A    between atoms: C_2  and  C_3 
REMARK       I    between atoms: C_3  and  N_4 
ROOT
HETATM    1  C   UNK N   1      20.780  20.477   1.875  0.00  0.00     0.232 C 
HETATM    2  N   UNK N   1      20.352  20.915   0.677  0.00  0.00    -0.369 N 
HETATM    3  O   UNK N   1      21.509  21.185   2.554  0.00  0.00    -0.272 OA
HETATM    4  H   UNK N   1      20.626  21.802   0.352  0.00  0.00     0.159 HD
HETATM    5  H   UNK N   1      19.764  20.349   0.127  0.00  0.00     0.159 HD
ENDROOT
BRANCH   1   6
HETATM    6  C   UNK N   1      20.352  19.120   2.359  0.00  0.00     0.214 C 
BRANCH   6   7
HETATM    7  N   UNK N   1      18.906  18.965   2.331  0.00  0.00    -0.422 N 
HETATM    8  H   UNK N   1      18.328  19.448   3.020  0.00  0.00     0.150 HD
HETATM    9  H   UNK N   1      18.469  18.375   1.624  0.00  0.00     0.150 HD
ENDBRANCH   6   7
ENDBRANCH   1   6
TORSDOF 2
ENDMDL
MODEL 6
REMARK VINA RESULT:      -3.0     23.924     24.344
REMARK  2 active torsions:
REMARK  status: ('A' for Active; 'I' for Inactive)
REMARK    1  A    between atoms: N_1  and  C_2 
REMARK    2  A    between atoms: C_2  and  C_3 
REMARK       I    between atoms: C_3  and  N_4 
ROOT
HETATM    1  C   UNK N   1      44.579  21.713   3.778  0.00  0.00     0.232 C 
HETATM    2  N   UNK N   1      45.729  22.273   4.194  0.00  0.00    -0.369 N 
HETATM    3  O   UNK N   1      44.529  20.506   3.585  0.00  0.00    -0.272 OA
HETATM    4  H   UNK N   1      46.524  21.712   4.342  0.00  0.00     0.159 HD
HETATM    5  H   UNK N   1      45.775  23.244   4.351  0.00  0.00     0.159 HD
ENDROOT
BRANCH   1   6
HETATM    6  C   UNK N   1      43.374  22.582   3.556  0.00  0.00     0.214 C 
BRANCH   6   7
HETATM    7  N   UNK N   1      43.575  23.929   4.065  0.00  0.00    -0.422 N 
HETATM    8  H   UNK N   1      43.550  24.725   3.427  0.00  0.00     0.150 HD
HETATM    9  H   UNK N   1      43.740  24.079   5.060  0.00  0.00     0.150 HD
ENDBRANCH   6   7
ENDBRANCH   1   6
TORSDOF 2
ENDMDL
MODEL 7
REMARK VINA RESULT:      -2.8      3.468      3.850
REMARK  2 active torsions:
REMARK  status: ('A' for Active; 'I' for Inactive)
REMARK    1  A    between atoms: N_1  and  C_2 
REMARK    2  A    between atoms: C_2  and  C_3 
REMARK       I    between atoms: C_3  and  N_4 
ROOT
HETATM    1  C   UNK N   1      19.899  16.972   0.810  0.00  0.00     0.232 C 
HETATM    2  N   UNK N   1      19.272  15.786   0.906  0.00  0.00    -0.369 N 
HETATM    3  O   UNK N   1      20.369  17.323  -0.264  0.00  0.00    -0.272 OA
HETATM    4  H   UNK N   1      19.193  15.205   0.115  0.00  0.00     0.159 HD
HETATM    5  H   UNK N   1      18.892  15.498   1.768  0.00  0.00     0.159 HD
ENDROOT
BRANCH   1   6
HETATM    6  C   UNK N   1      20.012  17.847   2.026  0.00  0.00     0.214 C 
BRANCH   6   7
HETATM    7  N   UNK N   1      18.759  18.522   2.328  0.00  0.00    -0.422 N 
HETATM    8  H   UNK N   1      18.006  18.530   1.639  0.00  0.00     0.150 HD
HETATM    9  H   UNK N   1      18.633  18.987   3.226  0.00  0.00     0.150 HD
ENDBRANCH   6   7
ENDBRANCH   1   6
TORSDOF 2
ENDMDL
MODEL 8
REMARK VINA RESULT:      -2.8     17.348     17.468
REMARK  2 active torsions:
REMARK  status: ('A' for Active; 'I' for Inactive)
REMARK    1  A    between atoms: N_1  and  C_2 
REMARK    2  A    between atoms: C_2  and  C_3 
REMARK       I    between atoms: C_3  and  N_4 
ROOT
HETATM    1  C   UNK N   1      35.340  16.269  10.396  0.00  0.00     0.232 C 
HETATM    2  N   UNK N   1      34.639  17.309   9.907  0.00  0.00    -0.369 N 
HETATM    3  O   UNK N   1      36.497  16.436  10.757  0.00  0.00    -0.272 OA
HETATM    4  H   UNK N   1      35.058  18.197   9.842  0.00  0.00     0.159 HD
HETATM    5  H   UNK N   1      33.708  17.181   9.615  0.00  0.00     0.159 HD
ENDROOT
BRANCH   1   6
HETATM    6  C   UNK N   1      34.688  14.920  10.489  0.00  0.00     0.214 C 
BRANCH   6   7
HETATM    7  N   UNK N   1      33.268  15.022  10.788  0.00  0.00    -0.422 N 
HETATM    8  H   UNK N   1      32.583  14.602  10.160  0.00  0.00     0.150 HD
HETATM    9  H   UNK N   1      32.957  15.513  11.626  0.00  0.00     0.150 HD
ENDBRANCH   6   7
ENDBRANCH   1   6
TORSDOF 2
ENDMDL
MODEL 9
REMARK VINA RESULT:      -2.7     22.879     23.292
REMARK  2 active torsions:
REMARK  status: ('A' for Active; 'I' for Inactive)
REMARK    1  A    between atoms: N_1  and  C_2 
REMARK    2  A    between atoms: C_2  and  C_3 
REMARK       I    between atoms: C_3  and  N_4 
ROOT
HETATM    1  C   UNK N   1      43.665  23.079   3.629  0.00  0.00     0.232 C 
HETATM    2  N   UNK N   1      44.134  22.288   4.612  0.00  0.00    -0.369 N 
HETATM    3  O   UNK N   1      44.143  24.194   3.469  0.00  0.00    -0.272 OA
HETATM    4  H   UNK N   1      44.857  22.608   5.198  0.00  0.00     0.159 HD
HETATM    5  H   UNK N   1      43.753  21.391   4.745  0.00  0.00     0.159 HD
ENDROOT
BRANCH   1   6
HETATM    6  C   UNK N   1      42.561  22.577   2.743  0.00  0.00     0.214 C 
BRANCH   6   7
HETATM    7  N   UNK N   1      41.835  23.666   2.110  0.00  0.00    -0.422 N 
HETATM    8  H   UNK N   1      41.072  24.127   2.606  0.00  0.00     0.150 HD
HETATM    9  H   UNK N   1      42.088  23.970   1.170  0.00  0.00     0.150 HD
ENDBRANCH   6   7
ENDBRANCH   1   6
TORSDOF 2
ENDMDL
