MODEL 1
REMARK VINA RESULT:      -5.1      0.000      0.000
REMARK  5 active torsions:
REMARK  status: ('A' for Active; 'I' for Inactive)
REMARK    1  A    between atoms: O_1  and  N_2 
REMARK       I    between atoms: N_2  and  C_3 
REMARK    2  A    between atoms: C_3  and  C_5 
REMARK    3  A    between atoms: C_5  and  P_6 
REMARK    4  A    between atoms: P_6  and  O_7 
REMARK    5  A    between atoms: P_6  and  O_8 
ROOT
HETATM    1  C   UNK N   1      20.709  19.464   3.357  0.00  0.00     0.229 C 
ENDROOT
BRANCH   1   2
HETATM    2  C   UNK N   1      21.080  20.391   2.237  0.00  0.00     0.252 C 
HETATM    3  N   UNK N   1      20.569  20.147   1.007  0.00  0.00    -0.237 N 
HETATM    4  H   UNK N   1      19.990  19.363   0.866  0.00  0.00     0.197 HD
HETATM    5  O   UNK N   1      21.791  21.354   2.436  0.00  0.00    -0.271 OA
BRANCH   3   6
HETATM    6  O   UNK N   1      20.845  20.966  -0.023  0.00  0.00    -0.287 OA
HETATM    7  H   UNK N   1      20.165  21.558  -0.378  0.00  0.00     0.244 HD
ENDBRANCH   3   6
ENDBRANCH   1   2
BRANCH   1   8
HETATM    8  P   UNK N   1      19.722  17.949   2.874  0.00  0.00     0.244 P 
HETATM    9  O   UNK N   1      20.039  17.208   1.545  0.00  0.00    -0.653 OA
BRANCH   8  10
HETATM   10  O   UNK N   1      18.989  16.841   3.998  0.00  0.00    -0.329 OA
HETATM   11  H   UNK N   1      19.219  15.937   4.263  0.00  0.00     0.220 HD
ENDBRANCH   8  10
BRANCH   8  12
HETATM   12  O   UNK N   1      18.293  18.759   2.366  0.00  0.00    -0.329 OA
HETATM   13  H   UNK N   1      17.344  18.630   2.519  0.00  0.00     0.220 HD
ENDBRANCH   8  12
ENDBRANCH   1   8
TORSDOF 5
ENDMDL
MODEL 2
REMARK VINA RESULT:      -4.3     15.158     16.151
REMARK  5 active torsions:
REMARK  status: ('A' for Active; 'I' for Inactive)
REMARK    1  A    between atoms: O_1  and  N_2 
REMARK       I    between atoms: N_2  and  C_3 
REMARK    2  A    between atoms: C_3  and  C_5 
REMARK    3  A    between atoms: C_5  and  P_6 
REMARK    4  A    between atoms: P_6  and  O_7 
REMARK    5  A    between atoms: P_6  and  O_8 
ROOT
HETATM    1  C   UNK N   1      34.806  16.023   8.015  0.00  0.00     0.229 C 
ENDROOT
BRANCH   1   2
HETATM    2  C   UNK N   1      34.445  15.211   9.225  0.00  0.00     0.252 C 
HETATM    3  N   UNK N   1      33.519  15.709  10.079  0.00  0.00    -0.237 N 
HETATM    4  H   UNK N   1      33.122  16.593   9.905  0.00  0.00     0.197 HD
HETATM    5  O   UNK N   1      34.945  14.122   9.415  0.00  0.00    -0.271 OA
BRANCH   3   6
HETATM    6  O   UNK N   1      33.139  15.008  11.160  0.00  0.00    -0.287 OA
HETATM    7  H   UNK N   1      32.848  15.462  11.965  0.00  0.00     0.244 HD
ENDBRANCH   3   6
ENDBRANCH   1   2
BRANCH   1   8
HETATM    8  P   UNK N   1      34.244  17.808   8.028  0.00  0.00     0.244 P 
HETATM    9  O   UNK N   1      32.751  18.149   8.296  0.00  0.00    -0.653 OA
BRANCH   8  10
HETATM   10  O   UNK N   1      35.240  19.160   8.482  0.00  0.00    -0.329 OA
HETATM   11  H   UNK N   1      35.618  19.432   9.333  0.00  0.00     0.220 HD
ENDBRANCH   8  10
BRANCH   8  12
HETATM   12  O   UNK N   1      34.249  18.063   6.328  0.00  0.00    -0.329 OA
HETATM   13  H   UNK N   1      33.618  17.897   5.610  0.00  0.00     0.220 HD
ENDBRANCH   8  12
ENDBRANCH   1   8
TORSDOF 5
ENDMDL
MODEL 3
REMARK VINA RESULT:      -4.2     15.479     16.121
REMARK  5 active torsions:
REMARK  status: ('A' for Active; 'I' for Inactive)
REMARK    1  A    between atoms: O_1  and  N_2 
REMARK       I    between atoms: N_2  and  C_3 
REMARK    2  A    between atoms: C_3  and  C_5 
REMARK    3  A    between atoms: C_5  and  P_6 
REMARK    4  A    between atoms: P_6  and  O_7 
REMARK    5  A    between atoms: P_6  and  O_8 
ROOT
HETATM    1  C   UNK N   1      33.965  15.980   8.141  0.00  0.00     0.229 C 
ENDROOT
BRANCH   1   2
HETATM    2  C   UNK N   1      34.425  17.370   7.813  0.00  0.00     0.252 C 
HETATM    3  N   UNK N   1      34.896  18.144   8.819  0.00  0.00    -0.237 N 
HETATM    4  H   UNK N   1      34.906  17.794   9.740  0.00  0.00     0.197 HD
HETATM    5  O   UNK N   1      34.408  17.778   6.670  0.00  0.00    -0.271 OA
BRANCH   3   6
HETATM    6  O   UNK N   1      35.349  19.385   8.573  0.00  0.00    -0.287 OA
HETATM    7  H   UNK N   1      35.398  19.722   7.665  0.00  0.00     0.244 HD
ENDBRANCH   3   6
ENDBRANCH   1   2
BRANCH   1   8
HETATM    8  P   UNK N   1      34.346  15.377   9.871  0.00  0.00     0.244 P 
HETATM    9  O   UNK N   1      34.865  13.928  10.091  0.00  0.00    -0.653 OA
BRANCH   8  10
HETATM   10  O   UNK N   1      34.876  16.391  11.182  0.00  0.00    -0.329 OA
HETATM   11  H   UNK N   1      34.537  16.520  12.082  0.00  0.00     0.220 HD
ENDBRANCH   8  10
BRANCH   8  12
HETATM   12  O   UNK N   1      32.725  15.136  10.392  0.00  0.00    -0.329 OA
HETATM   13  H   UNK N   1      31.882  14.964   9.944  0.00  0.00     0.220 HD
ENDBRANCH   8  12
ENDBRANCH   1   8
TORSDOF 5
ENDMDL
MODEL 4
REMARK VINA RESULT:      -4.0      1.912      3.734
REMARK  5 active torsions:
REMARK  status: ('A' for Active; 'I' for Inactive)
REMARK    1  A    between atoms: O_1  and  N_2 
REMARK       I    between atoms: N_2  and  C_3 
REMARK    2  A    between atoms: C_3  and  C_5 
REMARK    3  A    between atoms: C_5  and  P_6 
REMARK    4  A    between atoms: P_6  and  O_7 
REMARK    5  A    between atoms: P_6  and  O_8 
ROOT
HETATM    1  C   UNK N   1      20.919  18.649   3.083  0.00  0.00     0.229 C 
ENDROOT
BRANCH   1   2
HETATM    2  C   UNK N   1      20.416  17.675   2.058  0.00  0.00     0.252 C 
HETATM    3  N   UNK N   1      20.305  18.095   0.775  0.00  0.00    -0.237 N 
HETATM    4  H   UNK N   1      20.532  19.026   0.545  0.00  0.00     0.197 HD
HETATM    5  O   UNK N   1      20.147  16.532   2.364  0.00  0.00    -0.271 OA
BRANCH   3   6
HETATM    6  O   UNK N   1      19.889  17.253  -0.187  0.00  0.00    -0.287 OA
HETATM    7  H   UNK N   1      20.338  16.406  -0.328  0.00  0.00     0.244 HD
ENDBRANCH   3   6
ENDBRANCH   1   2
BRANCH   1   8
HETATM    8  P   UNK N   1      21.208  20.398   2.481  0.00  0.00     0.244 P 
HETATM    9  O   UNK N   1      22.547  21.118   2.805  0.00  0.00    -0.653 OA
BRANCH   8  10
HETATM   10  O   UNK N   1      20.514  21.079   1.039  0.00  0.00    -0.329 OA
HETATM   11  H   UNK N   1      20.915  21.468   0.246  0.00  0.00     0.220 HD
ENDBRANCH   8  10
BRANCH   8  12
HETATM   12  O   UNK N   1      20.214  21.203   3.631  0.00  0.00    -0.329 OA
HETATM   13  H   UNK N   1      19.762  20.938   4.447  0.00  0.00     0.220 HD
ENDBRANCH   8  12
ENDBRANCH   1   8
TORSDOF 5
ENDMDL
MODEL 5
REMARK VINA RESULT:      -4.0     24.252     25.442
REMARK  5 active torsions:
REMARK  status: ('A' for Active; 'I' for Inactive)
REMARK    1  A    between atoms: O_1  and  N_2 
REMARK       I    between atoms: N_2  and  C_3 
REMARK    2  A    between atoms: C_3  and  C_5 
REMARK    3  A    between atoms: C_5  and  P_6 
REMARK    4  A    between atoms: P_6  and  O_7 
REMARK    5  A    between atoms: P_6  and  O_8 
ROOT
HETATM    1  C   UNK N   1      44.672  23.812   1.783  0.00  0.00     0.229 C 
ENDROOT
BRANCH   1   2
HETATM    2  C   UNK N   1      45.695  24.882   2.033  0.00  0.00     0.252 C 
HETATM    3  N   UNK N   1      46.901  24.770   1.426  0.00  0.00    -0.237 N 
HETATM    4  H   UNK N   1      47.090  23.988   0.859  0.00  0.00     0.197 HD
HETATM    5  O   UNK N   1      45.436  25.839   2.733  0.00  0.00    -0.271 OA
BRANCH   3   6
HETATM    6  O   UNK N   1      47.840  25.717   1.593  0.00  0.00    -0.287 OA
HETATM    7  H   UNK N   1      48.781  25.494   1.532  0.00  0.00     0.244 HD
ENDBRANCH   3   6
ENDBRANCH   1   2
BRANCH   1   8
HETATM    8  P   UNK N   1      44.167  22.797   3.272  0.00  0.00     0.244 P 
HETATM    9  O   UNK N   1      42.890  21.912   3.211  0.00  0.00    -0.653 OA
BRANCH   8  10
HETATM   10  O   UNK N   1      45.269  22.147   4.451  0.00  0.00    -0.329 OA
HETATM   11  H   UNK N   1      45.813  22.569   5.134  0.00  0.00     0.220 HD
ENDBRANCH   8  10
BRANCH   8  12
HETATM   12  O   UNK N   1      43.529  24.081   4.220  0.00  0.00    -0.329 OA
HETATM   13  H   UNK N   1      43.856  24.607   4.967  0.00  0.00     0.220 HD
ENDBRANCH   8  12
ENDBRANCH   1   8
TORSDOF 5
ENDMDL
MODEL 6
REMARK VINA RESULT:      -4.0      2.047      4.182
REMARK  5 active torsions:
REMARK  status: ('A' for Active; 'I' for Inactive)
REMARK    1  A    between atoms: O_1  and  N_2 
REMARK       I    between atoms: N_2  and  C_3 
REMARK    2  A    between atoms: C_3  and  C_5 
REMARK    3  A    between atoms: C_5  and  P_6 
REMARK    4  A    between atoms: P_6  and  O_7 
REMARK    5  A    between atoms: P_6  and  O_8 
ROOT
HETATM    1  C   UNK N   1      20.679  19.033   1.488  0.00  0.00     0.229 C 
ENDROOT
BRANCH   1   2
HETATM    2  C   UNK N   1      20.259  17.786   2.211  0.00  0.00     0.252 C 
HETATM    3  N   UNK N   1      19.328  17.895   3.189  0.00  0.00    -0.237 N 
HETATM    4  H   UNK N   1      18.966  18.781   3.421  0.00  0.00     0.197 HD
HETATM    5  O   UNK N   1      20.716  16.705   1.903  0.00  0.00    -0.271 OA
BRANCH   3   6
HETATM    6  O   UNK N   1      18.895  16.805   3.845  0.00  0.00    -0.287 OA
HETATM    7  H   UNK N   1      18.331  16.892   4.628  0.00  0.00     0.244 HD
ENDBRANCH   3   6
ENDBRANCH   1   2
BRANCH   1   8
HETATM    8  P   UNK N   1      21.173  20.480   2.569  0.00  0.00     0.244 P 
HETATM    9  O   UNK N   1      20.290  20.875   3.786  0.00  0.00    -0.653 OA
BRANCH   8  10
HETATM   10  O   UNK N   1      22.810  21.002   2.842  0.00  0.00    -0.329 OA
HETATM   11  H   UNK N   1      23.524  21.246   2.233  0.00  0.00     0.220 HD
ENDBRANCH   8  10
BRANCH   8  12
HETATM   12  O   UNK N   1      20.692  21.738   1.500  0.00  0.00    -0.329 OA
HETATM   13  H   UNK N   1      21.008  22.064   0.643  0.00  0.00     0.220 HD
ENDBRANCH   8  12
ENDBRANCH   1   8
TORSDOF 5
ENDMDL
MODEL 7
REMARK VINA RESULT:      -4.0     19.296     20.085
REMARK  5 active torsions:
REMARK  status: ('A' for Active; 'I' for Inactive)
REMARK    1  A    between atoms: O_1  and  N_2 
REMARK       I    between atoms: N_2  and  C_3 
REMARK    2  A    between atoms: C_3  and  C_5 
REMARK    3  A    between atoms: C_5  and  P_6 
REMARK    4  A    between atoms: P_6  and  O_7 
REMARK    5  A    between atoms: P_6  and  O_8 
ROOT
HETATM    1  C   UNK N   1      35.286  13.656  12.091  0.00  0.00     0.229 C 
ENDROOT
BRANCH   1   2
HETATM    2  C   UNK N   1      35.665  13.857  13.530  0.00  0.00     0.252 C 
HETATM    3  N   UNK N   1      36.788  14.561  13.805  0.00  0.00    -0.237 N 
HETATM    4  H   UNK N   1      37.341  14.905  13.066  0.00  0.00     0.197 HD
HETATM    5  O   UNK N   1      34.964  13.429  14.423  0.00  0.00    -0.271 OA
BRANCH   3   6
HETATM    6  O   UNK N   1      37.154  14.796  15.077  0.00  0.00    -0.287 OA
HETATM    7  H   UNK N   1      36.742  14.309  15.806  0.00  0.00     0.244 HD
ENDBRANCH   3   6
ENDBRANCH   1   2
BRANCH   1   8
HETATM    8  P   UNK N   1      36.424  14.437  10.828  0.00  0.00     0.244 P 
HETATM    9  O   UNK N   1      36.359  13.986   9.341  0.00  0.00    -0.653 OA
BRANCH   8  10
HETATM   10  O   UNK N   1      37.041  16.061  10.916  0.00  0.00    -0.329 OA
HETATM   11  H   UNK N   1      37.681  16.482  11.512  0.00  0.00     0.220 HD
ENDBRANCH   8  10
BRANCH   8  12
HETATM   12  O   UNK N   1      37.863  13.607  11.270  0.00  0.00    -0.329 OA
HETATM   13  H   UNK N   1      38.811  13.771  11.148  0.00  0.00     0.220 HD
ENDBRANCH   8  12
ENDBRANCH   1   8
TORSDOF 5
ENDMDL
MODEL 8
REMARK VINA RESULT:      -4.0     15.829     16.796
REMARK  5 active torsions:
REMARK  status: ('A' for Active; 'I' for Inactive)
REMARK    1  A    between atoms: O_1  and  N_2 
REMARK       I    between atoms: N_2  and  C_3 
REMARK    2  A    between atoms: C_3  and  C_5 
REMARK    3  A    between atoms: C_5  and  P_6 
REMARK    4  A    between atoms: P_6  and  O_7 
REMARK    5  A    between atoms: P_6  and  O_8 
ROOT
HETATM    1  C   UNK N   1      34.195  16.403   9.062  0.00  0.00     0.229 C 
ENDROOT
BRANCH   1   2
HETATM    2  C   UNK N   1      35.250  16.311  10.126  0.00  0.00     0.252 C 
HETATM    3  N   UNK N   1      36.161  15.313  10.042  0.00  0.00    -0.237 N 
HETATM    4  H   UNK N   1      36.103  14.661   9.306  0.00  0.00     0.197 HD
HETATM    5  O   UNK N   1      35.304  17.130  11.020  0.00  0.00    -0.271 OA
BRANCH   3   6
HETATM    6  O   UNK N   1      37.144  15.206  10.952  0.00  0.00    -0.287 OA
HETATM    7  H   UNK N   1      38.065  15.381  10.706  0.00  0.00     0.244 HD
ENDBRANCH   3   6
ENDBRANCH   1   2
BRANCH   1   8
HETATM    8  P   UNK N   1      34.282  17.905   7.949  0.00  0.00     0.244 P 
HETATM    9  O   UNK N   1      35.051  19.173   8.417  0.00  0.00    -0.653 OA
BRANCH   8  10
HETATM   10  O   UNK N   1      34.240  17.858   6.211  0.00  0.00    -0.329 OA
HETATM   11  H   UNK N   1      33.764  18.394   5.558  0.00  0.00     0.220 HD
ENDBRANCH   8  10
BRANCH   8  12
HETATM   12  O   UNK N   1      32.683  18.480   8.215  0.00  0.00    -0.329 OA
HETATM   13  H   UNK N   1      32.106  18.559   8.991  0.00  0.00     0.220 HD
ENDBRANCH   8  12
ENDBRANCH   1   8
TORSDOF 5
ENDMDL
MODEL 9
REMARK VINA RESULT:      -3.9     22.014     23.341
REMARK  5 active torsions:
REMARK  status: ('A' for Active; 'I' for Inactive)
REMARK    1  A    between atoms: O_1  and  N_2 
REMARK       I    between atoms: N_2  and  C_3 
REMARK    2  A    between atoms: C_3  and  C_5 
REMARK    3  A    between atoms: C_5  and  P_6 
REMARK    4  A    between atoms: P_6  and  O_7 
REMARK    5  A    between atoms: P_6  and  O_8 
ROOT
HETATM    1  C   UNK N   1      42.790  21.814   2.869  0.00  0.00     0.229 C 
ENDROOT
BRANCH   1   2
HETATM    2  C   UNK N   1      41.643  22.613   2.321  0.00  0.00     0.252 C 
HETATM    3  N   UNK N   1      41.885  23.879   1.906  0.00  0.00    -0.237 N 
HETATM    4  H   UNK N   1      42.791  24.256   1.991  0.00  0.00     0.197 HD
HETATM    5  O   UNK N   1      40.536  22.125   2.221  0.00  0.00    -0.271 OA
BRANCH   3   6
HETATM    6  O   UNK N   1      40.899  24.626   1.379  0.00  0.00    -0.287 OA
HETATM    7  H   UNK N   1      41.086  25.261   0.671  0.00  0.00     0.244 HD
ENDBRANCH   3   6
ENDBRANCH   1   2
BRANCH   1   8
HETATM    8  P   UNK N   1      44.336  22.781   3.288  0.00  0.00     0.244 P 
HETATM    9  O   UNK N   1      44.254  24.318   3.507  0.00  0.00    -0.653 OA
BRANCH   8  10
HETATM   10  O   UNK N   1      45.704  22.141   4.152  0.00  0.00    -0.329 OA
HETATM   11  H   UNK N   1      46.064  22.332   5.032  0.00  0.00     0.220 HD
ENDBRANCH   8  10
BRANCH   8  12
HETATM   12  O   UNK N   1      45.030  22.797   1.714  0.00  0.00    -0.329 OA
HETATM   13  H   UNK N   1      44.678  22.881   0.814  0.00  0.00     0.220 HD
ENDBRANCH   8  12
ENDBRANCH   1   8
TORSDOF 5
ENDMDL
