MODEL 1
REMARK VINA RESULT:      -7.1      0.000      0.000
REMARK  11 active torsions:
REMARK  status: ('A' for Active; 'I' for Inactive)
REMARK    1  A    between atoms: C_6  and  C_4 
REMARK    2  A    between atoms: O_22  and  C_4 
REMARK    3  A    between atoms: C_5  and  O_14 
REMARK    4  A    between atoms: O_15  and  C_7 
REMARK    5  A    between atoms: C_8  and  N_13 
REMARK    6  A    between atoms: P_24  and  N_12 
REMARK    7  A    between atoms: P_25  and  N_12 
REMARK    8  A    between atoms: P_24  and  O_18 
REMARK    9  A    between atoms: P_24  and  O_19 
REMARK   10  A    between atoms: P_25  and  O_21 
REMARK   11  A    between atoms: P_25  and  O_22 
ROOT
HETATM    1  C   UNK N   1      20.655  16.471   8.348  0.00  0.00     0.088 C 
HETATM    2  C   UNK N   1      20.697  17.225   7.066  0.00  0.00     0.153 C 
HETATM    3  C   UNK N   1      21.729  16.398   6.330  0.00  0.00     0.177 C 
HETATM    4  C   UNK N   1      20.659  15.046   7.800  0.00  0.00     0.235 C 
HETATM    5  O   UNK N   1      21.413  15.049   6.596  0.00  0.00    -0.356 OA
ENDROOT
BRANCH   3   6
HETATM    6  C   UNK N   1      21.692  16.707   4.835  0.00  0.00     0.214 C 
BRANCH   6   7
HETATM    7  O   UNK N   1      20.590  17.507   4.493  0.00  0.00    -0.300 OA
BRANCH   7   8
HETATM    8  P   UNK N   1      21.057  18.518   3.150  0.00  0.00     0.353 P 
HETATM    9  O   UNK N   1      21.284  19.456   4.368  0.00  0.00    -0.637 OA
BRANCH   8  10
HETATM   10  N   UNK N   1      20.005  19.948   2.741  0.00  0.00    -0.240 N 
HETATM   11  H   UNK N   1      19.167  20.181   3.273  0.00  0.00     0.176 HD
BRANCH  10  12
HETATM   12  P   UNK N   1      20.562  20.936   1.304  0.00  0.00     0.351 P 
HETATM   13  O   UNK N   1      22.045  20.576   1.020  0.00  0.00    -0.637 OA
BRANCH  12  14
HETATM   14  O   UNK N   1      21.468  21.625   2.615  0.00  0.00    -0.312 OA
HETATM   15  H   UNK N   1      22.033  21.078   3.182  0.00  0.00     0.221 HD
ENDBRANCH  12  14
BRANCH  12  16
HETATM   16  O   UNK N   1      20.546  19.312   0.688  0.00  0.00    -0.312 OA
HETATM   17  H   UNK N   1      21.086  18.623   1.105  0.00  0.00     0.221 HD
ENDBRANCH  12  16
ENDBRANCH  10  12
ENDBRANCH   8  10
BRANCH   8  18
HETATM   18  O   UNK N   1      19.398  18.011   3.067  0.00  0.00    -0.312 OA
HETATM   19  H   UNK N   1      18.548  18.443   3.245  0.00  0.00     0.222 HD
ENDBRANCH   8  18
ENDBRANCH   7   8
ENDBRANCH   6   7
ENDBRANCH   3   6
BRANCH   2  20
HETATM   20  O   UNK N   1      21.091  18.553   7.237  0.00  0.00    -0.393 OA
HETATM   21  H   UNK N   1      21.470  19.337   6.812  0.00  0.00     0.210 HD
ENDBRANCH   2  20
BRANCH   4  22
HETATM   22  N   UNK N   1      21.151  14.083   8.811  0.00  0.00    -0.282 N 
HETATM   23  C   UNK N   1      22.439  13.648   8.679  0.00  0.00     0.102 A 
HETATM   24  C   UNK N   1      23.000  12.770   9.600  0.00  0.00     0.073 A 
HETATM   25  C   UNK N   1      22.230  12.339  10.670  0.00  0.00     0.144 A 
HETATM   26  N   UNK N   1      20.950  12.768  10.797  0.00  0.00    -0.289 N 
HETATM   27  C   UNK N   1      20.396  13.631   9.888  0.00  0.00     0.330 A 
ATOM     28  HN  UNK N   1      20.388  12.442  11.585  1.00  0.00     0.172 HD
HETATM   29  O   UNK N   1      19.244  13.996  10.047  0.00  0.00    -0.246 OA
BRANCH  25  30
HETATM   30  O   UNK N   1      22.752  11.502  11.581  0.00  0.00    -0.346 OA
HETATM   31  H   UNK N   1      23.146  10.693  11.317  0.00  0.00     0.219 HD
ENDBRANCH  25  30
ENDBRANCH   4  22
TORSDOF 11
ENDMDL
MODEL 2
REMARK VINA RESULT:      -6.8     14.149     16.384
REMARK  11 active torsions:
REMARK  status: ('A' for Active; 'I' for Inactive)
REMARK    1  A    between atoms: C_6  and  C_4 
REMARK    2  A    between atoms: O_22  and  C_4 
REMARK    3  A    between atoms: C_5  and  O_14 
REMARK    4  A    between atoms: O_15  and  C_7 
REMARK    5  A    between atoms: C_8  and  N_13 
REMARK    6  A    between atoms: P_24  and  N_12 
REMARK    7  A    between atoms: P_25  and  N_12 
REMARK    8  A    between atoms: P_24  and  O_18 
REMARK    9  A    between atoms: P_24  and  O_19 
REMARK   10  A    between atoms: P_25  and  O_21 
REMARK   11  A    between atoms: P_25  and  O_22 
ROOT
HETATM    1  C   UNK N   1      37.098  12.888  15.149  0.00  0.00     0.088 C 
HETATM    2  C   UNK N   1      36.844  13.058  13.693  0.00  0.00     0.153 C 
HETATM    3  C   UNK N   1      35.409  12.581  13.638  0.00  0.00     0.177 C 
HETATM    4  C   UNK N   1      35.787  13.444  15.698  0.00  0.00     0.235 C 
HETATM    5  O   UNK N   1      34.764  13.146  14.759  0.00  0.00    -0.356 OA
ENDROOT
BRANCH   3   6
HETATM    6  C   UNK N   1      34.754  13.012  12.327  0.00  0.00     0.214 C 
BRANCH   6   7
HETATM    7  O   UNK N   1      34.476  14.388  12.309  0.00  0.00    -0.300 OA
BRANCH   7   8
HETATM    8  P   UNK N   1      34.984  15.017  10.763  0.00  0.00     0.353 P 
HETATM    9  O   UNK N   1      35.769  15.912  11.761  0.00  0.00    -0.637 OA
BRANCH   8  10
HETATM   10  N   UNK N   1      34.441  16.692  10.293  0.00  0.00    -0.240 N 
HETATM   11  H   UNK N   1      34.269  17.425  10.981  0.00  0.00     0.176 HD
BRANCH  10  12
HETATM   12  P   UNK N   1      34.226  16.963   8.495  0.00  0.00     0.351 P 
HETATM   13  O   UNK N   1      33.272  15.865   7.954  0.00  0.00    -0.637 OA
BRANCH  12  14
HETATM   14  O   UNK N   1      35.137  15.485   8.553  0.00  0.00    -0.312 OA
HETATM   15  H   UNK N   1      34.739  14.636   8.305  0.00  0.00     0.221 HD
ENDBRANCH  12  14
BRANCH  12  16
HETATM   16  O   UNK N   1      32.659  17.336   9.144  0.00  0.00    -0.312 OA
HETATM   17  H   UNK N   1      32.501  18.182   9.591  0.00  0.00     0.221 HD
ENDBRANCH  12  16
ENDBRANCH  10  12
ENDBRANCH   8  10
BRANCH   8  18
HETATM   18  O   UNK N   1      33.272  15.165  11.022  0.00  0.00    -0.312 OA
HETATM   19  H   UNK N   1      32.646  15.905  11.003  0.00  0.00     0.222 HD
ENDBRANCH   8  18
ENDBRANCH   7   8
ENDBRANCH   6   7
ENDBRANCH   3   6
BRANCH   2  20
HETATM   20  O   UNK N   1      37.700  12.288  12.904  0.00  0.00    -0.393 OA
HETATM   21  H   UNK N   1      37.900  11.975  12.009  0.00  0.00     0.210 HD
ENDBRANCH   2  20
BRANCH   4  22
HETATM   22  N   UNK N   1      35.515  12.932  17.060  0.00  0.00    -0.282 N 
HETATM   23  C   UNK N   1      35.397  11.579  17.203  0.00  0.00     0.102 A 
HETATM   24  C   UNK N   1      35.176  11.003  18.449  0.00  0.00     0.073 A 
HETATM   25  C   UNK N   1      35.080  11.828  19.561  0.00  0.00     0.144 A 
HETATM   26  N   UNK N   1      35.193  13.172  19.417  0.00  0.00    -0.289 N 
HETATM   27  C   UNK N   1      35.408  13.739  18.188  0.00  0.00     0.330 A 
ATOM     28  HN  UNK N   1      35.116  13.771  20.239  1.00  0.00     0.172 HD
HETATM   29  O   UNK N   1      35.510  14.950  18.108  0.00  0.00    -0.246 OA
BRANCH  25  30
HETATM   30  O   UNK N   1      34.880  11.296  20.778  0.00  0.00    -0.346 OA
HETATM   31  H   UNK N   1      34.363  11.745  21.417  0.00  0.00     0.219 HD
ENDBRANCH  25  30
ENDBRANCH   4  22
TORSDOF 11
ENDMDL
MODEL 3
REMARK VINA RESULT:      -6.8     13.761     15.667
REMARK  11 active torsions:
REMARK  status: ('A' for Active; 'I' for Inactive)
REMARK    1  A    between atoms: C_6  and  C_4 
REMARK    2  A    between atoms: O_22  and  C_4 
REMARK    3  A    between atoms: C_5  and  O_14 
REMARK    4  A    between atoms: O_15  and  C_7 
REMARK    5  A    between atoms: C_8  and  N_13 
REMARK    6  A    between atoms: P_24  and  N_12 
REMARK    7  A    between atoms: P_25  and  N_12 
REMARK    8  A    between atoms: P_24  and  O_18 
REMARK    9  A    between atoms: P_24  and  O_19 
REMARK   10  A    between atoms: P_25  and  O_21 
REMARK   11  A    between atoms: P_25  and  O_22 
ROOT
HETATM    1  C   UNK N   1      36.906  13.069  14.023  0.00  0.00     0.088 C 
HETATM    2  C   UNK N   1      36.679  13.804  12.749  0.00  0.00     0.153 C 
HETATM    3  C   UNK N   1      35.308  13.268  12.399  0.00  0.00     0.177 C 
HETATM    4  C   UNK N   1      35.526  13.229  14.654  0.00  0.00     0.235 C 
HETATM    5  O   UNK N   1      34.571  13.257  13.602  0.00  0.00    -0.356 OA
ENDROOT
BRANCH   3   6
HETATM    6  C   UNK N   1      34.650  14.143  11.335  0.00  0.00     0.214 C 
BRANCH   6   7
HETATM    7  O   UNK N   1      35.214  15.428  11.292  0.00  0.00    -0.300 OA
BRANCH   7   8
HETATM    8  P   UNK N   1      34.962  16.070   9.689  0.00  0.00     0.353 P 
HETATM    9  O   UNK N   1      35.685  17.243  10.409  0.00  0.00    -0.637 OA
BRANCH   8  10
HETATM   10  N   UNK N   1      33.777  17.440   9.486  0.00  0.00    -0.240 N 
HETATM   11  H   UNK N   1      33.289  17.864  10.276  0.00  0.00     0.176 HD
BRANCH  10  12
HETATM   12  P   UNK N   1      33.528  18.002   7.762  0.00  0.00     0.351 P 
HETATM   13  O   UNK N   1      34.758  17.555   6.929  0.00  0.00    -0.637 OA
BRANCH  12  14
HETATM   14  O   UNK N   1      34.843  18.999   8.302  0.00  0.00    -0.312 OA
HETATM   15  H   UNK N   1      35.491  18.676   8.947  0.00  0.00     0.221 HD
ENDBRANCH  12  14
BRANCH  12  16
HETATM   16  O   UNK N   1      33.413  16.273   7.638  0.00  0.00    -0.312 OA
HETATM   17  H   UNK N   1      34.189  15.717   7.806  0.00  0.00     0.221 HD
ENDBRANCH  12  16
ENDBRANCH  10  12
ENDBRANCH   8  10
BRANCH   8  18
HETATM   18  O   UNK N   1      33.476  15.677  10.500  0.00  0.00    -0.312 OA
HETATM   19  H   UNK N   1      33.197  15.651  11.428  0.00  0.00     0.222 HD
ENDBRANCH   8  18
ENDBRANCH   7   8
ENDBRANCH   6   7
ENDBRANCH   3   6
BRANCH   2  20
HETATM   20  O   UNK N   1      37.639  13.510  11.781  0.00  0.00    -0.393 OA
HETATM   21  H   UNK N   1      38.124  13.837  11.008  0.00  0.00     0.210 HD
ENDBRANCH   2  20
BRANCH   4  22
HETATM   22  N   UNK N   1      35.270  12.177  15.663  0.00  0.00    -0.282 N 
HETATM   23  C   UNK N   1      35.041  10.913  15.198  0.00  0.00     0.102 A 
HETATM   24  C   UNK N   1      34.827   9.852  16.072  0.00  0.00     0.073 A 
HETATM   25  C   UNK N   1      34.854  10.094  17.438  0.00  0.00     0.144 A 
HETATM   26  N   UNK N   1      35.077  11.350  17.898  0.00  0.00    -0.289 N 
HETATM   27  C   UNK N   1      35.285  12.395  17.036  0.00  0.00     0.330 A 
ATOM     28  HN  UNK N   1      35.090  11.519  18.904  1.00  0.00     0.172 HD
HETATM   29  O   UNK N   1      35.490  13.505  17.495  0.00  0.00    -0.246 OA
BRANCH  25  30
HETATM   30  O   UNK N   1      34.662   9.085  18.303  0.00  0.00    -0.346 OA
HETATM   31  H   UNK N   1      35.194   8.313  18.264  0.00  0.00     0.219 HD
ENDBRANCH  25  30
ENDBRANCH   4  22
TORSDOF 11
ENDMDL
MODEL 4
REMARK VINA RESULT:      -6.7     12.493     15.004
REMARK  11 active torsions:
REMARK  status: ('A' for Active; 'I' for Inactive)
REMARK    1  A    between atoms: C_6  and  C_4 
REMARK    2  A    between atoms: O_22  and  C_4 
REMARK    3  A    between atoms: C_5  and  O_14 
REMARK    4  A    between atoms: O_15  and  C_7 
REMARK    5  A    between atoms: C_8  and  N_13 
REMARK    6  A    between atoms: P_24  and  N_12 
REMARK    7  A    between atoms: P_25  and  N_12 
REMARK    8  A    between atoms: P_24  and  O_18 
REMARK    9  A    between atoms: P_24  and  O_19 
REMARK   10  A    between atoms: P_25  and  O_21 
REMARK   11  A    between atoms: P_25  and  O_22 
ROOT
HETATM    1  C   UNK N   1      33.518  17.794   8.707  0.00  0.00     0.088 C 
HETATM    2  C   UNK N   1      34.599  16.824   9.029  0.00  0.00     0.153 C 
HETATM    3  C   UNK N   1      33.754  15.670   9.523  0.00  0.00     0.177 C 
HETATM    4  C   UNK N   1      32.531  16.851   8.025  0.00  0.00     0.235 C 
HETATM    5  O   UNK N   1      32.663  15.573   8.633  0.00  0.00    -0.356 OA
ENDROOT
BRANCH   3   6
HETATM    6  C   UNK N   1      34.576  14.384   9.558  0.00  0.00     0.214 C 
BRANCH   6   7
HETATM    7  O   UNK N   1      35.906  14.602   9.162  0.00  0.00    -0.300 OA
BRANCH   7   8
HETATM    8  P   UNK N   1      36.912  13.455  10.009  0.00  0.00     0.353 P 
HETATM    9  O   UNK N   1      35.573  13.370  10.794  0.00  0.00    -0.637 OA
BRANCH   8  10
HETATM   10  N   UNK N   1      37.432  13.855  11.709  0.00  0.00    -0.240 N 
HETATM   11  H   UNK N   1      38.406  14.029  11.956  0.00  0.00     0.176 HD
BRANCH  10  12
HETATM   12  P   UNK N   1      36.079  13.924  12.939  0.00  0.00     0.351 P 
HETATM   13  O   UNK N   1      36.611  14.660  14.197  0.00  0.00    -0.637 OA
BRANCH  12  14
HETATM   14  O   UNK N   1      37.209  12.830  13.675  0.00  0.00    -0.312 OA
HETATM   15  H   UNK N   1      36.968  11.913  13.876  0.00  0.00     0.221 HD
ENDBRANCH  12  14
BRANCH  12  16
HETATM   16  O   UNK N   1      36.275  15.585  12.469  0.00  0.00    -0.312 OA
HETATM   17  H   UNK N   1      35.543  16.067  12.054  0.00  0.00     0.221 HD
ENDBRANCH  12  16
ENDBRANCH  10  12
ENDBRANCH   8  10
BRANCH   8  18
HETATM   18  O   UNK N   1      37.547  15.071  10.054  0.00  0.00    -0.312 OA
HETATM   19  H   UNK N   1      37.540  15.783  10.712  0.00  0.00     0.222 HD
ENDBRANCH   8  18
ENDBRANCH   7   8
ENDBRANCH   6   7
ENDBRANCH   3   6
BRANCH   2  20
HETATM   20  O   UNK N   1      35.479  17.304  10.000  0.00  0.00    -0.393 OA
HETATM   21  H   UNK N   1      36.244  17.873  10.178  0.00  0.00     0.210 HD
ENDBRANCH   2  20
BRANCH   4  22
HETATM   22  N   UNK N   1      31.154  17.391   8.066  0.00  0.00    -0.282 N 
HETATM   23  C   UNK N   1      30.812  18.138   9.157  0.00  0.00     0.102 A 
HETATM   24  C   UNK N   1      29.553  18.717   9.268  0.00  0.00     0.073 A 
HETATM   25  C   UNK N   1      28.637  18.530   8.242  0.00  0.00     0.144 A 
HETATM   26  N   UNK N   1      28.976  17.784   7.161  0.00  0.00    -0.289 N 
HETATM   27  C   UNK N   1      30.216  17.212   7.054  0.00  0.00     0.330 A 
ATOM     28  HN  UNK N   1      28.294  17.648   6.414  1.00  0.00     0.172 HD
HETATM   29  O   UNK N   1      30.479  16.557   6.061  0.00  0.00    -0.246 OA
BRANCH  25  30
HETATM   30  O   UNK N   1      27.418  19.089   8.318  0.00  0.00    -0.346 OA
HETATM   31  H   UNK N   1      27.058  19.340   9.146  0.00  0.00     0.219 HD
ENDBRANCH  25  30
ENDBRANCH   4  22
TORSDOF 11
ENDMDL
MODEL 5
REMARK VINA RESULT:      -6.5     11.612     13.941
REMARK  11 active torsions:
REMARK  status: ('A' for Active; 'I' for Inactive)
REMARK    1  A    between atoms: C_6  and  C_4 
REMARK    2  A    between atoms: O_22  and  C_4 
REMARK    3  A    between atoms: C_5  and  O_14 
REMARK    4  A    between atoms: O_15  and  C_7 
REMARK    5  A    between atoms: C_8  and  N_13 
REMARK    6  A    between atoms: P_24  and  N_12 
REMARK    7  A    between atoms: P_25  and  N_12 
REMARK    8  A    between atoms: P_24  and  O_18 
REMARK    9  A    between atoms: P_24  and  O_19 
REMARK   10  A    between atoms: P_25  and  O_21 
REMARK   11  A    between atoms: P_25  and  O_22 
ROOT
HETATM    1  C   UNK N   1      31.449  16.255   6.927  0.00  0.00     0.088 C 
HETATM    2  C   UNK N   1      32.875  16.097   7.323  0.00  0.00     0.153 C 
HETATM    3  C   UNK N   1      33.167  17.517   7.755  0.00  0.00     0.177 C 
HETATM    4  C   UNK N   1      30.962  17.119   8.087  0.00  0.00     0.235 C 
HETATM    5  O   UNK N   1      32.045  17.941   8.498  0.00  0.00    -0.356 OA
ENDROOT
BRANCH   3   6
HETATM    6  C   UNK N   1      34.451  17.570   8.581  0.00  0.00     0.214 C 
BRANCH   6   7
HETATM    7  O   UNK N   1      34.988  16.290   8.794  0.00  0.00    -0.300 OA
BRANCH   7   8
HETATM    8  P   UNK N   1      34.798  15.905  10.485  0.00  0.00     0.353 P 
HETATM    9  O   UNK N   1      35.600  17.235  10.534  0.00  0.00    -0.637 OA
BRANCH   8  10
HETATM   10  N   UNK N   1      36.281  15.431  11.433  0.00  0.00    -0.240 N 
HETATM   11  H   UNK N   1      37.185  15.884  11.297  0.00  0.00     0.176 HD
BRANCH  10  12
HETATM   12  P   UNK N   1      36.030  14.084  12.646  0.00  0.00     0.351 P 
HETATM   13  O   UNK N   1      35.683  12.790  11.862  0.00  0.00    -0.637 OA
BRANCH  12  14
HETATM   14  O   UNK N   1      34.431  14.335  12.018  0.00  0.00    -0.312 OA
HETATM   15  H   UNK N   1      33.648  14.267  12.586  0.00  0.00     0.221 HD
ENDBRANCH  12  14
BRANCH  12  16
HETATM   16  O   UNK N   1      37.491  13.618  11.830  0.00  0.00    -0.312 OA
HETATM   17  H   UNK N   1      37.675  12.683  11.649  0.00  0.00     0.221 HD
ENDBRANCH  12  16
ENDBRANCH  10  12
ENDBRANCH   8  10
BRANCH   8  18
HETATM   18  O   UNK N   1      35.681  14.690   9.611  0.00  0.00    -0.312 OA
HETATM   19  H   UNK N   1      35.668  13.720   9.599  0.00  0.00     0.222 HD
ENDBRANCH   8  18
ENDBRANCH   7   8
ENDBRANCH   6   7
ENDBRANCH   3   6
BRANCH   2  20
HETATM   20  O   UNK N   1      33.683  15.676   6.266  0.00  0.00    -0.393 OA
HETATM   21  H   UNK N   1      34.563  15.366   6.004  0.00  0.00     0.210 HD
ENDBRANCH   2  20
BRANCH   4  22
HETATM   22  N   UNK N   1      29.744  17.876   7.719  0.00  0.00    -0.282 N 
HETATM   23  C   UNK N   1      29.401  17.895   6.397  0.00  0.00     0.102 A 
HETATM   24  C   UNK N   1      28.255  18.550   5.960  0.00  0.00     0.073 A 
HETATM   25  C   UNK N   1      27.451  19.188   6.894  0.00  0.00     0.144 A 
HETATM   26  N   UNK N   1      27.795  19.173   8.205  0.00  0.00    -0.289 N 
HETATM   27  C   UNK N   1      28.927  18.529   8.635  0.00  0.00     0.330 A 
ATOM     28  HN  UNK N   1      27.201  19.649   8.885  1.00  0.00     0.172 HD
HETATM   29  O   UNK N   1      29.192  18.534   9.824  0.00  0.00    -0.246 OA
BRANCH  25  30
HETATM   30  O   UNK N   1      26.332  19.818   6.500  0.00  0.00    -0.346 OA
HETATM   31  H   UNK N   1      25.586  19.330   6.209  0.00  0.00     0.219 HD
ENDBRANCH  25  30
ENDBRANCH   4  22
TORSDOF 11
ENDMDL
MODEL 6
REMARK VINA RESULT:      -6.5     12.664     15.311
REMARK  11 active torsions:
REMARK  status: ('A' for Active; 'I' for Inactive)
REMARK    1  A    between atoms: C_6  and  C_4 
REMARK    2  A    between atoms: O_22  and  C_4 
REMARK    3  A    between atoms: C_5  and  O_14 
REMARK    4  A    between atoms: O_15  and  C_7 
REMARK    5  A    between atoms: C_8  and  N_13 
REMARK    6  A    between atoms: P_24  and  N_12 
REMARK    7  A    between atoms: P_25  and  N_12 
REMARK    8  A    between atoms: P_24  and  O_18 
REMARK    9  A    between atoms: P_24  and  O_19 
REMARK   10  A    between atoms: P_25  and  O_21 
REMARK   11  A    between atoms: P_25  and  O_22 
ROOT
HETATM    1  C   UNK N   1      33.515  17.792   8.178  0.00  0.00     0.088 C 
HETATM    2  C   UNK N   1      34.582  17.013   8.863  0.00  0.00     0.153 C 
HETATM    3  C   UNK N   1      34.161  15.616   8.463  0.00  0.00     0.177 C 
HETATM    4  C   UNK N   1      33.479  17.048   6.845  0.00  0.00     0.235 C 
HETATM    5  O   UNK N   1      33.802  15.688   7.100  0.00  0.00    -0.356 OA
ENDROOT
BRANCH   3   6
HETATM    6  C   UNK N   1      35.300  14.627   8.701  0.00  0.00     0.214 C 
BRANCH   6   7
HETATM    7  O   UNK N   1      36.392  15.232   9.345  0.00  0.00    -0.300 OA
BRANCH   7   8
HETATM    8  P   UNK N   1      37.292  13.980  10.160  0.00  0.00     0.353 P 
HETATM    9  O   UNK N   1      36.085  13.196   9.575  0.00  0.00    -0.637 OA
BRANCH   8  10
HETATM   10  N   UNK N   1      36.562  13.223  11.648  0.00  0.00    -0.240 N 
HETATM   11  H   UNK N   1      36.558  12.216  11.805  0.00  0.00     0.176 HD
BRANCH  10  12
HETATM   12  P   UNK N   1      35.836  14.405  12.843  0.00  0.00     0.351 P 
HETATM   13  O   UNK N   1      35.047  13.592  13.903  0.00  0.00    -0.637 OA
BRANCH  12  14
HETATM   14  O   UNK N   1      34.439  13.794  12.015  0.00  0.00    -0.312 OA
HETATM   15  H   UNK N   1      33.829  14.385  11.547  0.00  0.00     0.221 HD
ENDBRANCH  12  14
BRANCH  12  16
HETATM   16  O   UNK N   1      37.032  13.569  13.786  0.00  0.00    -0.312 OA
HETATM   17  H   UNK N   1      37.524  14.035  14.479  0.00  0.00     0.221 HD
ENDBRANCH  12  16
ENDBRANCH  10  12
ENDBRANCH   8  10
BRANCH   8  18
HETATM   18  O   UNK N   1      36.747  15.230  11.237  0.00  0.00    -0.312 OA
HETATM   19  H   UNK N   1      37.191  15.918  11.755  0.00  0.00     0.222 HD
ENDBRANCH   8  18
ENDBRANCH   7   8
ENDBRANCH   6   7
ENDBRANCH   3   6
BRANCH   2  20
HETATM   20  O   UNK N   1      34.583  17.204  10.245  0.00  0.00    -0.393 OA
HETATM   21  H   UNK N   1      34.248  17.739  10.980  0.00  0.00     0.210 HD
ENDBRANCH   2  20
BRANCH   4  22
HETATM   22  N   UNK N   1      32.181  17.235   6.160  0.00  0.00    -0.282 N 
HETATM   23  C   UNK N   1      31.055  17.151   6.929  0.00  0.00     0.102 A 
HETATM   24  C   UNK N   1      29.792  17.347   6.380  0.00  0.00     0.073 A 
HETATM   25  C   UNK N   1      29.687  17.638   5.028  0.00  0.00     0.144 A 
HETATM   26  N   UNK N   1      30.805  17.717   4.265  0.00  0.00    -0.289 N 
HETATM   27  C   UNK N   1      32.049  17.521   4.805  0.00  0.00     0.330 A 
ATOM     28  HN  UNK N   1      30.718  17.927   3.270  1.00  0.00     0.172 HD
HETATM   29  O   UNK N   1      33.026  17.609   4.083  0.00  0.00    -0.246 OA
BRANCH  25  30
HETATM   30  O   UNK N   1      28.480  17.845   4.476  0.00  0.00    -0.346 OA
HETATM   31  H   UNK N   1      28.310  18.618   3.974  0.00  0.00     0.219 HD
ENDBRANCH  25  30
ENDBRANCH   4  22
TORSDOF 11
ENDMDL
MODEL 7
REMARK VINA RESULT:      -6.3      2.379      3.288
REMARK  11 active torsions:
REMARK  status: ('A' for Active; 'I' for Inactive)
REMARK    1  A    between atoms: C_6  and  C_4 
REMARK    2  A    between atoms: O_22  and  C_4 
REMARK    3  A    between atoms: C_5  and  O_14 
REMARK    4  A    between atoms: O_15  and  C_7 
REMARK    5  A    between atoms: C_8  and  N_13 
REMARK    6  A    between atoms: P_24  and  N_12 
REMARK    7  A    between atoms: P_25  and  N_12 
REMARK    8  A    between atoms: P_24  and  O_18 
REMARK    9  A    between atoms: P_24  and  O_19 
REMARK   10  A    between atoms: P_25  and  O_21 
REMARK   11  A    between atoms: P_25  and  O_22 
ROOT
HETATM    1  C   UNK N   1      21.029  13.007   7.186  0.00  0.00     0.088 C 
HETATM    2  C   UNK N   1      20.817  14.024   6.121  0.00  0.00     0.153 C 
HETATM    3  C   UNK N   1      21.183  15.270   6.896  0.00  0.00     0.177 C 
HETATM    4  C   UNK N   1      22.337  13.529   7.774  0.00  0.00     0.235 C 
HETATM    5  O   UNK N   1      22.335  14.944   7.644  0.00  0.00    -0.356 OA
ENDROOT
BRANCH   3   6
HETATM    6  C   UNK N   1      21.435  16.436   5.943  0.00  0.00     0.214 C 
BRANCH   6   7
HETATM    7  O   UNK N   1      21.081  16.117   4.622  0.00  0.00    -0.300 OA
BRANCH   7   8
HETATM    8  P   UNK N   1      20.342  17.529   3.910  0.00  0.00     0.353 P 
HETATM    9  O   UNK N   1      19.109  16.697   4.361  0.00  0.00    -0.637 OA
BRANCH   8  10
HETATM   10  N   UNK N   1      19.420  17.325   2.351  0.00  0.00    -0.240 N 
HETATM   11  H   UNK N   1      18.512  17.762   2.191  0.00  0.00     0.176 HD
BRANCH  10  12
HETATM   12  P   UNK N   1      20.242  16.279   1.094  0.00  0.00     0.351 P 
HETATM   13  O   UNK N   1      19.225  16.011  -0.047  0.00  0.00    -0.637 OA
BRANCH  12  14
HETATM   14  O   UNK N   1      19.057  15.204   1.770  0.00  0.00    -0.312 OA
HETATM   15  H   UNK N   1      18.642  15.383   2.628  0.00  0.00     0.221 HD
ENDBRANCH  12  14
BRANCH  12  16
HETATM   16  O   UNK N   1      20.037  17.797   0.276  0.00  0.00    -0.312 OA
HETATM   17  H   UNK N   1      20.309  17.897  -0.649  0.00  0.00     0.221 HD
ENDBRANCH  12  16
ENDBRANCH  10  12
ENDBRANCH   8  10
BRANCH   8  18
HETATM   18  O   UNK N   1      21.307  16.630   2.779  0.00  0.00    -0.312 OA
HETATM   19  H   UNK N   1      22.220  16.702   2.460  0.00  0.00     0.222 HD
ENDBRANCH   8  18
ENDBRANCH   7   8
ENDBRANCH   6   7
ENDBRANCH   3   6
BRANCH   2  20
HETATM   20  O   UNK N   1      19.503  14.045   5.652  0.00  0.00    -0.393 OA
HETATM   21  H   UNK N   1      18.929  14.173   4.881  0.00  0.00     0.210 HD
ENDBRANCH   2  20
BRANCH   4  22
HETATM   22  N   UNK N   1      22.529  13.058   9.164  0.00  0.00    -0.282 N 
HETATM   23  C   UNK N   1      21.412  12.660   9.844  0.00  0.00     0.102 A 
HETATM   24  C   UNK N   1      21.498  12.169  11.142  0.00  0.00     0.073 A 
HETATM   25  C   UNK N   1      22.744  12.082  11.745  0.00  0.00     0.144 A 
HETATM   26  N   UNK N   1      23.851  12.481  11.071  0.00  0.00    -0.289 N 
HETATM   27  C   UNK N   1      23.766  12.967   9.792  0.00  0.00     0.330 A 
ATOM     28  HN  UNK N   1      24.763  12.418  11.524  1.00  0.00     0.172 HD
HETATM   29  O   UNK N   1      24.788  13.307   9.222  0.00  0.00    -0.246 OA
BRANCH  25  30
HETATM   30  O   UNK N   1      22.855  11.599  12.993  0.00  0.00    -0.346 OA
HETATM   31  H   UNK N   1      22.918  10.676  13.146  0.00  0.00     0.219 HD
ENDBRANCH  25  30
ENDBRANCH   4  22
TORSDOF 11
ENDMDL
MODEL 8
REMARK VINA RESULT:      -6.3     14.112     16.055
REMARK  11 active torsions:
REMARK  status: ('A' for Active; 'I' for Inactive)
REMARK    1  A    between atoms: C_6  and  C_4 
REMARK    2  A    between atoms: O_22  and  C_4 
REMARK    3  A    between atoms: C_5  and  O_14 
REMARK    4  A    between atoms: O_15  and  C_7 
REMARK    5  A    between atoms: C_8  and  N_13 
REMARK    6  A    between atoms: P_24  and  N_12 
REMARK    7  A    between atoms: P_25  and  N_12 
REMARK    8  A    between atoms: P_24  and  O_18 
REMARK    9  A    between atoms: P_24  and  O_19 
REMARK   10  A    between atoms: P_25  and  O_21 
REMARK   11  A    between atoms: P_25  and  O_22 
ROOT
HETATM    1  C   UNK N   1      35.097  11.794  14.029  0.00  0.00     0.088 C 
HETATM    2  C   UNK N   1      35.338  12.499  12.740  0.00  0.00     0.153 C 
HETATM    3  C   UNK N   1      35.591  13.894  13.268  0.00  0.00     0.177 C 
HETATM    4  C   UNK N   1      36.215  12.412  14.864  0.00  0.00     0.235 C 
HETATM    5  O   UNK N   1      36.414  13.742  14.404  0.00  0.00    -0.356 OA
ENDROOT
BRANCH   3   6
HETATM    6  C   UNK N   1      36.253  14.758  12.197  0.00  0.00     0.214 C 
BRANCH   6   7
HETATM    7  O   UNK N   1      35.485  15.892  11.890  0.00  0.00    -0.300 OA
BRANCH   7   8
HETATM    8  P   UNK N   1      35.190  15.891  10.171  0.00  0.00     0.353 P 
HETATM    9  O   UNK N   1      35.553  17.377  10.447  0.00  0.00    -0.637 OA
BRANCH   8  10
HETATM   10  N   UNK N   1      33.721  16.772   9.547  0.00  0.00    -0.240 N 
HETATM   11  H   UNK N   1      33.053  17.229  10.168  0.00  0.00     0.176 HD
BRANCH  10  12
HETATM   12  P   UNK N   1      33.534  16.778   7.727  0.00  0.00     0.351 P 
HETATM   13  O   UNK N   1      34.652  17.674   7.132  0.00  0.00    -0.637 OA
BRANCH  12  14
HETATM   14  O   UNK N   1      33.107  18.404   8.160  0.00  0.00    -0.312 OA
HETATM   15  H   UNK N   1      33.731  18.986   8.620  0.00  0.00     0.221 HD
ENDBRANCH  12  14
BRANCH  12  16
HETATM   16  O   UNK N   1      35.018  15.909   7.972  0.00  0.00    -0.312 OA
HETATM   17  H   UNK N   1      35.331  15.275   7.308  0.00  0.00     0.221 HD
ENDBRANCH  12  16
ENDBRANCH  10  12
ENDBRANCH   8  10
BRANCH   8  18
HETATM   18  O   UNK N   1      33.796  15.419  11.094  0.00  0.00    -0.312 OA
HETATM   19  H   UNK N   1      33.661  14.885  11.892  0.00  0.00     0.222 HD
ENDBRANCH   8  18
ENDBRANCH   7   8
ENDBRANCH   6   7
ENDBRANCH   3   6
BRANCH   2  20
HETATM   20  O   UNK N   1      34.241  12.437  11.880  0.00  0.00    -0.393 OA
HETATM   21  H   UNK N   1      33.859  12.009  11.099  0.00  0.00     0.210 HD
ENDBRANCH   2  20
BRANCH   4  22
HETATM   22  N   UNK N   1      35.918  12.320  16.311  0.00  0.00    -0.282 N 
HETATM   23  C   UNK N   1      35.459  13.452  16.925  0.00  0.00     0.102 A 
HETATM   24  C   UNK N   1      35.121  13.452  18.273  0.00  0.00     0.073 A 
HETATM   25  C   UNK N   1      35.250  12.276  18.997  0.00  0.00     0.144 A 
HETATM   26  N   UNK N   1      35.709  11.155  18.389  0.00  0.00    -0.289 N 
HETATM   27  C   UNK N   1      36.045  11.155  17.060  0.00  0.00     0.330 A 
ATOM     28  HN  UNK N   1      35.805  10.295  18.930  1.00  0.00     0.172 HD
HETATM   29  O   UNK N   1      36.446  10.122  16.553  0.00  0.00    -0.246 OA
BRANCH  25  30
HETATM   30  O   UNK N   1      34.917  12.247  20.298  0.00  0.00    -0.346 OA
HETATM   31  H   UNK N   1      34.083  12.563  20.586  0.00  0.00     0.219 HD
ENDBRANCH  25  30
ENDBRANCH   4  22
TORSDOF 11
ENDMDL
MODEL 9
REMARK VINA RESULT:      -6.2      1.558      2.313
REMARK  11 active torsions:
REMARK  status: ('A' for Active; 'I' for Inactive)
REMARK    1  A    between atoms: C_6  and  C_4 
REMARK    2  A    between atoms: O_22  and  C_4 
REMARK    3  A    between atoms: C_5  and  O_14 
REMARK    4  A    between atoms: O_15  and  C_7 
REMARK    5  A    between atoms: C_8  and  N_13 
REMARK    6  A    between atoms: P_24  and  N_12 
REMARK    7  A    between atoms: P_25  and  N_12 
REMARK    8  A    between atoms: P_24  and  O_18 
REMARK    9  A    between atoms: P_24  and  O_19 
REMARK   10  A    between atoms: P_25  and  O_21 
REMARK   11  A    between atoms: P_25  and  O_22 
ROOT
HETATM    1  C   UNK N   1      20.721  13.640   7.086  0.00  0.00     0.088 C 
HETATM    2  C   UNK N   1      20.551  14.762   6.123  0.00  0.00     0.153 C 
HETATM    3  C   UNK N   1      21.056  15.900   6.983  0.00  0.00     0.177 C 
HETATM    4  C   UNK N   1      22.093  13.999   7.650  0.00  0.00     0.235 C 
HETATM    5  O   UNK N   1      22.206  15.416   7.641  0.00  0.00    -0.356 OA
ENDROOT
BRANCH   3   6
HETATM    6  C   UNK N   1      21.365  17.122   6.121  0.00  0.00     0.214 C 
BRANCH   6   7
HETATM    7  O   UNK N   1      21.511  16.783   4.766  0.00  0.00    -0.300 OA
BRANCH   7   8
HETATM    8  P   UNK N   1      20.634  17.961   3.823  0.00  0.00     0.353 P 
HETATM    9  O   UNK N   1      21.168  16.991   2.733  0.00  0.00    -0.637 OA
BRANCH   8  10
HETATM   10  N   UNK N   1      21.584  19.077   2.740  0.00  0.00    -0.240 N 
HETATM   11  H   UNK N   1      22.590  18.981   2.602  0.00  0.00     0.176 HD
BRANCH  10  12
HETATM   12  P   UNK N   1      20.601  20.384   1.917  0.00  0.00     0.351 P 
HETATM   13  O   UNK N   1      21.426  20.923   0.719  0.00  0.00    -0.637 OA
BRANCH  12  14
HETATM   14  O   UNK N   1      21.913  21.278   2.620  0.00  0.00    -0.312 OA
HETATM   15  H   UNK N   1      22.657  20.831   3.052  0.00  0.00     0.221 HD
ENDBRANCH  12  14
BRANCH  12  16
HETATM   16  O   UNK N   1      20.623  19.103   0.744  0.00  0.00    -0.312 OA
HETATM   17  H   UNK N   1      20.930  18.217   0.990  0.00  0.00     0.221 HD
ENDBRANCH  12  16
ENDBRANCH  10  12
ENDBRANCH   8  10
BRANCH   8  18
HETATM   18  O   UNK N   1      21.950  18.658   4.720  0.00  0.00    -0.312 OA
HETATM   19  H   UNK N   1      22.843  18.362   4.952  0.00  0.00     0.222 HD
ENDBRANCH   8  18
ENDBRANCH   7   8
ENDBRANCH   6   7
ENDBRANCH   3   6
BRANCH   2  20
HETATM   20  O   UNK N   1      19.225  14.932   5.725  0.00  0.00    -0.393 OA
HETATM   21  H   UNK N   1      18.426  14.495   5.391  0.00  0.00     0.210 HD
ENDBRANCH   2  20
BRANCH   4  22
HETATM   22  N   UNK N   1      22.303  13.392   8.983  0.00  0.00    -0.282 N 
HETATM   23  C   UNK N   1      21.187  13.018   9.677  0.00  0.00     0.102 A 
HETATM   24  C   UNK N   1      21.286  12.407  10.923  0.00  0.00     0.073 A 
HETATM   25  C   UNK N   1      22.545  12.173  11.457  0.00  0.00     0.144 A 
HETATM   26  N   UNK N   1      23.652  12.548  10.768  0.00  0.00    -0.289 N 
HETATM   27  C   UNK N   1      23.554  13.153   9.542  0.00  0.00     0.330 A 
ATOM     28  HN  UNK N   1      24.574  12.377  11.170  1.00  0.00     0.172 HD
HETATM   29  O   UNK N   1      24.575  13.466   8.956  0.00  0.00    -0.246 OA
BRANCH  25  30
HETATM   30  O   UNK N   1      22.668  11.573  12.652  0.00  0.00    -0.346 OA
HETATM   31  H   UNK N   1      22.084  11.782  13.354  0.00  0.00     0.219 HD
ENDBRANCH  25  30
ENDBRANCH   4  22
TORSDOF 11
ENDMDL
