MODEL 1
REMARK VINA RESULT:      -8.1      0.000      0.000
REMARK  10 active torsions:
REMARK  status: ('A' for Active; 'I' for Inactive)
REMARK    1  A    between atoms: C_2  and  C_4 
REMARK    2  A    between atoms: C_4  and  C_5 
REMARK    3  A    between atoms: C_5  and  N_6 
REMARK    4  A    between atoms: N_6  and  C_7 
REMARK    5  A    between atoms: N_6  and  S_32 
REMARK    6  A    between atoms: C_7  and  C_8 
REMARK    7  A    between atoms: C_8  and  O_9 
REMARK    8  A    between atoms: C_10  and  C_8 
REMARK    9  A    between atoms: C_23  and  C_24 
REMARK   10  A    between atoms: S_32  and  C_35 
ROOT
HETATM    1  C   UNK N   1      25.043  14.304   4.481  0.00  0.00     0.118 C 
HETATM    2  C   UNK N   1      25.466  13.461   5.693  0.00  0.00     0.066 C 
HETATM    3  C   UNK N   1      24.402  13.326   6.731  0.00  0.00    -0.056 A 
HETATM    4  C   UNK N   1      24.760  13.189   8.079  0.00  0.00     0.010 A 
HETATM    5  C   UNK N   1      23.779  13.268   9.073  0.00  0.00     0.037 A 
HETATM    6  C   UNK N   1      22.448  13.515   8.717  0.00  0.00     0.068 A 
HETATM    7  O   UNK N   1      21.539  13.800   9.679  0.00  0.00    -0.351 OA
HETATM    8  C   UNK N   1      20.412  14.558   9.404  0.00  0.00     0.176 C 
HETATM    9  C   UNK N   1      20.830  15.964   8.950  0.00  0.00     0.036 C 
HETATM   10  C   UNK N   1      20.100  16.356   7.672  0.00  0.00     0.105 C 
HETATM   11  C   UNK N   1      20.972  17.175   6.764  0.00  0.00     0.218 C 
HETATM   12  O   UNK N   1      21.033  18.386   6.907  0.00  0.00    -0.274 OA
HETATM   13  N   UNK N   1      21.672  16.547   5.785  0.00  0.00    -0.347 N 
HETATM   14  C   UNK N   1      22.533  17.171   4.790  0.00  0.00     0.179 C 
HETATM   15  C   UNK N   1      23.354  16.044   4.208  0.00  0.00     0.241 C 
HETATM   16  O   UNK N   1      22.992  15.502   3.164  0.00  0.00    -0.271 OA
HETATM   17  N   UNK N   1      24.421  15.551   4.886  0.00  0.00    -0.352 N 
HETATM   18  C   UNK N   1      22.090  13.575   7.364  0.00  0.00     0.037 A 
HETATM   19  C   UNK N   1      23.058  13.476   6.381  0.00  0.00     0.010 A 
HETATM   20  H   UNK N   1      21.589  15.567   5.743  0.00  0.00     0.163 HD
HETATM   21  H   UNK N   1      24.775  16.044   5.662  0.00  0.00     0.163 HD
ENDROOT
BRANCH   1  22
HETATM   22  C   UNK N   1      26.197  14.491   3.506  0.00  0.00     0.155 C 
BRANCH  22  23
HETATM   23  C   UNK N   1      27.452  14.743   4.327  0.00  0.00     0.141 C 
BRANCH  23  24
HETATM   24  N   UNK N   1      27.496  16.109   4.829  0.00  0.00    -0.204 NA
BRANCH  24  25
HETATM   25  C   UNK N   1      27.345  16.977   3.674  0.00  0.00     0.108 C 
BRANCH  25  26
HETATM   26  C   UNK N   1      26.501  18.193   4.041  0.00  0.00     0.019 C 
BRANCH  26  27
HETATM   27  C   UNK N   1      27.235  19.506   3.795  0.00  0.00    -0.022 C 
HETATM   28  C   UNK N   1      26.312  20.545   3.194  0.00  0.00     0.009 C 
HETATM   29  C   UNK N   1      27.747  20.040   5.116  0.00  0.00     0.009 C 
ENDBRANCH  26  27
ENDBRANCH  25  26
ENDBRANCH  24  25
BRANCH  24  30
HETATM   30  S   UNK N   1      29.085  16.403   5.591  0.00  0.00     0.243 S 
HETATM   31  O   UNK N   1      30.009  17.019   4.525  0.00  0.00    -0.206 OA
HETATM   32  O   UNK N   1      29.676  14.990   5.709  0.00  0.00    -0.206 OA
BRANCH  30  33
HETATM   33  C   UNK N   1      29.297  17.183   7.187  0.00  0.00     0.074 A 
HETATM   34  C   UNK N   1      30.564  17.521   7.668  0.00  0.00     0.025 A 
HETATM   35  C   UNK N   1      30.691  18.165   8.905  0.00  0.00     0.002 A 
HETATM   36  C   UNK N   1      29.552  18.476   9.655  0.00  0.00     0.000 A 
HETATM   37  C   UNK N   1      28.285  18.139   9.174  0.00  0.00     0.002 A 
HETATM   38  C   UNK N   1      28.158  17.495   7.941  0.00  0.00     0.025 A 
ENDBRANCH  30  33
ENDBRANCH  24  30
ENDBRANCH  23  24
ENDBRANCH  22  23
BRANCH  22  39
HETATM   39  O   UNK N   1      26.389  13.325   2.764  0.00  0.00    -0.392 OA
HETATM   40  H   UNK N   1      26.318  12.459   3.196  0.00  0.00     0.210 HD
ENDBRANCH  22  39
ENDBRANCH   1  22
BRANCH  14  41
HETATM   41  C   UNK N   1      21.699  17.876   3.688  0.00  0.00     0.009 C 
HETATM   42  C   UNK N   1      21.748  19.391   3.828  0.00  0.00     0.012 C 
HETATM   43  C   UNK N   1      20.238  17.476   3.706  0.00  0.00     0.012 C 
ENDBRANCH  14  41
TORSDOF 10
ENDMDL
MODEL 2
REMARK VINA RESULT:      -8.0      3.150      5.334
REMARK  10 active torsions:
REMARK  status: ('A' for Active; 'I' for Inactive)
REMARK    1  A    between atoms: C_2  and  C_4 
REMARK    2  A    between atoms: C_4  and  C_5 
REMARK    3  A    between atoms: C_5  and  N_6 
REMARK    4  A    between atoms: N_6  and  C_7 
REMARK    5  A    between atoms: N_6  and  S_32 
REMARK    6  A    between atoms: C_7  and  C_8 
REMARK    7  A    between atoms: C_8  and  O_9 
REMARK    8  A    between atoms: C_10  and  C_8 
REMARK    9  A    between atoms: C_23  and  C_24 
REMARK   10  A    between atoms: S_32  and  C_35 
ROOT
HETATM    1  C   UNK N   1      26.249  16.958   3.951  0.00  0.00     0.118 C 
HETATM    2  C   UNK N   1      26.113  18.488   3.910  0.00  0.00     0.066 C 
HETATM    3  C   UNK N   1      24.699  18.963   3.847  0.00  0.00    -0.056 A 
HETATM    4  C   UNK N   1      24.399  20.162   3.187  0.00  0.00     0.010 A 
HETATM    5  C   UNK N   1      23.066  20.510   2.945  0.00  0.00     0.037 A 
HETATM    6  C   UNK N   1      22.039  19.643   3.337  0.00  0.00     0.068 A 
HETATM    7  O   UNK N   1      20.772  19.873   2.920  0.00  0.00    -0.351 OA
HETATM    8  C   UNK N   1      19.857  18.840   2.792  0.00  0.00     0.176 C 
HETATM    9  C   UNK N   1      20.349  17.837   1.739  0.00  0.00     0.036 C 
HETATM   10  C   UNK N   1      20.272  16.414   2.275  0.00  0.00     0.105 C 
HETATM   11  C   UNK N   1      21.413  15.572   1.778  0.00  0.00     0.218 C 
HETATM   12  O   UNK N   1      21.325  14.999   0.704  0.00  0.00    -0.274 OA
HETATM   13  N   UNK N   1      22.525  15.455   2.548  0.00  0.00    -0.347 N 
HETATM   14  C   UNK N   1      23.709  14.658   2.256  0.00  0.00     0.179 C 
HETATM   15  C   UNK N   1      24.775  15.165   3.200  0.00  0.00     0.241 C 
HETATM   16  O   UNK N   1      24.973  14.581   4.265  0.00  0.00    -0.271 OA
HETATM   17  N   UNK N   1      25.433  16.321   2.933  0.00  0.00    -0.352 N 
HETATM   18  C   UNK N   1      22.348  18.484   4.062  0.00  0.00     0.037 A 
HETATM   19  C   UNK N   1      23.665  18.151   4.319  0.00  0.00     0.010 A 
HETATM   20  H   UNK N   1      22.533  15.961   3.393  0.00  0.00     0.163 HD
HETATM   21  H   UNK N   1      25.355  16.732   2.042  0.00  0.00     0.163 HD
ENDROOT
BRANCH   1  22
HETATM   22  C   UNK N   1      27.709  16.530   3.912  0.00  0.00     0.155 C 
BRANCH  22  23
HETATM   23  C   UNK N   1      28.517  17.599   4.632  0.00  0.00     0.141 C 
BRANCH  23  24
HETATM   24  N   UNK N   1      29.096  17.089   5.867  0.00  0.00    -0.204 NA
BRANCH  24  25
HETATM   25  C   UNK N   1      28.900  18.121   6.870  0.00  0.00     0.108 C 
BRANCH  25  26
HETATM   26  C   UNK N   1      28.182  17.541   8.084  0.00  0.00     0.019 C 
BRANCH  26  27
HETATM   27  C   UNK N   1      28.768  18.039   9.400  0.00  0.00    -0.022 C 
HETATM   28  C   UNK N   1      29.136  16.884  10.308  0.00  0.00     0.009 C 
HETATM   29  C   UNK N   1      30.026  18.831   9.112  0.00  0.00     0.009 C 
ENDBRANCH  26  27
ENDBRANCH  25  26
ENDBRANCH  24  25
BRANCH  24  30
HETATM   30  S   UNK N   1      30.846  16.819   5.626  0.00  0.00     0.243 S 
HETATM   31  O   UNK N   1      31.297  17.696   4.443  0.00  0.00    -0.206 OA
HETATM   32  O   UNK N   1      30.893  15.422   4.989  0.00  0.00    -0.206 OA
BRANCH  30  33
HETATM   33  C   UNK N   1      32.047  16.821   6.952  0.00  0.00     0.074 A 
HETATM   34  C   UNK N   1      31.955  15.921   8.017  0.00  0.00     0.025 A 
HETATM   35  C   UNK N   1      32.934  15.924   9.018  0.00  0.00     0.002 A 
HETATM   36  C   UNK N   1      34.004  16.823   8.952  0.00  0.00     0.000 A 
HETATM   37  C   UNK N   1      34.096  17.722   7.887  0.00  0.00     0.002 A 
HETATM   38  C   UNK N   1      33.120  17.720   6.888  0.00  0.00     0.025 A 
ENDBRANCH  30  33
ENDBRANCH  24  30
ENDBRANCH  23  24
ENDBRANCH  22  23
BRANCH  22  39
HETATM   39  O   UNK N   1      27.872  15.327   4.600  0.00  0.00    -0.392 OA
HETATM   40  H   UNK N   1      27.939  14.493   4.108  0.00  0.00     0.210 HD
ENDBRANCH  22  39
ENDBRANCH   1  22
BRANCH  14  41
HETATM   41  C   UNK N   1      23.439  13.147   2.483  0.00  0.00     0.009 C 
HETATM   42  C   UNK N   1      23.299  12.396   1.167  0.00  0.00     0.012 C 
HETATM   43  C   UNK N   1      22.177  12.885   3.280  0.00  0.00     0.012 C 
ENDBRANCH  14  41
TORSDOF 10
ENDMDL
MODEL 3
REMARK VINA RESULT:      -7.6     13.127     16.690
REMARK  10 active torsions:
REMARK  status: ('A' for Active; 'I' for Inactive)
REMARK    1  A    between atoms: C_2  and  C_4 
REMARK    2  A    between atoms: C_4  and  C_5 
REMARK    3  A    between atoms: C_5  and  N_6 
REMARK    4  A    between atoms: N_6  and  C_7 
REMARK    5  A    between atoms: N_6  and  S_32 
REMARK    6  A    between atoms: C_7  and  C_8 
REMARK    7  A    between atoms: C_8  and  O_9 
REMARK    8  A    between atoms: C_10  and  C_8 
REMARK    9  A    between atoms: C_23  and  C_24 
REMARK   10  A    between atoms: S_32  and  C_35 
ROOT
HETATM    1  C   UNK N   1      26.825  25.958  -4.242  0.00  0.00     0.118 C 
HETATM    2  C   UNK N   1      25.916  26.344  -5.419  0.00  0.00     0.066 C 
HETATM    3  C   UNK N   1      25.753  25.260  -6.432  0.00  0.00    -0.056 A 
HETATM    4  C   UNK N   1      25.544  25.592  -7.776  0.00  0.00     0.010 A 
HETATM    5  C   UNK N   1      25.596  24.597  -8.758  0.00  0.00     0.037 A 
HETATM    6  C   UNK N   1      25.887  23.277  -8.394  0.00  0.00     0.068 A 
HETATM    7  O   UNK N   1      26.145  22.358  -9.354  0.00  0.00    -0.351 OA
HETATM    8  C   UNK N   1      26.938  21.252  -9.099  0.00  0.00     0.176 C 
HETATM    9  C   UNK N   1      28.356  21.706  -8.720  0.00  0.00     0.036 C 
HETATM   10  C   UNK N   1      28.824  21.005  -7.452  0.00  0.00     0.105 C 
HETATM   11  C   UNK N   1      29.668  21.909  -6.598  0.00  0.00     0.218 C 
HETATM   12  O   UNK N   1      30.869  21.992  -6.801  0.00  0.00    -0.274 OA
HETATM   13  N   UNK N   1      29.073  22.612  -5.601  0.00  0.00    -0.347 N 
HETATM   14  C   UNK N   1      29.726  23.503  -4.651  0.00  0.00     0.179 C 
HETATM   15  C   UNK N   1      28.612  24.310  -4.027  0.00  0.00     0.241 C 
HETATM   16  O   UNK N   1      28.129  23.954  -2.953  0.00  0.00    -0.271 OA
HETATM   17  N   UNK N   1      28.064  25.355  -4.698  0.00  0.00    -0.352 N 
HETATM   18  C   UNK N   1      26.020  22.943  -7.039  0.00  0.00     0.037 A 
HETATM   19  C   UNK N   1      25.948  23.925  -6.068  0.00  0.00     0.010 A 
HETATM   20  H   UNK N   1      28.098  22.510  -5.509  0.00  0.00     0.163 HD
HETATM   21  H   UNK N   1      28.511  25.706  -5.502  0.00  0.00     0.163 HD
ENDROOT
BRANCH   1  22
HETATM   22  C   UNK N   1      27.035  27.131  -3.295  0.00  0.00     0.155 C 
BRANCH  22  23
HETATM   23  C   UNK N   1      27.558  28.297  -4.122  0.00  0.00     0.141 C 
BRANCH  23  24
HETATM   24  N   UNK N   1      28.936  28.078  -4.539  0.00  0.00    -0.204 NA
BRANCH  24  25
HETATM   25  C   UNK N   1      29.757  28.955  -3.721  0.00  0.00     0.108 C 
BRANCH  25  26
HETATM   26  C   UNK N   1      30.839  28.147  -3.011  0.00  0.00     0.019 C 
BRANCH  26  27
HETATM   27  C   UNK N   1      31.464  28.907  -1.849  0.00  0.00    -0.022 C 
HETATM   28  C   UNK N   1      32.613  29.776  -2.317  0.00  0.00     0.009 C 
HETATM   29  C   UNK N   1      30.418  29.808  -1.226  0.00  0.00     0.009 C 
ENDBRANCH  26  27
ENDBRANCH  25  26
ENDBRANCH  24  25
BRANCH  24  30
HETATM   30  S   UNK N   1      29.108  28.535  -6.257  0.00  0.00     0.243 S 
HETATM   31  O   UNK N   1      30.354  29.431  -6.382  0.00  0.00    -0.206 OA
HETATM   32  O   UNK N   1      27.986  29.565  -6.452  0.00  0.00    -0.206 OA
BRANCH  30  33
HETATM   33  C   UNK N   1      28.983  27.376  -7.615  0.00  0.00     0.074 A 
HETATM   34  C   UNK N   1      28.481  27.764  -8.859  0.00  0.00     0.025 A 
HETATM   35  C   UNK N   1      28.433  26.841  -9.910  0.00  0.00     0.002 A 
HETATM   36  C   UNK N   1      28.891  25.533  -9.718  0.00  0.00     0.000 A 
HETATM   37  C   UNK N   1      29.393  25.144  -8.474  0.00  0.00     0.002 A 
HETATM   38  C   UNK N   1      29.440  26.065  -7.425  0.00  0.00     0.025 A 
ENDBRANCH  30  33
ENDBRANCH  24  30
ENDBRANCH  23  24
ENDBRANCH  22  23
BRANCH  22  39
HETATM   39  O   UNK N   1      25.818  27.512  -2.730  0.00  0.00    -0.392 OA
HETATM   40  H   UNK N   1      25.569  28.449  -2.700  0.00  0.00     0.210 HD
ENDBRANCH  22  39
ENDBRANCH   1  22
BRANCH  14  41
HETATM   41  C   UNK N   1      30.502  22.701  -3.572  0.00  0.00     0.009 C 
HETATM   42  C   UNK N   1      32.008  22.818  -3.758  0.00  0.00     0.012 C 
HETATM   43  C   UNK N   1      30.167  21.223  -3.578  0.00  0.00     0.012 C 
ENDBRANCH  14  41
TORSDOF 10
ENDMDL
MODEL 4
REMARK VINA RESULT:      -7.4      3.279      5.504
REMARK  10 active torsions:
REMARK  status: ('A' for Active; 'I' for Inactive)
REMARK    1  A    between atoms: C_2  and  C_4 
REMARK    2  A    between atoms: C_4  and  C_5 
REMARK    3  A    between atoms: C_5  and  N_6 
REMARK    4  A    between atoms: N_6  and  C_7 
REMARK    5  A    between atoms: N_6  and  S_32 
REMARK    6  A    between atoms: C_7  and  C_8 
REMARK    7  A    between atoms: C_8  and  O_9 
REMARK    8  A    between atoms: C_10  and  C_8 
REMARK    9  A    between atoms: C_23  and  C_24 
REMARK   10  A    between atoms: S_32  and  C_35 
ROOT
HETATM    1  C   UNK N   1      25.379  15.994   4.092  0.00  0.00     0.118 C 
HETATM    2  C   UNK N   1      25.971  17.411   4.045  0.00  0.00     0.066 C 
HETATM    3  C   UNK N   1      24.948  18.482   3.861  0.00  0.00    -0.056 A 
HETATM    4  C   UNK N   1      25.290  19.659   3.181  0.00  0.00     0.010 A 
HETATM    5  C   UNK N   1      24.293  20.574   2.826  0.00  0.00     0.037 A 
HETATM    6  C   UNK N   1      22.955  20.294   3.125  0.00  0.00     0.068 A 
HETATM    7  O   UNK N   1      21.975  21.068   2.602  0.00  0.00    -0.351 OA
HETATM    8  C   UNK N   1      20.699  20.571   2.392  0.00  0.00     0.176 C 
HETATM    9  C   UNK N   1      20.750  19.415   1.383  0.00  0.00     0.036 C 
HETATM   10  C   UNK N   1      19.981  18.210   1.906  0.00  0.00     0.105 C 
HETATM   11  C   UNK N   1      20.637  16.919   1.507  0.00  0.00     0.218 C 
HETATM   12  O   UNK N   1      20.376  16.411   0.427  0.00  0.00    -0.274 OA
HETATM   13  N   UNK N   1      21.504  16.330   2.369  0.00  0.00    -0.347 N 
HETATM   14  C   UNK N   1      22.202  15.065   2.179  0.00  0.00     0.179 C 
HETATM   15  C   UNK N   1      23.305  15.057   3.212  0.00  0.00     0.241 C 
HETATM   16  O   UNK N   1      23.126  14.489   4.289  0.00  0.00    -0.271 OA
HETATM   17  N   UNK N   1      24.442  15.768   3.007  0.00  0.00    -0.352 N 
HETATM   18  C   UNK N   1      22.633  19.152   3.871  0.00  0.00     0.037 A 
HETATM   19  C   UNK N   1      23.622  18.259   4.240  0.00  0.00     0.010 A 
HETATM   20  H   UNK N   1      21.680  16.807   3.213  0.00  0.00     0.163 HD
HETATM   21  H   UNK N   1      24.633  16.135   2.113  0.00  0.00     0.163 HD
ENDROOT
BRANCH   1  22
HETATM   22  C   UNK N   1      26.472  14.938   4.179  0.00  0.00     0.155 C 
BRANCH  22  23
HETATM   23  C   UNK N   1      27.409  15.344   5.307  0.00  0.00     0.141 C 
BRANCH  23  24
HETATM   24  N   UNK N   1      28.770  15.535   4.826  0.00  0.00    -0.204 NA
BRANCH  24  25
HETATM   25  C   UNK N   1      29.522  14.364   5.243  0.00  0.00     0.108 C 
BRANCH  25  26
HETATM   26  C   UNK N   1      29.998  13.585   4.020  0.00  0.00     0.019 C 
BRANCH  26  27
HETATM   27  C   UNK N   1      31.506  13.370   4.019  0.00  0.00    -0.022 C 
HETATM   28  C   UNK N   1      32.196  14.332   3.074  0.00  0.00     0.009 C 
HETATM   29  C   UNK N   1      32.042  13.615   5.413  0.00  0.00     0.009 C 
ENDBRANCH  26  27
ENDBRANCH  25  26
ENDBRANCH  24  25
BRANCH  24  30
HETATM   30  S   UNK N   1      29.464  16.991   5.595  0.00  0.00     0.243 S 
HETATM   31  O   UNK N   1      28.526  17.407   6.743  0.00  0.00    -0.206 OA
HETATM   32  O   UNK N   1      29.175  18.093   4.566  0.00  0.00    -0.206 OA
BRANCH  30  33
HETATM   33  C   UNK N   1      31.187  17.153   6.051  0.00  0.00     0.074 A 
HETATM   34  C   UNK N   1      31.600  17.038   7.381  0.00  0.00     0.025 A 
HETATM   35  C   UNK N   1      32.961  17.132   7.698  0.00  0.00     0.002 A 
HETATM   36  C   UNK N   1      33.906  17.335   6.686  0.00  0.00     0.000 A 
HETATM   37  C   UNK N   1      33.492  17.449   5.357  0.00  0.00     0.002 A 
HETATM   38  C   UNK N   1      32.135  17.357   5.041  0.00  0.00     0.025 A 
ENDBRANCH  30  33
ENDBRANCH  24  30
ENDBRANCH  23  24
ENDBRANCH  22  23
BRANCH  22  39
HETATM   39  O   UNK N   1      25.916  13.700   4.501  0.00  0.00    -0.392 OA
HETATM   40  H   UNK N   1      26.289  13.175   5.225  0.00  0.00     0.210 HD
ENDBRANCH  22  39
ENDBRANCH   1  22
BRANCH  14  41
HETATM   41  C   UNK N   1      21.246  13.860   2.377  0.00  0.00     0.009 C 
HETATM   42  C   UNK N   1      20.882  13.205   1.052  0.00  0.00     0.012 C 
HETATM   43  C   UNK N   1      19.946  14.242   3.055  0.00  0.00     0.012 C 
ENDBRANCH  14  41
TORSDOF 10
ENDMDL
MODEL 5
REMARK VINA RESULT:      -7.4      3.086      5.367
REMARK  10 active torsions:
REMARK  status: ('A' for Active; 'I' for Inactive)
REMARK    1  A    between atoms: C_2  and  C_4 
REMARK    2  A    between atoms: C_4  and  C_5 
REMARK    3  A    between atoms: C_5  and  N_6 
REMARK    4  A    between atoms: N_6  and  C_7 
REMARK    5  A    between atoms: N_6  and  S_32 
REMARK    6  A    between atoms: C_7  and  C_8 
REMARK    7  A    between atoms: C_8  and  O_9 
REMARK    8  A    between atoms: C_10  and  C_8 
REMARK    9  A    between atoms: C_23  and  C_24 
REMARK   10  A    between atoms: S_32  and  C_35 
ROOT
HETATM    1  C   UNK N   1      24.910  15.734   4.230  0.00  0.00     0.118 C 
HETATM    2  C   UNK N   1      25.568  17.122   4.273  0.00  0.00     0.066 C 
HETATM    3  C   UNK N   1      24.614  18.246   4.045  0.00  0.00    -0.056 A 
HETATM    4  C   UNK N   1      25.062  19.423   3.431  0.00  0.00     0.010 A 
HETATM    5  C   UNK N   1      24.139  20.395   3.029  0.00  0.00     0.037 A 
HETATM    6  C   UNK N   1      22.770  20.173   3.215  0.00  0.00     0.068 A 
HETATM    7  O   UNK N   1      21.871  21.007   2.642  0.00  0.00    -0.351 OA
HETATM    8  C   UNK N   1      20.594  20.579   2.319  0.00  0.00     0.176 C 
HETATM    9  C   UNK N   1      20.670  19.450   1.280  0.00  0.00     0.036 C 
HETATM   10  C   UNK N   1      19.808  18.269   1.704  0.00  0.00     0.105 C 
HETATM   11  C   UNK N   1      20.433  16.959   1.317  0.00  0.00     0.218 C 
HETATM   12  O   UNK N   1      20.235  16.495   0.205  0.00  0.00    -0.274 OA
HETATM   13  N   UNK N   1      21.202  16.306   2.225  0.00  0.00    -0.347 N 
HETATM   14  C   UNK N   1      21.854  15.015   2.049  0.00  0.00     0.179 C 
HETATM   15  C   UNK N   1      22.870  14.924   3.163  0.00  0.00     0.241 C 
HETATM   16  O   UNK N   1      22.582  14.336   4.204  0.00  0.00    -0.271 OA
HETATM   17  N   UNK N   1      24.052  15.584   3.069  0.00  0.00    -0.352 N 
HETATM   18  C   UNK N   1      22.339  19.027   3.898  0.00  0.00     0.037 A 
HETATM   19  C   UNK N   1      23.254  18.077   4.313  0.00  0.00     0.010 A 
HETATM   20  H   UNK N   1      21.333  16.750   3.094  0.00  0.00     0.163 HD
HETATM   21  H   UNK N   1      24.329  15.966   2.204  0.00  0.00     0.163 HD
ENDROOT
BRANCH   1  22
HETATM   22  C   UNK N   1      25.943  14.625   4.367  0.00  0.00     0.155 C 
BRANCH  22  23
HETATM   23  C   UNK N   1      27.092  15.173   5.201  0.00  0.00     0.141 C 
BRANCH  23  24
HETATM   24  N   UNK N   1      28.366  15.033   4.509  0.00  0.00    -0.204 NA
BRANCH  24  25
HETATM   25  C   UNK N   1      28.994  13.836   5.042  0.00  0.00     0.108 C 
BRANCH  25  26
HETATM   26  C   UNK N   1      28.939  12.714   4.010  0.00  0.00     0.019 C 
BRANCH  26  27
HETATM   27  C   UNK N   1      28.999  13.236   2.580  0.00  0.00    -0.022 C 
HETATM   28  C   UNK N   1      30.290  12.825   1.901  0.00  0.00     0.009 C 
HETATM   29  C   UNK N   1      27.847  12.652   1.791  0.00  0.00     0.009 C 
ENDBRANCH  26  27
ENDBRANCH  25  26
ENDBRANCH  24  25
BRANCH  24  30
HETATM   30  S   UNK N   1      29.388  16.453   4.873  0.00  0.00     0.243 S 
HETATM   31  O   UNK N   1      30.372  16.634   3.702  0.00  0.00    -0.206 OA
HETATM   32  O   UNK N   1      30.328  15.927   5.967  0.00  0.00    -0.206 OA
BRANCH  30  33
HETATM   33  C   UNK N   1      28.748  18.020   5.453  0.00  0.00     0.074 A 
HETATM   34  C   UNK N   1      28.502  19.075   4.572  0.00  0.00     0.025 A 
HETATM   35  C   UNK N   1      27.965  20.275   5.055  0.00  0.00     0.002 A 
HETATM   36  C   UNK N   1      27.671  20.416   6.416  0.00  0.00     0.000 A 
HETATM   37  C   UNK N   1      27.918  19.361   7.297  0.00  0.00     0.002 A 
HETATM   38  C   UNK N   1      28.454  18.164   6.815  0.00  0.00     0.025 A 
ENDBRANCH  30  33
ENDBRANCH  24  30
ENDBRANCH  23  24
ENDBRANCH  22  23
BRANCH  22  39
HETATM   39  O   UNK N   1      25.391  13.540   5.049  0.00  0.00    -0.392 OA
HETATM   40  H   UNK N   1      25.465  13.486   6.014  0.00  0.00     0.210 HD
ENDBRANCH  22  39
ENDBRANCH   1  22
BRANCH  14  41
HETATM   41  C   UNK N   1      20.831  13.852   2.135  0.00  0.00     0.009 C 
HETATM   42  C   UNK N   1      20.532  13.261   0.764  0.00  0.00     0.012 C 
HETATM   43  C   UNK N   1      19.505  14.275   2.734  0.00  0.00     0.012 C 
ENDBRANCH  14  41
TORSDOF 10
ENDMDL
MODEL 6
REMARK VINA RESULT:      -7.3      7.531     12.154
REMARK  10 active torsions:
REMARK  status: ('A' for Active; 'I' for Inactive)
REMARK    1  A    between atoms: C_2  and  C_4 
REMARK    2  A    between atoms: C_4  and  C_5 
REMARK    3  A    between atoms: C_5  and  N_6 
REMARK    4  A    between atoms: N_6  and  C_7 
REMARK    5  A    between atoms: N_6  and  S_32 
REMARK    6  A    between atoms: C_7  and  C_8 
REMARK    7  A    between atoms: C_8  and  O_9 
REMARK    8  A    between atoms: C_10  and  C_8 
REMARK    9  A    between atoms: C_23  and  C_24 
REMARK   10  A    between atoms: S_32  and  C_35 
ROOT
HETATM    1  C   UNK N   1      35.737  14.822  10.866  0.00  0.00     0.118 C 
HETATM    2  C   UNK N   1      36.020  15.162  12.338  0.00  0.00     0.066 C 
HETATM    3  C   UNK N   1      36.400  13.978  13.165  0.00  0.00    -0.056 A 
HETATM    4  C   UNK N   1      36.072  13.949  14.526  0.00  0.00     0.010 A 
HETATM    5  C   UNK N   1      36.239  12.768  15.258  0.00  0.00     0.037 A 
HETATM    6  C   UNK N   1      36.704  11.614  14.619  0.00  0.00     0.068 A 
HETATM    7  O   UNK N   1      36.667  10.426  15.267  0.00  0.00    -0.351 OA
HETATM    8  C   UNK N   1      36.580   9.229  14.576  0.00  0.00     0.176 C 
HETATM    9  C   UNK N   1      35.268   9.184  13.777  0.00  0.00     0.036 C 
HETATM   10  C   UNK N   1      35.530   8.770  12.336  0.00  0.00     0.105 C 
HETATM   11  C   UNK N   1      34.617   9.483  11.380  0.00  0.00     0.218 C 
HETATM   12  O   UNK N   1      33.510   9.026  11.139  0.00  0.00    -0.274 OA
HETATM   13  N   UNK N   1      35.049  10.625  10.787  0.00  0.00    -0.347 N 
HETATM   14  C   UNK N   1      34.328  11.429   9.810  0.00  0.00     0.179 C 
HETATM   15  C   UNK N   1      35.055  12.754   9.767  0.00  0.00     0.241 C 
HETATM   16  O   UNK N   1      35.908  12.953   8.904  0.00  0.00    -0.271 OA
HETATM   17  N   UNK N   1      34.854  13.677  10.741  0.00  0.00    -0.352 N 
HETATM   18  C   UNK N   1      37.100  11.675  13.275  0.00  0.00     0.037 A 
HETATM   19  C   UNK N   1      36.954  12.849  12.558  0.00  0.00     0.010 A 
HETATM   20  H   UNK N   1      35.945  10.944  11.045  0.00  0.00     0.163 HD
HETATM   21  H   UNK N   1      34.104  13.568  11.369  0.00  0.00     0.163 HD
ENDROOT
BRANCH   1  22
HETATM   22  C   UNK N   1      35.258  16.045  10.097  0.00  0.00     0.155 C 
BRANCH  22  23
HETATM   23  C   UNK N   1      33.919  15.691   9.467  0.00  0.00     0.141 C 
BRANCH  23  24
HETATM   24  N   UNK N   1      33.376  16.808   8.706  0.00  0.00    -0.204 NA
BRANCH  24  25
HETATM   25  C   UNK N   1      31.930  16.704   8.799  0.00  0.00     0.108 C 
BRANCH  25  26
HETATM   26  C   UNK N   1      31.291  18.064   8.535  0.00  0.00     0.019 C 
BRANCH  26  27
HETATM   27  C   UNK N   1      29.778  17.975   8.379  0.00  0.00    -0.022 C 
HETATM   28  C   UNK N   1      29.398  17.073   7.223  0.00  0.00     0.009 C 
HETATM   29  C   UNK N   1      29.184  17.392   9.644  0.00  0.00     0.009 C 
ENDBRANCH  26  27
ENDBRANCH  25  26
ENDBRANCH  24  25
BRANCH  24  30
HETATM   30  S   UNK N   1      33.875  16.650   6.998  0.00  0.00     0.243 S 
HETATM   31  O   UNK N   1      35.052  15.659   6.942  0.00  0.00    -0.206 OA
HETATM   32  O   UNK N   1      34.597  17.978   6.727  0.00  0.00    -0.206 OA
BRANCH  30  33
HETATM   33  C   UNK N   1      32.731  16.402   5.644  0.00  0.00     0.074 A 
HETATM   34  C   UNK N   1      32.487  17.407   4.705  0.00  0.00     0.025 A 
HETATM   35  C   UNK N   1      31.615  17.166   3.637  0.00  0.00     0.002 A 
HETATM   36  C   UNK N   1      30.992  15.920   3.506  0.00  0.00     0.000 A 
HETATM   37  C   UNK N   1      31.236  14.915   4.445  0.00  0.00     0.002 A 
HETATM   38  C   UNK N   1      32.105  15.156   5.511  0.00  0.00     0.025 A 
ENDBRANCH  30  33
ENDBRANCH  24  30
ENDBRANCH  23  24
ENDBRANCH  22  23
BRANCH  22  39
HETATM   39  O   UNK N   1      35.056  17.111  10.974  0.00  0.00    -0.392 OA
HETATM   40  H   UNK N   1      35.785  17.424  11.532  0.00  0.00     0.210 HD
ENDBRANCH  22  39
ENDBRANCH   1  22
BRANCH  14  41
HETATM   41  C   UNK N   1      34.328  10.751   8.414  0.00  0.00     0.009 C 
HETATM   42  C   UNK N   1      32.979  10.125   8.092  0.00  0.00     0.012 C 
HETATM   43  C   UNK N   1      35.367   9.655   8.290  0.00  0.00     0.012 C 
ENDBRANCH  14  41
TORSDOF 10
ENDMDL
MODEL 7
REMARK VINA RESULT:      -7.3      8.519     13.482
REMARK  10 active torsions:
REMARK  status: ('A' for Active; 'I' for Inactive)
REMARK    1  A    between atoms: C_2  and  C_4 
REMARK    2  A    between atoms: C_4  and  C_5 
REMARK    3  A    between atoms: C_5  and  N_6 
REMARK    4  A    between atoms: N_6  and  C_7 
REMARK    5  A    between atoms: N_6  and  S_32 
REMARK    6  A    between atoms: C_7  and  C_8 
REMARK    7  A    between atoms: C_8  and  O_9 
REMARK    8  A    between atoms: C_10  and  C_8 
REMARK    9  A    between atoms: C_23  and  C_24 
REMARK   10  A    between atoms: S_32  and  C_35 
ROOT
HETATM    1  C   UNK N   1      36.104  14.355  10.467  0.00  0.00     0.118 C 
HETATM    2  C   UNK N   1      37.081  13.871   9.384  0.00  0.00     0.066 C 
HETATM    3  C   UNK N   1      37.459  12.433   9.518  0.00  0.00    -0.056 A 
HETATM    4  C   UNK N   1      38.724  12.006   9.094  0.00  0.00     0.010 A 
HETATM    5  C   UNK N   1      39.163  10.713   9.400  0.00  0.00     0.037 A 
HETATM    6  C   UNK N   1      38.346   9.863  10.154  0.00  0.00     0.068 A 
HETATM    7  O   UNK N   1      38.848   8.698  10.628  0.00  0.00    -0.351 OA
HETATM    8  C   UNK N   1      38.337   8.105  11.771  0.00  0.00     0.176 C 
HETATM    9  C   UNK N   1      38.536   9.038  12.975  0.00  0.00     0.036 C 
HETATM   10  C   UNK N   1      37.240   9.188  13.760  0.00  0.00     0.105 C 
HETATM   11  C   UNK N   1      37.085  10.576  14.312  0.00  0.00     0.218 C 
HETATM   12  O   UNK N   1      37.581  10.862  15.391  0.00  0.00    -0.274 OA
HETATM   13  N   UNK N   1      36.379  11.491  13.600  0.00  0.00    -0.347 N 
HETATM   14  C   UNK N   1      36.088  12.865  13.987  0.00  0.00     0.179 C 
HETATM   15  C   UNK N   1      35.629  13.549  12.721  0.00  0.00     0.241 C 
HETATM   16  O   UNK N   1      34.426  13.645  12.481  0.00  0.00    -0.271 OA
HETATM   17  N   UNK N   1      36.534  13.955  11.794  0.00  0.00    -0.352 N 
HETATM   18  C   UNK N   1      37.054  10.274  10.508  0.00  0.00     0.037 A 
HETATM   19  C   UNK N   1      36.614  11.545  10.187  0.00  0.00     0.010 A 
HETATM   20  H   UNK N   1      36.024  11.195  12.730  0.00  0.00     0.163 HD
HETATM   21  H   UNK N   1      37.491  13.976  12.025  0.00  0.00     0.163 HD
ENDROOT
BRANCH   1  22
HETATM   22  C   UNK N   1      35.834  15.848  10.343  0.00  0.00     0.155 C 
BRANCH  22  23
HETATM   23  C   UNK N   1      35.284  16.097   8.946  0.00  0.00     0.141 C 
BRANCH  23  24
HETATM   24  N   UNK N   1      33.856  16.380   8.978  0.00  0.00    -0.204 NA
BRANCH  24  25
HETATM   25  C   UNK N   1      33.185  15.156   8.576  0.00  0.00     0.108 C 
BRANCH  25  26
HETATM   26  C   UNK N   1      33.979  14.464   7.471  0.00  0.00     0.019 C 
BRANCH  26  27
HETATM   27  C   UNK N   1      33.245  13.260   6.895  0.00  0.00    -0.022 C 
HETATM   28  C   UNK N   1      32.634  13.583   5.548  0.00  0.00     0.009 C 
HETATM   29  C   UNK N   1      34.229  12.125   6.705  0.00  0.00     0.009 C 
ENDBRANCH  26  27
ENDBRANCH  25  26
ENDBRANCH  24  25
BRANCH  24  30
HETATM   30  S   UNK N   1      33.489  17.674   7.802  0.00  0.00     0.243 S 
HETATM   31  O   UNK N   1      34.738  18.565   7.680  0.00  0.00    -0.206 OA
HETATM   32  O   UNK N   1      32.547  18.596   8.589  0.00  0.00    -0.206 OA
BRANCH  30  33
HETATM   33  C   UNK N   1      32.718  17.387   6.213  0.00  0.00     0.074 A 
HETATM   34  C   UNK N   1      33.472  17.337   5.038  0.00  0.00     0.025 A 
HETATM   35  C   UNK N   1      32.842  17.072   3.816  0.00  0.00     0.002 A 
HETATM   36  C   UNK N   1      31.461  16.854   3.770  0.00  0.00     0.000 A 
HETATM   37  C   UNK N   1      30.707  16.904   4.945  0.00  0.00     0.002 A 
HETATM   38  C   UNK N   1      31.335  17.169   6.164  0.00  0.00     0.025 A 
ENDBRANCH  30  33
ENDBRANCH  24  30
ENDBRANCH  23  24
ENDBRANCH  22  23
BRANCH  22  39
HETATM   39  O   UNK N   1      34.864  16.236  11.267  0.00  0.00    -0.392 OA
HETATM   40  H   UNK N   1      34.445  15.573  11.837  0.00  0.00     0.210 HD
ENDBRANCH  22  39
ENDBRANCH   1  22
BRANCH  14  41
HETATM   41  C   UNK N   1      34.986  12.920  15.078  0.00  0.00     0.009 C 
HETATM   42  C   UNK N   1      35.571  13.190  16.457  0.00  0.00     0.012 C 
HETATM   43  C   UNK N   1      34.189  11.635  15.178  0.00  0.00     0.012 C 
ENDBRANCH  14  41
TORSDOF 10
ENDMDL
MODEL 8
REMARK VINA RESULT:      -7.3     13.831     16.663
REMARK  10 active torsions:
REMARK  status: ('A' for Active; 'I' for Inactive)
REMARK    1  A    between atoms: C_2  and  C_4 
REMARK    2  A    between atoms: C_4  and  C_5 
REMARK    3  A    between atoms: C_5  and  N_6 
REMARK    4  A    between atoms: N_6  and  C_7 
REMARK    5  A    between atoms: N_6  and  S_32 
REMARK    6  A    between atoms: C_7  and  C_8 
REMARK    7  A    between atoms: C_8  and  O_9 
REMARK    8  A    between atoms: C_10  and  C_8 
REMARK    9  A    between atoms: C_23  and  C_24 
REMARK   10  A    between atoms: S_32  and  C_35 
ROOT
HETATM    1  C   UNK N   1      29.698  22.166  -5.657  0.00  0.00     0.118 C 
HETATM    2  C   UNK N   1      28.895  22.139  -6.967  0.00  0.00     0.066 C 
HETATM    3  C   UNK N   1      29.235  20.989  -7.856  0.00  0.00    -0.056 A 
HETATM    4  C   UNK N   1      29.129  21.132  -9.246  0.00  0.00     0.010 A 
HETATM    5  C   UNK N   1      29.638  20.139 -10.089  0.00  0.00     0.037 A 
HETATM    6  C   UNK N   1      30.277  19.021  -9.541  0.00  0.00     0.068 A 
HETATM    7  O   UNK N   1      30.951  18.170 -10.350  0.00  0.00    -0.351 OA
HETATM    8  C   UNK N   1      32.009  17.411  -9.877  0.00  0.00     0.176 C 
HETATM    9  C   UNK N   1      33.138  18.336  -9.396  0.00  0.00     0.036 C 
HETATM   10  C   UNK N   1      33.614  17.927  -8.009  0.00  0.00     0.105 C 
HETATM   11  C   UNK N   1      33.992  19.121  -7.179  0.00  0.00     0.218 C 
HETATM   12  O   UNK N   1      35.121  19.581  -7.252  0.00  0.00    -0.274 OA
HETATM   13  N   UNK N   1      33.066  19.660  -6.346  0.00  0.00    -0.347 N 
HETATM   14  C   UNK N   1      33.256  20.786  -5.440  0.00  0.00     0.179 C 
HETATM   15  C   UNK N   1      31.864  21.223  -5.047  0.00  0.00     0.241 C 
HETATM   16  O   UNK N   1      31.368  20.809  -4.000  0.00  0.00    -0.271 OA
HETATM   17  N   UNK N   1      31.117  21.974  -5.895  0.00  0.00    -0.352 N 
HETATM   18  C   UNK N   1      30.311  18.853  -8.150  0.00  0.00     0.037 A 
HETATM   19  C   UNK N   1      29.789  19.826  -7.317  0.00  0.00     0.010 A 
HETATM   20  H   UNK N   1      32.172  19.248  -6.354  0.00  0.00     0.163 HD
HETATM   21  H   UNK N   1      31.541  22.392  -6.679  0.00  0.00     0.163 HD
ENDROOT
BRANCH   1  22
HETATM   22  C   UNK N   1      29.383  23.410  -4.839  0.00  0.00     0.155 C 
BRANCH  22  23
HETATM   23  C   UNK N   1      27.873  23.593  -4.850  0.00  0.00     0.141 C 
BRANCH  23  24
HETATM   24  N   UNK N   1      27.501  24.919  -5.324  0.00  0.00    -0.204 NA
BRANCH  24  25
HETATM   25  C   UNK N   1      27.138  25.689  -4.146  0.00  0.00     0.108 C 
BRANCH  25  26
HETATM   26  C   UNK N   1      27.959  26.974  -4.090  0.00  0.00     0.019 C 
BRANCH  26  27
HETATM   27  C   UNK N   1      27.085  28.222  -4.079  0.00  0.00    -0.022 C 
HETATM   28  C   UNK N   1      27.176  28.966  -5.396  0.00  0.00     0.009 C 
HETATM   29  C   UNK N   1      25.643  27.814  -3.868  0.00  0.00     0.009 C 
ENDBRANCH  26  27
ENDBRANCH  25  26
ENDBRANCH  24  25
BRANCH  24  30
HETATM   30  S   UNK N   1      26.083  24.778  -6.402  0.00  0.00     0.243 S 
HETATM   31  O   UNK N   1      25.853  26.153  -7.056  0.00  0.00    -0.206 OA
HETATM   32  O   UNK N   1      24.907  24.722  -5.416  0.00  0.00    -0.206 OA
BRANCH  30  33
HETATM   33  C   UNK N   1      25.844  23.439  -7.565  0.00  0.00     0.074 A 
HETATM   34  C   UNK N   1      26.145  23.592  -8.920  0.00  0.00     0.025 A 
HETATM   35  C   UNK N   1      25.982  22.512  -9.797  0.00  0.00     0.002 A 
HETATM   36  C   UNK N   1      25.523  21.281  -9.316  0.00  0.00     0.000 A 
HETATM   37  C   UNK N   1      25.222  21.128  -7.961  0.00  0.00     0.002 A 
HETATM   38  C   UNK N   1      25.384  22.206  -7.087  0.00  0.00     0.025 A 
ENDBRANCH  30  33
ENDBRANCH  24  30
ENDBRANCH  23  24
ENDBRANCH  22  23
BRANCH  22  39
HETATM   39  O   UNK N   1      29.789  23.226  -3.517  0.00  0.00    -0.392 OA
HETATM   40  H   UNK N   1      29.252  22.686  -2.916  0.00  0.00     0.210 HD
ENDBRANCH  22  39
ENDBRANCH   1  22
BRANCH  14  41
HETATM   41  C   UNK N   1      34.080  20.370  -4.193  0.00  0.00     0.009 C 
HETATM   42  C   UNK N   1      35.495  20.929  -4.239  0.00  0.00     0.012 C 
HETATM   43  C   UNK N   1      34.202  18.867  -4.039  0.00  0.00     0.012 C 
ENDBRANCH  14  41
TORSDOF 10
ENDMDL
MODEL 9
REMARK VINA RESULT:      -7.3     13.173     16.605
REMARK  10 active torsions:
REMARK  status: ('A' for Active; 'I' for Inactive)
REMARK    1  A    between atoms: C_2  and  C_4 
REMARK    2  A    between atoms: C_4  and  C_5 
REMARK    3  A    between atoms: C_5  and  N_6 
REMARK    4  A    between atoms: N_6  and  C_7 
REMARK    5  A    between atoms: N_6  and  S_32 
REMARK    6  A    between atoms: C_7  and  C_8 
REMARK    7  A    between atoms: C_8  and  O_9 
REMARK    8  A    between atoms: C_10  and  C_8 
REMARK    9  A    between atoms: C_23  and  C_24 
REMARK   10  A    between atoms: S_32  and  C_35 
ROOT
HETATM    1  C   UNK N   1      28.749  24.339  -3.823  0.00  0.00     0.118 C 
HETATM    2  C   UNK N   1      28.972  22.860  -3.474  0.00  0.00     0.066 C 
HETATM    3  C   UNK N   1      30.346  22.370  -3.789  0.00  0.00    -0.056 A 
HETATM    4  C   UNK N   1      30.540  21.029  -4.147  0.00  0.00     0.010 A 
HETATM    5  C   UNK N   1      31.781  20.611  -4.640  0.00  0.00     0.037 A 
HETATM    6  C   UNK N   1      32.814  21.542  -4.801  0.00  0.00     0.068 A 
HETATM    7  O   UNK N   1      33.937  21.188  -5.469  0.00  0.00    -0.351 OA
HETATM    8  C   UNK N   1      34.713  22.130  -6.124  0.00  0.00     0.176 C 
HETATM    9  C   UNK N   1      33.892  22.798  -7.237  0.00  0.00     0.036 C 
HETATM   10  C   UNK N   1      34.013  24.314  -7.158  0.00  0.00     0.105 C 
HETATM   11  C   UNK N   1      32.727  24.992  -7.535  0.00  0.00     0.218 C 
HETATM   12  O   UNK N   1      32.487  25.235  -8.708  0.00  0.00    -0.274 OA
HETATM   13  N   UNK N   1      31.855  25.337  -6.554  0.00  0.00    -0.347 N 
HETATM   14  C   UNK N   1      30.585  26.032  -6.718  0.00  0.00     0.179 C 
HETATM   15  C   UNK N   1      29.845  25.827  -5.416  0.00  0.00     0.241 C 
HETATM   16  O   UNK N   1      29.900  26.692  -4.543  0.00  0.00    -0.271 OA
HETATM   17  N   UNK N   1      29.219  24.651  -5.161  0.00  0.00    -0.352 N 
HETATM   18  C   UNK N   1      32.633  22.863  -4.369  0.00  0.00     0.037 A 
HETATM   19  C   UNK N   1      31.412  23.270  -3.863  0.00  0.00     0.010 A 
HETATM   20  H   UNK N   1      32.106  25.092  -5.634  0.00  0.00     0.163 HD
HETATM   21  H   UNK N   1      29.085  24.002  -5.889  0.00  0.00     0.163 HD
ENDROOT
BRANCH   1  22
HETATM   22  C   UNK N   1      27.306  24.756  -3.576  0.00  0.00     0.155 C 
BRANCH  22  23
HETATM   23  C   UNK N   1      26.434  23.985  -4.556  0.00  0.00     0.141 C 
BRANCH  23  24
HETATM   24  N   UNK N   1      26.404  24.627  -5.863  0.00  0.00    -0.204 NA
BRANCH  24  25
HETATM   25  C   UNK N   1      25.338  25.612  -5.812  0.00  0.00     0.108 C 
BRANCH  25  26
HETATM   26  C   UNK N   1      25.831  26.945  -6.368  0.00  0.00     0.019 C 
BRANCH  26  27
HETATM   27  C   UNK N   1      26.653  27.729  -5.353  0.00  0.00    -0.022 C 
HETATM   28  C   UNK N   1      27.421  28.852  -6.020  0.00  0.00     0.009 C 
HETATM   29  C   UNK N   1      25.722  28.342  -4.329  0.00  0.00     0.009 C 
ENDBRANCH  26  27
ENDBRANCH  25  26
ENDBRANCH  24  25
BRANCH  24  30
HETATM   30  S   UNK N   1      26.024  23.403  -7.108  0.00  0.00     0.243 S 
HETATM   31  O   UNK N   1      25.173  24.087  -8.193  0.00  0.00    -0.206 OA
HETATM   32  O   UNK N   1      24.970  22.527  -6.417  0.00  0.00    -0.206 OA
BRANCH  30  33
HETATM   33  C   UNK N   1      27.235  22.290  -7.814  0.00  0.00     0.074 A 
HETATM   34  C   UNK N   1      28.334  21.848  -7.075  0.00  0.00     0.025 A 
HETATM   35  C   UNK N   1      29.241  20.947  -7.646  0.00  0.00     0.002 A 
HETATM   36  C   UNK N   1      29.046  20.487  -8.952  0.00  0.00     0.000 A 
HETATM   37  C   UNK N   1      27.947  20.929  -9.692  0.00  0.00     0.002 A 
HETATM   38  C   UNK N   1      27.042  21.828  -9.123  0.00  0.00     0.025 A 
ENDBRANCH  30  33
ENDBRANCH  24  30
ENDBRANCH  23  24
ENDBRANCH  22  23
BRANCH  22  39
HETATM   39  O   UNK N   1      26.922  24.403  -2.282  0.00  0.00    -0.392 OA
HETATM   40  H   UNK N   1      27.593  24.138  -1.633  0.00  0.00     0.210 HD
ENDBRANCH  22  39
ENDBRANCH   1  22
BRANCH  14  41
HETATM   41  C   UNK N   1      30.803  27.541  -7.001  0.00  0.00     0.009 C 
HETATM   42  C   UNK N   1      30.524  27.888  -8.457  0.00  0.00     0.012 C 
HETATM   43  C   UNK N   1      32.215  28.002  -6.698  0.00  0.00     0.012 C 
ENDBRANCH  14  41
TORSDOF 10
ENDMDL
