REMARK  18 active torsions:
REMARK  status: ('A' for Active; 'I' for Inactive)
REMARK    1  A    between atoms: C_21  and  C_15 
REMARK    2  A    between atoms: C_25  and  C_15 
REMARK    3  A    between atoms: C_22  and  C_16 
REMARK    4  A    between atoms: C_26  and  C_16 
REMARK    5  A    between atoms: C_23  and  C_19 
REMARK    6  A    between atoms: O_45  and  C_19 
REMARK    7  A    between atoms: C_24  and  C_20 
REMARK    8  A    between atoms: O_46  and  C_20 
REMARK    9  A    between atoms: C_29  and  C_25 
REMARK   10  A    between atoms: C_25  and  N_35 
REMARK   11  A    between atoms: C_30  and  C_26 
REMARK   12  A    between atoms: C_26  and  N_37 
REMARK   13  A    between atoms: C_27  and  N_33 
REMARK   14  A    between atoms: C_29  and  O_41 
REMARK       I    between atoms: N_39  and  C_30 
REMARK   15  A    between atoms: C_31  and  O_43 
REMARK   16  A    between atoms: O_45  and  C_31 
REMARK   17  A    between atoms: C_32  and  O_44 
REMARK   18  A    between atoms: O_46  and  C_32 
ROOT
HETATM    1  C   UNK N   1       5.645   2.093  -0.751  0.00  0.00     0.159 C 
HETATM    2  C   UNK N   1       4.404   2.971   1.076  0.00  0.00     0.206 C 
HETATM    3  C   UNK N   1       6.297   3.424  -0.445  0.00  0.00     0.172 C 
HETATM    4  C   UNK N   1       5.362   3.973   0.567  0.00  0.00     0.168 C 
HETATM    5  C   UNK N   1       4.077   0.691   0.409  0.00  0.00     0.243 C 
HETATM    6  N   UNK N   1       4.879   1.775   0.431  0.00  0.00    -0.341 N 
HETATM    7  O   UNK N   1       5.410   5.121   0.976  0.00  0.00    -0.294 OA
HETATM    8  O   UNK N   1       4.499  -0.321   0.952  0.00  0.00    -0.271 OA
ENDROOT
BRANCH   3   9
HETATM    9  N   UNK N   1       7.584   3.129   0.141  0.00  0.00    -0.360 N 
HETATM   10  C   UNK N   1       8.688   3.684  -0.212  0.00  0.00     0.135 C 
ATOM     11  HN  UNK N   1       7.619   2.433   0.886  1.00  0.00     0.162 HD
BRANCH  10  12
HETATM   12  C   UNK N   1       9.984   3.125   0.316  0.00  0.00     0.160 C 
BRANCH  12  13
HETATM   13  C   UNK N   1      11.156   3.995  -0.167  0.00  0.00     0.037 C 
BRANCH  13  14
HETATM   14  C   UNK N   1      12.494   3.276  -0.363  0.00  0.00    -0.020 C 
HETATM   15  C   UNK N   1      13.558   4.298  -0.700  0.00  0.00     0.009 C 
HETATM   16  C   UNK N   1      12.929   2.477   0.853  0.00  0.00     0.009 C 
ENDBRANCH  13  14
ENDBRANCH  12  13
BRANCH  12  17
HETATM   17  N   UNK N   1      10.157   1.761  -0.167  0.00  0.00    -0.338 N 
HETATM   18  C   UNK N   1       9.577   0.726   0.344  0.00  0.00     0.259 C 
ATOM     19  HN  UNK N   1      10.778   1.613  -0.962  1.00  0.00     0.164 HD
BRANCH  18  20
HETATM   20  O   UNK N   1       8.735   0.853   1.395  0.00  0.00    -0.327 OA
HETATM   21  H   UNK N   1       8.520   1.402   2.123  0.00  0.00     0.221 HD
ENDBRANCH  18  20
BRANCH  18  22
HETATM   22  O   UNK N   1       9.909  -0.504  -0.111  0.00  0.00    -0.312 OA
BRANCH  22  23
HETATM   23  C   UNK N   1      10.030  -1.544   0.783  0.00  0.00     0.218 C 
BRANCH  23  24
HETATM   24  C   UNK N   1       9.578  -2.855   0.244  0.00  0.00    -0.034 A 
HETATM   25  C   UNK N   1      10.525  -3.856  -0.002  0.00  0.00     0.009 A 
HETATM   26  C   UNK N   1      10.113  -5.130  -0.402  0.00  0.00     0.001 A 
HETATM   27  C   UNK N   1       8.750  -5.411  -0.538  0.00  0.00     0.000 A 
HETATM   28  C   UNK N   1       7.802  -4.414  -0.285  0.00  0.00     0.001 A 
HETATM   29  C   UNK N   1       8.214  -3.137   0.109  0.00  0.00     0.009 A 
ENDBRANCH  23  24
ENDBRANCH  22  23
ENDBRANCH  18  22
ENDBRANCH  12  17
ENDBRANCH  10  12
BRANCH  10  30
HETATM   30  O   UNK N   1       8.691   4.712  -1.091  0.00  0.00    -0.348 OA
HETATM   31  H   UNK N   1       9.309   5.066  -1.700  0.00  0.00     0.219 HD
ENDBRANCH  10  30
ENDBRANCH   3   9
BRANCH   5  32
HETATM   32  C   UNK N   1       3.112   0.503  -0.751  0.00  0.00     0.178 C 
BRANCH  32  33
HETATM   33  C   UNK N   1       1.929  -0.433  -0.424  0.00  0.00     0.038 C 
BRANCH  33  34
HETATM   34  C   UNK N   1       2.321  -1.822   0.087  0.00  0.00    -0.020 C 
HETATM   35  C   UNK N   1       3.182  -2.565  -0.916  0.00  0.00     0.009 C 
HETATM   36  C   UNK N   1       1.076  -2.634   0.367  0.00  0.00     0.009 C 
ENDBRANCH  33  34
ENDBRANCH  32  33
BRANCH  32  37
HETATM   37  N   UNK N   1       2.632   1.789  -1.261  0.00  0.00    -0.337 N 
HETATM   38  C   UNK N   1       1.765   2.541  -0.674  0.00  0.00     0.259 C 
ATOM     39  HN  UNK N   1       3.013   2.115  -2.150  1.00  0.00     0.164 HD
BRANCH  38  40
HETATM   40  O   UNK N   1       1.395   3.704  -1.260  0.00  0.00    -0.327 OA
HETATM   41  H   UNK N   1       1.964   4.328  -1.666  0.00  0.00     0.221 HD
ENDBRANCH  38  40
BRANCH  38  42
HETATM   42  O   UNK N   1       1.181   2.152   0.481  0.00  0.00    -0.312 OA
BRANCH  42  43
HETATM   43  C   UNK N   1      -0.043   2.626   0.886  0.00  0.00     0.218 C 
BRANCH  43  44
HETATM   44  C   UNK N   1      -1.047   1.553   0.622  0.00  0.00    -0.034 A 
HETATM   45  C   UNK N   1      -0.844   0.270   1.146  0.00  0.00     0.009 A 
HETATM   46  C   UNK N   1      -1.730  -0.764   0.838  0.00  0.00     0.001 A 
HETATM   47  C   UNK N   1      -2.827  -0.518   0.009  0.00  0.00     0.000 A 
HETATM   48  C   UNK N   1      -3.040   0.764  -0.508  0.00  0.00     0.001 A 
HETATM   49  C   UNK N   1      -2.146   1.798  -0.209  0.00  0.00     0.009 A 
ENDBRANCH  43  44
ENDBRANCH  42  43
ENDBRANCH  38  42
ENDBRANCH  32  37
ENDBRANCH   5  32
TORSDOF 18
