MODEL 1
REMARK VINA RESULT:      -7.9      0.000      0.000
REMARK  17 active torsions:
REMARK  status: ('A' for Active; 'I' for Inactive)
REMARK    1  A    between atoms: P_1  and  O_7 
REMARK    2  A    between atoms: P_1  and  O_12 
REMARK    3  A    between atoms: P_1  and  O_15 
REMARK    4  A    between atoms: P_2  and  O_10 
REMARK    5  A    between atoms: P_2  and  O_12 
REMARK    6  A    between atoms: P_2  and  O_16 
REMARK    7  A    between atoms: C_22  and  O_5 
REMARK    8  A    between atoms: C_23  and  O_6 
REMARK    9  A    between atoms: C_30  and  O_7 
REMARK   10  A    between atoms: C_26  and  O_8 
REMARK   11  A    between atoms: C_27  and  O_9 
REMARK   12  A    between atoms: O_10  and  C_31 
REMARK   13  A    between atoms: C_28  and  O_11 
REMARK   14  A    between atoms: O_13  and  C_32 
REMARK   15  A    between atoms: C_25  and  N_20 
REMARK   16  A    between atoms: C_24  and  C_31 
REMARK   17  A    between atoms: C_29  and  C_32 
ROOT
HETATM    1  P   UNK N   1      34.229  17.825   8.000  0.00  0.00     0.401 P 
HETATM    2  O   UNK N   1      32.819  18.160   8.562  0.00  0.00    -0.631 OA
ENDROOT
BRANCH   1   3
HETATM    3  O   UNK N   1      34.858  16.371   8.754  0.00  0.00    -0.294 OA
BRANCH   3   4
HETATM    4  C   UNK N   1      34.395  16.372  10.073  0.00  0.00     0.215 C 
BRANCH   4   5
HETATM    5  C   UNK N   1      34.830  15.126  10.843  0.00  0.00     0.180 C 
HETATM    6  O   UNK N   1      34.654  13.936  10.096  0.00  0.00    -0.353 OA
HETATM    7  C   UNK N   1      35.609  13.033  10.605  0.00  0.00     0.263 C 
HETATM    8  C   UNK N   1      36.835  13.897  10.858  0.00  0.00     0.198 C 
HETATM    9  C   UNK N   1      36.286  15.202  11.323  0.00  0.00     0.182 C 
BRANCH   7  10
HETATM   10  N   UNK N   1      35.070  12.288  11.772  0.00  0.00    -0.280 N 
HETATM   11  C   UNK N   1      34.356  11.111  11.614  0.00  0.00     0.331 A 
HETATM   12  O   UNK N   1      34.173  10.635  10.508  0.00  0.00    -0.246 OA
HETATM   13  N   UNK N   1      33.818  10.482  12.707  0.00  0.00    -0.275 N 
HETATM   14  C   UNK N   1      33.956  11.008  13.961  0.00  0.00     0.250 A 
HETATM   15  H   UNK N   1      33.323   9.640  12.587  0.00  0.00     0.173 HD
HETATM   16  O   UNK N   1      33.462  10.443  14.918  0.00  0.00    -0.268 OA
HETATM   17  C   UNK N   1      34.654  12.194  14.138  0.00  0.00     0.092 A 
HETATM   18  C   UNK N   1      35.203  12.821  13.024  0.00  0.00     0.104 A 
ENDBRANCH   7  10
BRANCH   8  19
HETATM   19  O   UNK N   1      37.791  13.385  11.732  0.00  0.00    -0.388 OA
HETATM   20  H   UNK N   1      38.342  12.629  11.471  0.00  0.00     0.210 HD
ENDBRANCH   8  19
BRANCH   9  21
HETATM   21  O   UNK N   1      37.016  16.216  10.693  0.00  0.00    -0.390 OA
HETATM   22  H   UNK N   1      37.921  16.419  10.979  0.00  0.00     0.210 HD
ENDBRANCH   9  21
ENDBRANCH   4   5
ENDBRANCH   3   4
ENDBRANCH   1   3
BRANCH   1  23
HETATM   23  O   UNK N   1      34.113  17.789   6.259  0.00  0.00    -0.195 OA
BRANCH  23  24
HETATM   24  P   UNK N   1      32.795  16.729   5.819  0.00  0.00     0.404 P 
HETATM   25  O   UNK N   1      33.184  16.082   4.461  0.00  0.00    -0.631 OA
BRANCH  24  26
HETATM   26  O   UNK N   1      31.305  17.572   5.508  0.00  0.00    -0.263 OA
BRANCH  26  27
HETATM   27  C   UNK N   1      30.252  16.638   5.437  0.00  0.00     0.303 C 
HETATM   28  O   UNK N   1      29.566  16.523   6.672  0.00  0.00    -0.348 OA
HETATM   29  C   UNK N   1      29.221  17.818   7.122  0.00  0.00     0.179 C 
HETATM   30  C   UNK N   1      28.168  18.452   6.201  0.00  0.00     0.180 C 
HETATM   31  C   UNK N   1      28.731  18.475   4.773  0.00  0.00     0.183 C 
HETATM   32  C   UNK N   1      29.248  17.088   4.370  0.00  0.00     0.205 C 
BRANCH  29  33
HETATM   33  C   UNK N   1      28.764  17.757   8.569  0.00  0.00     0.198 C 
BRANCH  33  34
HETATM   34  O   UNK N   1      27.743  18.685   8.782  0.00  0.00    -0.398 OA
HETATM   35  H   UNK N   1      27.938  19.635   8.762  0.00  0.00     0.209 HD
ENDBRANCH  33  34
ENDBRANCH  29  33
BRANCH  30  36
HETATM   36  O   UNK N   1      26.982  17.713   6.243  0.00  0.00    -0.390 OA
HETATM   37  H   UNK N   1      26.519  16.911   6.532  0.00  0.00     0.210 HD
ENDBRANCH  30  36
BRANCH  31  38
HETATM   38  O   UNK N   1      27.776  18.939   3.868  0.00  0.00    -0.390 OA
HETATM   39  H   UNK N   1      27.906  19.788   3.416  0.00  0.00     0.210 HD
ENDBRANCH  31  38
BRANCH  32  40
HETATM   40  O   UNK N   1      29.862  17.139   3.117  0.00  0.00    -0.388 OA
HETATM   41  H   UNK N   1      30.340  17.933   2.830  0.00  0.00     0.210 HD
ENDBRANCH  32  40
ENDBRANCH  26  27
ENDBRANCH  24  26
BRANCH  24  42
HETATM   42  O   UNK N   1      32.484  15.441   6.937  0.00  0.00    -0.307 OA
HETATM   43  H   UNK N   1      33.149  15.199   7.601  0.00  0.00     0.222 HD
ENDBRANCH  24  42
ENDBRANCH  23  24
ENDBRANCH   1  23
BRANCH   1  44
HETATM   44  O   UNK N   1      35.225  19.163   8.475  0.00  0.00    -0.307 OA
HETATM   45  H   UNK N   1      35.555  19.979   8.066  0.00  0.00     0.222 HD
ENDBRANCH   1  44
TORSDOF 17
ENDMDL
MODEL 2
REMARK VINA RESULT:      -7.8      3.360      9.940
REMARK  17 active torsions:
REMARK  status: ('A' for Active; 'I' for Inactive)
REMARK    1  A    between atoms: P_1  and  O_7 
REMARK    2  A    between atoms: P_1  and  O_12 
REMARK    3  A    between atoms: P_1  and  O_15 
REMARK    4  A    between atoms: P_2  and  O_10 
REMARK    5  A    between atoms: P_2  and  O_12 
REMARK    6  A    between atoms: P_2  and  O_16 
REMARK    7  A    between atoms: C_22  and  O_5 
REMARK    8  A    between atoms: C_23  and  O_6 
REMARK    9  A    between atoms: C_30  and  O_7 
REMARK   10  A    between atoms: C_26  and  O_8 
REMARK   11  A    between atoms: C_27  and  O_9 
REMARK   12  A    between atoms: O_10  and  C_31 
REMARK   13  A    between atoms: C_28  and  O_11 
REMARK   14  A    between atoms: O_13  and  C_32 
REMARK   15  A    between atoms: C_25  and  N_20 
REMARK   16  A    between atoms: C_24  and  C_31 
REMARK   17  A    between atoms: C_29  and  C_32 
ROOT
HETATM    1  P   UNK N   1      34.175  17.794   7.835  0.00  0.00     0.401 P 
HETATM    2  O   UNK N   1      34.117  18.002   6.296  0.00  0.00    -0.631 OA
ENDROOT
BRANCH   1   3
HETATM    3  O   UNK N   1      32.575  17.965   8.535  0.00  0.00    -0.294 OA
BRANCH   3   4
HETATM    4  C   UNK N   1      31.753  17.040   7.885  0.00  0.00     0.215 C 
BRANCH   4   5
HETATM    5  C   UNK N   1      30.375  17.616   7.557  0.00  0.00     0.180 C 
HETATM    6  O   UNK N   1      29.507  16.654   6.984  0.00  0.00    -0.353 OA
HETATM    7  C   UNK N   1      28.207  17.087   7.312  0.00  0.00     0.263 C 
HETATM    8  C   UNK N   1      28.340  17.611   8.733  0.00  0.00     0.198 C 
HETATM    9  C   UNK N   1      29.689  18.243   8.777  0.00  0.00     0.182 C 
BRANCH   7  10
HETATM   10  N   UNK N   1      27.691  18.043   6.298  0.00  0.00    -0.280 N 
HETATM   11  C   UNK N   1      27.116  17.606   5.116  0.00  0.00     0.331 A 
HETATM   12  O   UNK N   1      26.990  16.418   4.885  0.00  0.00    -0.246 OA
HETATM   13  N   UNK N   1      26.708  18.515   4.174  0.00  0.00    -0.275 N 
HETATM   14  C   UNK N   1      26.876  19.857   4.371  0.00  0.00     0.250 A 
HETATM   15  H   UNK N   1      26.288  18.196   3.343  0.00  0.00     0.173 HD
HETATM   16  O   UNK N   1      26.518  20.648   3.519  0.00  0.00    -0.268 OA
HETATM   17  C   UNK N   1      27.464  20.314   5.541  0.00  0.00     0.092 A 
HETATM   18  C   UNK N   1      27.868  19.384   6.495  0.00  0.00     0.104 A 
ENDBRANCH   7  10
BRANCH   8  19
HETATM   19  O   UNK N   1      27.338  18.470   9.180  0.00  0.00    -0.388 OA
HETATM   20  H   UNK N   1      27.507  19.422   9.264  0.00  0.00     0.210 HD
ENDBRANCH   8  19
BRANCH   9  21
HETATM   21  O   UNK N   1      30.287  17.880   9.988  0.00  0.00    -0.390 OA
HETATM   22  H   UNK N   1      29.744  17.723  10.776  0.00  0.00     0.210 HD
ENDBRANCH   9  21
ENDBRANCH   4   5
ENDBRANCH   3   4
ENDBRANCH   1   3
BRANCH   1  23
HETATM   23  O   UNK N   1      34.978  16.275   8.138  0.00  0.00    -0.195 OA
BRANCH  23  24
HETATM   24  P   UNK N   1      34.974  15.986   9.861  0.00  0.00     0.404 P 
HETATM   25  O   UNK N   1      35.483  17.291  10.530  0.00  0.00    -0.631 OA
BRANCH  24  26
HETATM   26  O   UNK N   1      36.100  14.755  10.358  0.00  0.00    -0.263 OA
BRANCH  26  27
HETATM   27  C   UNK N   1      35.494  13.491  10.217  0.00  0.00     0.303 C 
HETATM   28  O   UNK N   1      36.243  12.640   9.365  0.00  0.00    -0.348 OA
HETATM   29  C   UNK N   1      37.590  12.641   9.791  0.00  0.00     0.179 C 
HETATM   30  C   UNK N   1      37.729  11.962  11.162  0.00  0.00     0.180 C 
HETATM   31  C   UNK N   1      36.815  12.696  12.155  0.00  0.00     0.183 C 
HETATM   32  C   UNK N   1      35.393  12.823  11.593  0.00  0.00     0.205 C 
BRANCH  29  33
HETATM   33  C   UNK N   1      38.468  11.995   8.734  0.00  0.00     0.198 C 
BRANCH  33  34
HETATM   34  O   UNK N   1      39.613  11.464   9.329  0.00  0.00    -0.398 OA
HETATM   35  H   UNK N   1      40.388  11.248   8.786  0.00  0.00     0.209 HD
ENDBRANCH  33  34
ENDBRANCH  29  33
BRANCH  30  36
HETATM   36  O   UNK N   1      37.366  10.616  11.073  0.00  0.00    -0.390 OA
HETATM   37  H   UNK N   1      36.972   9.900  10.550  0.00  0.00     0.210 HD
ENDBRANCH  30  36
BRANCH  31  38
HETATM   38  O   UNK N   1      36.811  12.056  13.395  0.00  0.00    -0.390 OA
HETATM   39  H   UNK N   1      36.889  11.091  13.445  0.00  0.00     0.210 HD
ENDBRANCH  31  38
BRANCH  32  40
HETATM   40  O   UNK N   1      34.595  13.588  12.447  0.00  0.00    -0.388 OA
HETATM   41  H   UNK N   1      34.504  14.544  12.315  0.00  0.00     0.210 HD
ENDBRANCH  32  40
ENDBRANCH  26  27
ENDBRANCH  24  26
BRANCH  24  42
HETATM   42  O   UNK N   1      33.421  15.626  10.541  0.00  0.00    -0.307 OA
HETATM   43  H   UNK N   1      32.990  14.777  10.353  0.00  0.00     0.222 HD
ENDBRANCH  24  42
ENDBRANCH  23  24
ENDBRANCH   1  23
BRANCH   1  44
HETATM   44  O   UNK N   1      35.169  19.089   8.421  0.00  0.00    -0.307 OA
HETATM   45  H   UNK N   1      35.876  19.196   9.078  0.00  0.00     0.222 HD
ENDBRANCH   1  44
TORSDOF 17
ENDMDL
MODEL 3
REMARK VINA RESULT:      -7.6      2.542      3.779
REMARK  17 active torsions:
REMARK  status: ('A' for Active; 'I' for Inactive)
REMARK    1  A    between atoms: P_1  and  O_7 
REMARK    2  A    between atoms: P_1  and  O_12 
REMARK    3  A    between atoms: P_1  and  O_15 
REMARK    4  A    between atoms: P_2  and  O_10 
REMARK    5  A    between atoms: P_2  and  O_12 
REMARK    6  A    between atoms: P_2  and  O_16 
REMARK    7  A    between atoms: C_22  and  O_5 
REMARK    8  A    between atoms: C_23  and  O_6 
REMARK    9  A    between atoms: C_30  and  O_7 
REMARK   10  A    between atoms: C_26  and  O_8 
REMARK   11  A    between atoms: C_27  and  O_9 
REMARK   12  A    between atoms: O_10  and  C_31 
REMARK   13  A    between atoms: C_28  and  O_11 
REMARK   14  A    between atoms: O_13  and  C_32 
REMARK   15  A    between atoms: C_25  and  N_20 
REMARK   16  A    between atoms: C_24  and  C_31 
REMARK   17  A    between atoms: C_29  and  C_32 
ROOT
HETATM    1  P   UNK N   1      34.875  15.496  10.180  0.00  0.00     0.401 P 
HETATM    2  O   UNK N   1      36.372  15.428   9.768  0.00  0.00    -0.631 OA
ENDROOT
BRANCH   1   3
HETATM    3  O   UNK N   1      34.631  14.705  11.727  0.00  0.00    -0.294 OA
BRANCH   3   4
HETATM    4  C   UNK N   1      35.797  14.911  12.470  0.00  0.00     0.215 C 
BRANCH   4   5
HETATM    5  C   UNK N   1      35.897  13.969  13.669  0.00  0.00     0.180 C 
HETATM    6  O   UNK N   1      34.682  13.289  13.929  0.00  0.00    -0.353 OA
HETATM    7  C   UNK N   1      35.057  12.090  14.568  0.00  0.00     0.263 C 
HETATM    8  C   UNK N   1      36.319  11.662  13.835  0.00  0.00     0.198 C 
HETATM    9  C   UNK N   1      37.023  12.937  13.521  0.00  0.00     0.182 C 
BRANCH   7  10
HETATM   10  N   UNK N   1      35.175  12.281  16.036  0.00  0.00    -0.280 N 
HETATM   11  C   UNK N   1      35.156  11.207  16.911  0.00  0.00     0.331 A 
HETATM   12  O   UNK N   1      35.070  10.066  16.496  0.00  0.00    -0.246 OA
HETATM   13  N   UNK N   1      35.203  11.423  18.264  0.00  0.00    -0.275 N 
HETATM   14  C   UNK N   1      35.249  12.690  18.774  0.00  0.00     0.250 A 
HETATM   15  H   UNK N   1      35.202  10.654  18.878  0.00  0.00     0.173 HD
HETATM   16  O   UNK N   1      35.279  12.863  19.978  0.00  0.00    -0.268 OA
HETATM   17  C   UNK N   1      35.253  13.779  17.915  0.00  0.00     0.092 A 
HETATM   18  C   UNK N   1      35.214  13.550  16.543  0.00  0.00     0.104 A 
ENDBRANCH   7  10
BRANCH   8  19
HETATM   19  O   UNK N   1      37.144  10.750  14.490  0.00  0.00    -0.388 OA
HETATM   20  H   UNK N   1      37.901  11.059  15.013  0.00  0.00     0.210 HD
ENDBRANCH   8  19
BRANCH   9  21
HETATM   21  O   UNK N   1      37.508  12.842  12.212  0.00  0.00    -0.390 OA
HETATM   22  H   UNK N   1      37.211  13.467  11.532  0.00  0.00     0.210 HD
ENDBRANCH   9  21
ENDBRANCH   4   5
ENDBRANCH   3   4
ENDBRANCH   1   3
BRANCH   1  23
HETATM   23  O   UNK N   1      34.373  17.165  10.092  0.00  0.00    -0.195 OA
BRANCH  23  24
HETATM   24  P   UNK N   1      34.209  17.600   8.407  0.00  0.00     0.404 P 
HETATM   25  O   UNK N   1      34.911  18.974   8.236  0.00  0.00    -0.631 OA
BRANCH  24  26
HETATM   26  O   UNK N   1      32.560  17.871   7.921  0.00  0.00    -0.263 OA
BRANCH  26  27
HETATM   27  C   UNK N   1      31.843  16.663   8.026  0.00  0.00     0.303 C 
HETATM   28  O   UNK N   1      30.699  16.800   8.851  0.00  0.00    -0.348 OA
HETATM   29  C   UNK N   1      29.961  17.926   8.423  0.00  0.00     0.179 C 
HETATM   30  C   UNK N   1      29.355  17.684   7.032  0.00  0.00     0.180 C 
HETATM   31  C   UNK N   1      30.498  17.346   6.063  0.00  0.00     0.183 C 
HETATM   32  C   UNK N   1      31.380  16.227   6.632  0.00  0.00     0.205 C 
BRANCH  29  33
HETATM   33  C   UNK N   1      28.909  18.282   9.459  0.00  0.00     0.198 C 
BRANCH  33  34
HETATM   34  O   UNK N   1      27.795  18.840   8.830  0.00  0.00    -0.398 OA
HETATM   35  H   UNK N   1      27.518  19.745   9.045  0.00  0.00     0.209 HD
ENDBRANCH  33  34
ENDBRANCH  29  33
BRANCH  30  36
HETATM   36  O   UNK N   1      28.436  16.632   7.083  0.00  0.00    -0.390 OA
HETATM   37  H   UNK N   1      28.083  15.867   7.563  0.00  0.00     0.210 HD
ENDBRANCH  30  36
BRANCH  31  38
HETATM   38  O   UNK N   1      30.000  17.005   4.805  0.00  0.00    -0.390 OA
HETATM   39  H   UNK N   1      29.077  17.200   4.577  0.00  0.00     0.210 HD
ENDBRANCH  31  38
BRANCH  32  40
HETATM   40  O   UNK N   1      32.480  16.002   5.803  0.00  0.00    -0.388 OA
HETATM   41  H   UNK N   1      32.904  16.735   5.330  0.00  0.00     0.210 HD
ENDBRANCH  32  40
ENDBRANCH  26  27
ENDBRANCH  24  26
BRANCH  24  42
HETATM   42  O   UNK N   1      34.945  16.498   7.290  0.00  0.00    -0.307 OA
HETATM   43  H   UNK N   1      34.635  15.580   7.232  0.00  0.00     0.222 HD
ENDBRANCH  24  42
ENDBRANCH  23  24
ENDBRANCH   1  23
BRANCH   1  44
HETATM   44  O   UNK N   1      34.038  14.586   8.963  0.00  0.00    -0.307 OA
HETATM   45  H   UNK N   1      34.130  14.432   8.009  0.00  0.00     0.222 HD
ENDBRANCH   1  44
TORSDOF 17
ENDMDL
MODEL 4
REMARK VINA RESULT:      -7.6      3.779      9.932
REMARK  17 active torsions:
REMARK  status: ('A' for Active; 'I' for Inactive)
REMARK    1  A    between atoms: P_1  and  O_7 
REMARK    2  A    between atoms: P_1  and  O_12 
REMARK    3  A    between atoms: P_1  and  O_15 
REMARK    4  A    between atoms: P_2  and  O_10 
REMARK    5  A    between atoms: P_2  and  O_12 
REMARK    6  A    between atoms: P_2  and  O_16 
REMARK    7  A    between atoms: C_22  and  O_5 
REMARK    8  A    between atoms: C_23  and  O_6 
REMARK    9  A    between atoms: C_30  and  O_7 
REMARK   10  A    between atoms: C_26  and  O_8 
REMARK   11  A    between atoms: C_27  and  O_9 
REMARK   12  A    between atoms: O_10  and  C_31 
REMARK   13  A    between atoms: C_28  and  O_11 
REMARK   14  A    between atoms: O_13  and  C_32 
REMARK   15  A    between atoms: C_25  and  N_20 
REMARK   16  A    between atoms: C_24  and  C_31 
REMARK   17  A    between atoms: C_29  and  C_32 
ROOT
HETATM    1  P   UNK N   1      33.052  16.852   5.334  0.00  0.00     0.401 P 
HETATM    2  O   UNK N   1      32.491  15.979   6.492  0.00  0.00    -0.631 OA
ENDROOT
BRANCH   1   3
HETATM    3  O   UNK N   1      31.740  17.607   4.447  0.00  0.00    -0.294 OA
BRANCH   3   4
HETATM    4  C   UNK N   1      30.646  16.742   4.537  0.00  0.00     0.215 C 
BRANCH   4   5
HETATM    5  C   UNK N   1      29.330  17.490   4.750  0.00  0.00     0.180 C 
HETATM    6  O   UNK N   1      28.197  16.671   4.523  0.00  0.00    -0.353 OA
HETATM    7  C   UNK N   1      27.172  17.227   5.314  0.00  0.00     0.263 C 
HETATM    8  C   UNK N   1      27.880  17.643   6.594  0.00  0.00     0.198 C 
HETATM    9  C   UNK N   1      29.221  18.114   6.147  0.00  0.00     0.182 C 
BRANCH   7  10
HETATM   10  N   UNK N   1      26.451  18.297   4.577  0.00  0.00    -0.280 N 
HETATM   11  C   UNK N   1      25.079  18.248   4.389  0.00  0.00     0.331 A 
HETATM   12  O   UNK N   1      24.417  17.337   4.850  0.00  0.00    -0.246 OA
HETATM   13  N   UNK N   1      24.453  19.219   3.650  0.00  0.00    -0.275 N 
HETATM   14  C   UNK N   1      25.164  20.234   3.074  0.00  0.00     0.250 A 
HETATM   15  H   UNK N   1      23.477  19.184   3.532  0.00  0.00     0.173 HD
HETATM   16  O   UNK N   1      24.593  21.080   2.411  0.00  0.00    -0.268 OA
HETATM   17  C   UNK N   1      26.540  20.291   3.237  0.00  0.00     0.092 A 
HETATM   18  C   UNK N   1      27.166  19.306   3.996  0.00  0.00     0.104 A 
ENDBRANCH   7  10
BRANCH   8  19
HETATM   19  O   UNK N   1      27.229  18.581   7.392  0.00  0.00    -0.388 OA
HETATM   20  H   UNK N   1      27.737  19.184   7.957  0.00  0.00     0.210 HD
ENDBRANCH   8  19
BRANCH   9  21
HETATM   21  O   UNK N   1      30.168  17.611   7.046  0.00  0.00    -0.390 OA
HETATM   22  H   UNK N   1      30.853  18.192   7.413  0.00  0.00     0.210 HD
ENDBRANCH   9  21
ENDBRANCH   4   5
ENDBRANCH   3   4
ENDBRANCH   1   3
BRANCH   1  23
HETATM   23  O   UNK N   1      34.237  17.939   6.012  0.00  0.00    -0.195 OA
BRANCH  23  24
HETATM   24  P   UNK N   1      34.131  17.847   7.755  0.00  0.00     0.404 P 
HETATM   25  O   UNK N   1      34.932  19.056   8.310  0.00  0.00    -0.631 OA
BRANCH  24  26
HETATM   26  O   UNK N   1      34.911  16.442   8.422  0.00  0.00    -0.263 OA
BRANCH  26  27
HETATM   27  C   UNK N   1      34.285  16.099   9.637  0.00  0.00     0.303 C 
HETATM   28  O   UNK N   1      33.442  14.970   9.494  0.00  0.00    -0.348 OA
HETATM   29  C   UNK N   1      34.166  13.939   8.854  0.00  0.00     0.179 C 
HETATM   30  C   UNK N   1      35.289  13.416   9.763  0.00  0.00     0.180 C 
HETATM   31  C   UNK N   1      36.191  14.601  10.139  0.00  0.00     0.183 C 
HETATM   32  C   UNK N   1      35.357  15.769  10.681  0.00  0.00     0.205 C 
BRANCH  29  33
HETATM   33  C   UNK N   1      33.218  12.837   8.413  0.00  0.00     0.198 C 
BRANCH  33  34
HETATM   34  O   UNK N   1      32.188  12.698   9.344  0.00  0.00    -0.398 OA
HETATM   35  H   UNK N   1      31.776  13.485   9.734  0.00  0.00     0.209 HD
ENDBRANCH  33  34
ENDBRANCH  29  33
BRANCH  30  36
HETATM   36  O   UNK N   1      34.747  12.835  10.913  0.00  0.00    -0.390 OA
HETATM   37  H   UNK N   1      34.421  12.038  11.360  0.00  0.00     0.210 HD
ENDBRANCH  30  36
BRANCH  31  38
HETATM   38  O   UNK N   1      37.168  14.211  11.056  0.00  0.00    -0.390 OA
HETATM   39  H   UNK N   1      37.830  13.545  10.810  0.00  0.00     0.210 HD
ENDBRANCH  31  38
BRANCH  32  40
HETATM   40  O   UNK N   1      36.167  16.882  10.915  0.00  0.00    -0.388 OA
HETATM   41  H   UNK N   1      37.108  16.869  10.679  0.00  0.00     0.210 HD
ENDBRANCH  32  40
ENDBRANCH  26  27
ENDBRANCH  24  26
BRANCH  24  42
HETATM   42  O   UNK N   1      32.524  17.950   8.398  0.00  0.00    -0.307 OA
HETATM   43  H   UNK N   1      32.022  18.778   8.331  0.00  0.00     0.222 HD
ENDBRANCH  24  42
ENDBRANCH  23  24
ENDBRANCH   1  23
BRANCH   1  44
HETATM   44  O   UNK N   1      33.850  15.729   4.280  0.00  0.00    -0.307 OA
HETATM   45  H   UNK N   1      33.655  14.859   3.896  0.00  0.00     0.222 HD
ENDBRANCH   1  44
TORSDOF 17
ENDMDL
MODEL 5
REMARK VINA RESULT:      -7.4      3.226      9.836
REMARK  17 active torsions:
REMARK  status: ('A' for Active; 'I' for Inactive)
REMARK    1  A    between atoms: P_1  and  O_7 
REMARK    2  A    between atoms: P_1  and  O_12 
REMARK    3  A    between atoms: P_1  and  O_15 
REMARK    4  A    between atoms: P_2  and  O_10 
REMARK    5  A    between atoms: P_2  and  O_12 
REMARK    6  A    between atoms: P_2  and  O_16 
REMARK    7  A    between atoms: C_22  and  O_5 
REMARK    8  A    between atoms: C_23  and  O_6 
REMARK    9  A    between atoms: C_30  and  O_7 
REMARK   10  A    between atoms: C_26  and  O_8 
REMARK   11  A    between atoms: C_27  and  O_9 
REMARK   12  A    between atoms: O_10  and  C_31 
REMARK   13  A    between atoms: C_28  and  O_11 
REMARK   14  A    between atoms: O_13  and  C_32 
REMARK   15  A    between atoms: C_25  and  N_20 
REMARK   16  A    between atoms: C_24  and  C_31 
REMARK   17  A    between atoms: C_29  and  C_32 
ROOT
HETATM    1  P   UNK N   1      34.258  17.464   8.283  0.00  0.00     0.401 P 
HETATM    2  O   UNK N   1      34.548  17.609   6.762  0.00  0.00    -0.631 OA
ENDROOT
BRANCH   1   3
HETATM    3  O   UNK N   1      32.645  18.045   8.655  0.00  0.00    -0.294 OA
BRANCH   3   4
HETATM    4  C   UNK N   1      31.756  17.046   8.248  0.00  0.00     0.215 C 
BRANCH   4   5
HETATM    5  C   UNK N   1      30.419  17.615   7.775  0.00  0.00     0.180 C 
HETATM    6  O   UNK N   1      29.574  16.626   7.215  0.00  0.00    -0.353 OA
HETATM    7  C   UNK N   1      28.263  17.103   7.411  0.00  0.00     0.263 C 
HETATM    8  C   UNK N   1      28.303  17.734   8.794  0.00  0.00     0.198 C 
HETATM    9  C   UNK N   1      29.658  18.346   8.889  0.00  0.00     0.182 C 
BRANCH   7  10
HETATM   10  N   UNK N   1      27.843  17.985   6.292  0.00  0.00    -0.280 N 
HETATM   11  C   UNK N   1      27.557  17.475   5.035  0.00  0.00     0.331 A 
HETATM   12  O   UNK N   1      27.615  16.279   4.819  0.00  0.00    -0.246 OA
HETATM   13  N   UNK N   1      27.234  18.324   4.008  0.00  0.00    -0.275 N 
HETATM   14  C   UNK N   1      27.206  19.677   4.195  0.00  0.00     0.250 A 
HETATM   15  H   UNK N   1      27.019  17.953   3.122  0.00  0.00     0.173 HD
HETATM   16  O   UNK N   1      26.928  20.416   3.268  0.00  0.00    -0.268 OA
HETATM   17  C   UNK N   1      27.504  20.208   5.441  0.00  0.00     0.092 A 
HETATM   18  C   UNK N   1      27.823  19.339   6.480  0.00  0.00     0.104 A 
ENDBRANCH   7  10
BRANCH   8  19
HETATM   19  O   UNK N   1      27.290  18.640   9.098  0.00  0.00    -0.388 OA
HETATM   20  H   UNK N   1      26.552  18.777   8.484  0.00  0.00     0.210 HD
ENDBRANCH   8  19
BRANCH   9  21
HETATM   21  O   UNK N   1      30.159  18.070  10.166  0.00  0.00    -0.390 OA
HETATM   22  H   UNK N   1      30.781  18.681  10.592  0.00  0.00     0.210 HD
ENDBRANCH   9  21
ENDBRANCH   4   5
ENDBRANCH   3   4
ENDBRANCH   1   3
BRANCH   1  23
HETATM   23  O   UNK N   1      34.595  15.812   8.733  0.00  0.00    -0.195 OA
BRANCH  23  24
HETATM   24  P   UNK N   1      35.289  15.812  10.338  0.00  0.00     0.404 P 
HETATM   25  O   UNK N   1      36.829  15.860  10.152  0.00  0.00    -0.631 OA
BRANCH  24  26
HETATM   26  O   UNK N   1      34.986  14.342  11.221  0.00  0.00    -0.263 OA
BRANCH  26  27
HETATM   27  C   UNK N   1      36.186  13.612  11.328  0.00  0.00     0.303 C 
HETATM   28  O   UNK N   1      36.750  13.714  12.624  0.00  0.00    -0.348 OA
HETATM   29  C   UNK N   1      35.752  13.415  13.579  0.00  0.00     0.179 C 
HETATM   30  C   UNK N   1      35.344  11.936  13.496  0.00  0.00     0.180 C 
HETATM   31  C   UNK N   1      34.869  11.649  12.064  0.00  0.00     0.183 C 
HETATM   32  C   UNK N   1      35.905  12.133  11.041  0.00  0.00     0.205 C 
BRANCH  29  33
HETATM   33  C   UNK N   1      36.229  13.807  14.967  0.00  0.00     0.198 C 
BRANCH  33  34
HETATM   34  O   UNK N   1      37.610  13.632  15.059  0.00  0.00    -0.398 OA
HETATM   35  H   UNK N   1      38.189  13.945  14.346  0.00  0.00     0.209 HD
ENDBRANCH  33  34
ENDBRANCH  29  33
BRANCH  30  36
HETATM   36  O   UNK N   1      36.429  11.118  13.821  0.00  0.00    -0.390 OA
HETATM   37  H   UNK N   1      36.865  10.254  13.742  0.00  0.00     0.210 HD
ENDBRANCH  30  36
BRANCH  31  38
HETATM   38  O   UNK N   1      34.589  10.293  11.894  0.00  0.00    -0.390 OA
HETATM   39  H   UNK N   1      34.789   9.857  11.051  0.00  0.00     0.210 HD
ENDBRANCH  31  38
BRANCH  32  40
HETATM   40  O   UNK N   1      35.420  11.974   9.741  0.00  0.00    -0.388 OA
HETATM   41  H   UNK N   1      34.798  12.613   9.362  0.00  0.00     0.210 HD
ENDBRANCH  32  40
ENDBRANCH  26  27
ENDBRANCH  24  26
BRANCH  24  42
HETATM   42  O   UNK N   1      34.842  17.160  11.331  0.00  0.00    -0.307 OA
HETATM   43  H   UNK N   1      34.244  17.035  12.085  0.00  0.00     0.222 HD
ENDBRANCH  24  42
ENDBRANCH  23  24
ENDBRANCH   1  23
BRANCH   1  44
HETATM   44  O   UNK N   1      35.408  18.509   9.055  0.00  0.00    -0.307 OA
HETATM   45  H   UNK N   1      36.321  18.439   9.376  0.00  0.00     0.222 HD
ENDBRANCH   1  44
TORSDOF 17
ENDMDL
MODEL 6
REMARK VINA RESULT:      -7.4      3.546     10.030
REMARK  17 active torsions:
REMARK  status: ('A' for Active; 'I' for Inactive)
REMARK    1  A    between atoms: P_1  and  O_7 
REMARK    2  A    between atoms: P_1  and  O_12 
REMARK    3  A    between atoms: P_1  and  O_15 
REMARK    4  A    between atoms: P_2  and  O_10 
REMARK    5  A    between atoms: P_2  and  O_12 
REMARK    6  A    between atoms: P_2  and  O_16 
REMARK    7  A    between atoms: C_22  and  O_5 
REMARK    8  A    between atoms: C_23  and  O_6 
REMARK    9  A    between atoms: C_30  and  O_7 
REMARK   10  A    between atoms: C_26  and  O_8 
REMARK   11  A    between atoms: C_27  and  O_9 
REMARK   12  A    between atoms: O_10  and  C_31 
REMARK   13  A    between atoms: C_28  and  O_11 
REMARK   14  A    between atoms: O_13  and  C_32 
REMARK   15  A    between atoms: C_25  and  N_20 
REMARK   16  A    between atoms: C_24  and  C_31 
REMARK   17  A    between atoms: C_29  and  C_32 
ROOT
HETATM    1  P   UNK N   1      33.356  16.241   6.189  0.00  0.00     0.401 P 
HETATM    2  O   UNK N   1      32.966  14.931   6.929  0.00  0.00    -0.631 OA
ENDROOT
BRANCH   1   3
HETATM    3  O   UNK N   1      32.005  17.360   6.175  0.00  0.00    -0.294 OA
BRANCH   3   4
HETATM    4  C   UNK N   1      30.843  16.584   6.171  0.00  0.00     0.215 C 
BRANCH   4   5
HETATM    5  C   UNK N   1      29.577  17.432   6.050  0.00  0.00     0.180 C 
HETATM    6  O   UNK N   1      28.411  16.647   5.880  0.00  0.00    -0.353 OA
HETATM    7  C   UNK N   1      27.358  17.428   6.397  0.00  0.00     0.263 C 
HETATM    8  C   UNK N   1      27.961  18.091   7.626  0.00  0.00     0.198 C 
HETATM    9  C   UNK N   1      29.375  18.370   7.248  0.00  0.00     0.182 C 
BRANCH   7  10
HETATM   10  N   UNK N   1      26.806  18.335   5.358  0.00  0.00    -0.280 N 
HETATM   11  C   UNK N   1      25.665  18.008   4.642  0.00  0.00     0.331 A 
HETATM   12  O   UNK N   1      25.062  16.975   4.867  0.00  0.00    -0.246 OA
HETATM   13  N   UNK N   1      25.218  18.838   3.646  0.00  0.00    -0.275 N 
HETATM   14  C   UNK N   1      25.893  19.983   3.328  0.00  0.00     0.250 A 
HETATM   15  H   UNK N   1      24.400  18.605   3.152  0.00  0.00     0.173 HD
HETATM   16  O   UNK N   1      25.489  20.701   2.433  0.00  0.00    -0.268 OA
HETATM   17  C   UNK N   1      27.046  20.319   4.022  0.00  0.00     0.092 A 
HETATM   18  C   UNK N   1      27.488  19.475   5.037  0.00  0.00     0.104 A 
ENDBRANCH   7  10
BRANCH   8  19
HETATM   19  O   UNK N   1      27.309  19.224   8.108  0.00  0.00    -0.388 OA
HETATM   20  H   UNK N   1      27.537  20.105   7.770  0.00  0.00     0.210 HD
ENDBRANCH   8  19
BRANCH   9  21
HETATM   21  O   UNK N   1      30.179  18.038   8.343  0.00  0.00    -0.390 OA
HETATM   22  H   UNK N   1      30.496  17.128   8.462  0.00  0.00     0.210 HD
ENDBRANCH   9  21
ENDBRANCH   4   5
ENDBRANCH   3   4
ENDBRANCH   1   3
BRANCH   1  23
HETATM   23  O   UNK N   1      34.831  16.839   6.906  0.00  0.00    -0.195 OA
BRANCH  23  24
HETATM   24  P   UNK N   1      34.494  17.285   8.562  0.00  0.00     0.404 P 
HETATM   25  O   UNK N   1      35.080  18.709   8.763  0.00  0.00    -0.631 OA
BRANCH  24  26
HETATM   26  O   UNK N   1      35.317  16.288   9.727  0.00  0.00    -0.263 OA
BRANCH  26  27
HETATM   27  C   UNK N   1      34.988  14.938   9.494  0.00  0.00     0.303 C 
HETATM   28  O   UNK N   1      36.130  14.169   9.157  0.00  0.00    -0.348 OA
HETATM   29  C   UNK N   1      37.139  14.408  10.118  0.00  0.00     0.179 C 
HETATM   30  C   UNK N   1      36.733  13.840  11.486  0.00  0.00     0.180 C 
HETATM   31  C   UNK N   1      35.396  14.475  11.892  0.00  0.00     0.183 C 
HETATM   32  C   UNK N   1      34.366  14.344  10.762  0.00  0.00     0.205 C 
BRANCH  29  33
HETATM   33  C   UNK N   1      38.463  13.849   9.628  0.00  0.00     0.198 C 
BRANCH  33  34
HETATM   34  O   UNK N   1      39.204  13.369  10.710  0.00  0.00    -0.398 OA
HETATM   35  H   UNK N   1      38.769  12.849  11.404  0.00  0.00     0.209 HD
ENDBRANCH  33  34
ENDBRANCH  29  33
BRANCH  30  36
HETATM   36  O   UNK N   1      36.608  12.450  11.413  0.00  0.00    -0.390 OA
HETATM   37  H   UNK N   1      36.037  11.679  11.270  0.00  0.00     0.210 HD
ENDBRANCH  30  36
BRANCH  31  38
HETATM   38  O   UNK N   1      34.917  13.916  13.077  0.00  0.00    -0.390 OA
HETATM   39  H   UNK N   1      34.052  14.183  13.427  0.00  0.00     0.210 HD
ENDBRANCH  31  38
BRANCH  32  40
HETATM   40  O   UNK N   1      33.190  15.021  11.090  0.00  0.00    -0.388 OA
HETATM   41  H   UNK N   1      33.195  15.737  11.744  0.00  0.00     0.210 HD
ENDBRANCH  32  40
ENDBRANCH  26  27
ENDBRANCH  24  26
BRANCH  24  42
HETATM   42  O   UNK N   1      32.812  17.352   8.976  0.00  0.00    -0.307 OA
HETATM   43  H   UNK N   1      32.485  18.034   9.585  0.00  0.00     0.222 HD
ENDBRANCH  24  42
ENDBRANCH  23  24
ENDBRANCH   1  23
BRANCH   1  44
HETATM   44  O   UNK N   1      33.677  15.750   4.557  0.00  0.00    -0.307 OA
HETATM   45  H   UNK N   1      33.247  15.190   3.890  0.00  0.00     0.222 HD
ENDBRANCH   1  44
TORSDOF 17
ENDMDL
MODEL 7
REMARK VINA RESULT:      -7.4      3.375      5.789
REMARK  17 active torsions:
REMARK  status: ('A' for Active; 'I' for Inactive)
REMARK    1  A    between atoms: P_1  and  O_7 
REMARK    2  A    between atoms: P_1  and  O_12 
REMARK    3  A    between atoms: P_1  and  O_15 
REMARK    4  A    between atoms: P_2  and  O_10 
REMARK    5  A    between atoms: P_2  and  O_12 
REMARK    6  A    between atoms: P_2  and  O_16 
REMARK    7  A    between atoms: C_22  and  O_5 
REMARK    8  A    between atoms: C_23  and  O_6 
REMARK    9  A    between atoms: C_30  and  O_7 
REMARK   10  A    between atoms: C_26  and  O_8 
REMARK   11  A    between atoms: C_27  and  O_9 
REMARK   12  A    between atoms: O_10  and  C_31 
REMARK   13  A    between atoms: C_28  and  O_11 
REMARK   14  A    between atoms: O_13  and  C_32 
REMARK   15  A    between atoms: C_25  and  N_20 
REMARK   16  A    between atoms: C_24  and  C_31 
REMARK   17  A    between atoms: C_29  and  C_32 
ROOT
HETATM    1  P   UNK N   1      34.242  10.386   9.780  0.00  0.00     0.401 P 
HETATM    2  O   UNK N   1      35.215   9.173   9.741  0.00  0.00    -0.631 OA
ENDROOT
BRANCH   1   3
HETATM    3  O   UNK N   1      33.996  10.918  11.434  0.00  0.00    -0.294 OA
BRANCH   3   4
HETATM    4  C   UNK N   1      35.228  10.793  12.082  0.00  0.00     0.215 C 
BRANCH   4   5
HETATM    5  C   UNK N   1      35.441  11.875  13.140  0.00  0.00     0.180 C 
HETATM    6  O   UNK N   1      36.672  11.730  13.825  0.00  0.00    -0.353 OA
HETATM    7  C   UNK N   1      37.011  13.028  14.257  0.00  0.00     0.263 C 
HETATM    8  C   UNK N   1      36.598  13.921  13.098  0.00  0.00     0.198 C 
HETATM    9  C   UNK N   1      35.356  13.294  12.564  0.00  0.00     0.182 C 
BRANCH   7  10
HETATM   10  N   UNK N   1      36.401  13.328  15.577  0.00  0.00    -0.280 N 
HETATM   11  C   UNK N   1      36.770  14.445  16.310  0.00  0.00     0.331 A 
HETATM   12  O   UNK N   1      37.591  15.233  15.876  0.00  0.00    -0.246 OA
HETATM   13  N   UNK N   1      36.233  14.659  17.553  0.00  0.00    -0.275 N 
HETATM   14  C   UNK N   1      35.345  13.774  18.098  0.00  0.00     0.250 A 
HETATM   15  H   UNK N   1      36.491  15.461  18.061  0.00  0.00     0.173 HD
HETATM   16  O   UNK N   1      34.888  13.974  19.208  0.00  0.00    -0.268 OA
HETATM   17  C   UNK N   1      34.975  12.643  17.388  0.00  0.00     0.092 A 
HETATM   18  C   UNK N   1      35.519  12.438  16.123  0.00  0.00     0.104 A 
ENDBRANCH   7  10
BRANCH   8  19
HETATM   19  O   UNK N   1      36.427  15.274  13.381  0.00  0.00    -0.388 OA
HETATM   20  H   UNK N   1      35.598  15.595  13.769  0.00  0.00     0.210 HD
ENDBRANCH   8  19
BRANCH   9  21
HETATM   21  O   UNK N   1      35.434  13.322  11.167  0.00  0.00    -0.390 OA
HETATM   22  H   UNK N   1      35.835  12.582  10.683  0.00  0.00     0.210 HD
ENDBRANCH   9  21
ENDBRANCH   4   5
ENDBRANCH   3   4
ENDBRANCH   1   3
BRANCH   1  23
HETATM   23  O   UNK N   1      34.851  11.592   8.676  0.00  0.00    -0.195 OA
BRANCH  23  24
HETATM   24  P   UNK N   1      33.520  12.617   8.194  0.00  0.00     0.404 P 
HETATM   25  O   UNK N   1      32.921  11.987   6.908  0.00  0.00    -0.631 OA
BRANCH  24  26
HETATM   26  O   UNK N   1      34.015  14.219   7.726  0.00  0.00    -0.263 OA
BRANCH  26  27
HETATM   27  C   UNK N   1      33.040  15.145   8.147  0.00  0.00     0.303 C 
HETATM   28  O   UNK N   1      33.420  15.802   9.343  0.00  0.00    -0.348 OA
HETATM   29  C   UNK N   1      34.731  16.306   9.189  0.00  0.00     0.179 C 
HETATM   30  C   UNK N   1      34.762  17.437   8.150  0.00  0.00     0.180 C 
HETATM   31  C   UNK N   1      34.200  16.891   6.829  0.00  0.00     0.183 C 
HETATM   32  C   UNK N   1      32.846  16.205   7.057  0.00  0.00     0.205 C 
BRANCH  29  33
HETATM   33  C   UNK N   1      35.281  16.741  10.536  0.00  0.00     0.198 C 
BRANCH  33  34
HETATM   34  O   UNK N   1      36.587  16.272  10.689  0.00  0.00    -0.398 OA
HETATM   35  H   UNK N   1      37.338  16.864  10.527  0.00  0.00     0.209 HD
ENDBRANCH  33  34
ENDBRANCH  29  33
BRANCH  30  36
HETATM   36  O   UNK N   1      33.996  18.519   8.592  0.00  0.00    -0.390 OA
HETATM   37  H   UNK N   1      33.860  19.479   8.618  0.00  0.00     0.210 HD
ENDBRANCH  30  36
BRANCH  31  38
HETATM   38  O   UNK N   1      34.097  17.903   5.874  0.00  0.00    -0.390 OA
HETATM   39  H   UNK N   1      33.252  18.065   5.426  0.00  0.00     0.210 HD
ENDBRANCH  31  38
BRANCH  32  40
HETATM   40  O   UNK N   1      32.393  15.611   5.877  0.00  0.00    -0.388 OA
HETATM   41  H   UNK N   1      32.036  14.710   5.881  0.00  0.00     0.210 HD
ENDBRANCH  32  40
ENDBRANCH  26  27
ENDBRANCH  24  26
BRANCH  24  42
HETATM   42  O   UNK N   1      32.237  12.747   9.354  0.00  0.00    -0.307 OA
HETATM   43  H   UNK N   1      31.489  12.130   9.327  0.00  0.00     0.222 HD
ENDBRANCH  24  42
ENDBRANCH  23  24
ENDBRANCH   1  23
BRANCH   1  44
HETATM   44  O   UNK N   1      32.739   9.768   9.174  0.00  0.00    -0.307 OA
HETATM   45  H   UNK N   1      32.387   9.482   8.316  0.00  0.00     0.222 HD
ENDBRANCH   1  44
TORSDOF 17
ENDMDL
MODEL 8
REMARK VINA RESULT:      -7.4      2.111      3.400
REMARK  17 active torsions:
REMARK  status: ('A' for Active; 'I' for Inactive)
REMARK    1  A    between atoms: P_1  and  O_7 
REMARK    2  A    between atoms: P_1  and  O_12 
REMARK    3  A    between atoms: P_1  and  O_15 
REMARK    4  A    between atoms: P_2  and  O_10 
REMARK    5  A    between atoms: P_2  and  O_12 
REMARK    6  A    between atoms: P_2  and  O_16 
REMARK    7  A    between atoms: C_22  and  O_5 
REMARK    8  A    between atoms: C_23  and  O_6 
REMARK    9  A    between atoms: C_30  and  O_7 
REMARK   10  A    between atoms: C_26  and  O_8 
REMARK   11  A    between atoms: C_27  and  O_9 
REMARK   12  A    between atoms: O_10  and  C_31 
REMARK   13  A    between atoms: C_28  and  O_11 
REMARK   14  A    between atoms: O_13  and  C_32 
REMARK   15  A    between atoms: C_25  and  N_20 
REMARK   16  A    between atoms: C_24  and  C_31 
REMARK   17  A    between atoms: C_29  and  C_32 
ROOT
HETATM    1  P   UNK N   1      34.721  16.324   9.837  0.00  0.00     0.401 P 
HETATM    2  O   UNK N   1      35.684  17.491  10.194  0.00  0.00    -0.631 OA
ENDROOT
BRANCH   1   3
HETATM    3  O   UNK N   1      34.454  15.303  11.239  0.00  0.00    -0.294 OA
BRANCH   3   4
HETATM    4  C   UNK N   1      35.639  15.322  11.980  0.00  0.00     0.215 C 
BRANCH   4   5
HETATM    5  C   UNK N   1      35.749  14.131  12.932  0.00  0.00     0.180 C 
HETATM    6  O   UNK N   1      34.524  13.436  13.077  0.00  0.00    -0.353 OA
HETATM    7  C   UNK N   1      34.884  12.116  13.415  0.00  0.00     0.263 C 
HETATM    8  C   UNK N   1      36.110  11.838  12.560  0.00  0.00     0.198 C 
HETATM    9  C   UNK N   1      36.840  13.136  12.515  0.00  0.00     0.182 C 
BRANCH   7  10
HETATM   10  N   UNK N   1      35.052  11.969  14.884  0.00  0.00    -0.280 N 
HETATM   11  C   UNK N   1      35.002  10.728  15.498  0.00  0.00     0.331 A 
HETATM   12  O   UNK N   1      34.847   9.713  14.844  0.00  0.00    -0.246 OA
HETATM   13  N   UNK N   1      35.097  10.633  16.863  0.00  0.00    -0.275 N 
HETATM   14  C   UNK N   1      35.223  11.751  17.639  0.00  0.00     0.250 A 
HETATM   15  H   UNK N   1      35.074   9.747  17.290  0.00  0.00     0.173 HD
HETATM   16  O   UNK N   1      35.295  11.649  18.850  0.00  0.00    -0.268 OA
HETATM   17  C   UNK N   1      35.259  13.003  17.044  0.00  0.00     0.092 A 
HETATM   18  C   UNK N   1      35.170  13.089  15.658  0.00  0.00     0.104 A 
ENDBRANCH   7  10
BRANCH   8  19
HETATM   19  O   UNK N   1      36.928  10.785  12.963  0.00  0.00    -0.388 OA
HETATM   20  H   UNK N   1      37.811  10.672  12.577  0.00  0.00     0.210 HD
ENDBRANCH   8  19
BRANCH   9  21
HETATM   21  O   UNK N   1      37.281  13.328  11.201  0.00  0.00    -0.390 OA
HETATM   22  H   UNK N   1      37.829  14.097  10.975  0.00  0.00     0.210 HD
ENDBRANCH   9  21
ENDBRANCH   4   5
ENDBRANCH   3   4
ENDBRANCH   1   3
BRANCH   1  23
HETATM   23  O   UNK N   1      33.290  17.015   9.117  0.00  0.00    -0.195 OA
BRANCH  23  24
HETATM   24  P   UNK N   1      32.489  15.772   8.186  0.00  0.00     0.404 P 
HETATM   25  O   UNK N   1      33.158  15.769   6.785  0.00  0.00    -0.631 OA
BRANCH  24  26
HETATM   26  O   UNK N   1      30.808  16.109   7.884  0.00  0.00    -0.263 OA
BRANCH  26  27
HETATM   27  C   UNK N   1      30.668  17.463   7.519  0.00  0.00     0.303 C 
HETATM   28  O   UNK N   1      30.095  17.603   6.230  0.00  0.00    -0.348 OA
HETATM   29  C   UNK N   1      28.923  16.816   6.165  0.00  0.00     0.179 C 
HETATM   30  C   UNK N   1      27.834  17.382   7.090  0.00  0.00     0.180 C 
HETATM   31  C   UNK N   1      28.401  17.446   8.515  0.00  0.00     0.183 C 
HETATM   32  C   UNK N   1      29.756  18.167   8.530  0.00  0.00     0.205 C 
BRANCH  29  33
HETATM   33  C   UNK N   1      28.457  16.700   4.725  0.00  0.00     0.198 C 
BRANCH  33  34
HETATM   34  O   UNK N   1      28.694  17.900   4.052  0.00  0.00    -0.398 OA
HETATM   35  H   UNK N   1      27.963  18.517   3.888  0.00  0.00     0.209 HD
ENDBRANCH  33  34
ENDBRANCH  29  33
BRANCH  30  36
HETATM   36  O   UNK N   1      27.453  18.656   6.662  0.00  0.00    -0.390 OA
HETATM   37  H   UNK N   1      26.943  19.465   6.828  0.00  0.00     0.210 HD
ENDBRANCH  30  36
BRANCH  31  38
HETATM   38  O   UNK N   1      27.497  18.057   9.385  0.00  0.00    -0.390 OA
HETATM   39  H   UNK N   1      27.120  18.924   9.165  0.00  0.00     0.210 HD
ENDBRANCH  31  38
BRANCH  32  40
HETATM   40  O   UNK N   1      30.320  18.123   9.806  0.00  0.00    -0.388 OA
HETATM   41  H   UNK N   1      29.868  17.669  10.533  0.00  0.00     0.210 HD
ENDBRANCH  32  40
ENDBRANCH  26  27
ENDBRANCH  24  26
BRANCH  24  42
HETATM   42  O   UNK N   1      32.627  14.168   8.831  0.00  0.00    -0.307 OA
HETATM   43  H   UNK N   1      31.832  13.644   9.013  0.00  0.00     0.222 HD
ENDBRANCH  24  42
ENDBRANCH  23  24
ENDBRANCH   1  23
BRANCH   1  44
HETATM   44  O   UNK N   1      35.570  15.398   8.641  0.00  0.00    -0.307 OA
HETATM   45  H   UNK N   1      36.032  15.577   7.806  0.00  0.00     0.222 HD
ENDBRANCH   1  44
TORSDOF 17
ENDMDL
MODEL 9
REMARK VINA RESULT:      -7.4      3.478      8.836
REMARK  17 active torsions:
REMARK  status: ('A' for Active; 'I' for Inactive)
REMARK    1  A    between atoms: P_1  and  O_7 
REMARK    2  A    between atoms: P_1  and  O_12 
REMARK    3  A    between atoms: P_1  and  O_15 
REMARK    4  A    between atoms: P_2  and  O_10 
REMARK    5  A    between atoms: P_2  and  O_12 
REMARK    6  A    between atoms: P_2  and  O_16 
REMARK    7  A    between atoms: C_22  and  O_5 
REMARK    8  A    between atoms: C_23  and  O_6 
REMARK    9  A    between atoms: C_30  and  O_7 
REMARK   10  A    between atoms: C_26  and  O_8 
REMARK   11  A    between atoms: C_27  and  O_9 
REMARK   12  A    between atoms: O_10  and  C_31 
REMARK   13  A    between atoms: C_28  and  O_11 
REMARK   14  A    between atoms: O_13  and  C_32 
REMARK   15  A    between atoms: C_25  and  N_20 
REMARK   16  A    between atoms: C_24  and  C_31 
REMARK   17  A    between atoms: C_29  and  C_32 
ROOT
HETATM    1  P   UNK N   1      32.375  13.779   5.242  0.00  0.00     0.401 P 
HETATM    2  O   UNK N   1      32.076  12.375   4.645  0.00  0.00    -0.631 OA
ENDROOT
BRANCH   1   3
HETATM    3  O   UNK N   1      31.479  15.014   4.377  0.00  0.00    -0.294 OA
BRANCH   3   4
HETATM    4  C   UNK N   1      32.037  16.243   4.741  0.00  0.00     0.215 C 
BRANCH   4   5
HETATM    5  C   UNK N   1      31.140  17.028   5.697  0.00  0.00     0.180 C 
HETATM    6  O   UNK N   1      29.921  16.361   5.970  0.00  0.00    -0.353 OA
HETATM    7  C   UNK N   1      29.523  16.820   7.241  0.00  0.00     0.263 C 
HETATM    8  C   UNK N   1      30.824  16.910   8.024  0.00  0.00     0.198 C 
HETATM    9  C   UNK N   1      31.834  17.360   7.025  0.00  0.00     0.182 C 
BRANCH   7  10
HETATM   10  N   UNK N   1      28.726  18.069   7.133  0.00  0.00    -0.280 N 
HETATM   11  C   UNK N   1      28.028  18.580   8.216  0.00  0.00     0.331 A 
HETATM   12  O   UNK N   1      28.072  18.032   9.302  0.00  0.00    -0.246 OA
HETATM   13  N   UNK N   1      27.252  19.700   8.065  0.00  0.00    -0.275 N 
HETATM   14  C   UNK N   1      27.136  20.318   6.852  0.00  0.00     0.250 A 
HETATM   15  H   UNK N   1      26.770  20.064   8.842  0.00  0.00     0.173 HD
HETATM   16  O   UNK N   1      26.432  21.305   6.734  0.00  0.00    -0.268 OA
HETATM   17  C   UNK N   1      27.814  19.813   5.753  0.00  0.00     0.092 A 
HETATM   18  C   UNK N   1      28.606  18.681   5.917  0.00  0.00     0.104 A 
ENDBRANCH   7  10
BRANCH   8  19
HETATM   19  O   UNK N   1      30.814  17.711   9.164  0.00  0.00    -0.388 OA
HETATM   20  H   UNK N   1      30.253  17.482   9.922  0.00  0.00     0.210 HD
ENDBRANCH   8  19
BRANCH   9  21
HETATM   21  O   UNK N   1      32.998  16.613   7.235  0.00  0.00    -0.390 OA
HETATM   22  H   UNK N   1      33.856  16.946   6.927  0.00  0.00     0.210 HD
ENDBRANCH   9  21
ENDBRANCH   4   5
ENDBRANCH   3   4
ENDBRANCH   1   3
BRANCH   1  23
HETATM   23  O   UNK N   1      32.090  13.697   6.962  0.00  0.00    -0.195 OA
BRANCH  23  24
HETATM   24  P   UNK N   1      33.415  12.825   7.697  0.00  0.00     0.404 P 
HETATM   25  O   UNK N   1      32.797  11.943   8.815  0.00  0.00    -0.631 OA
BRANCH  24  26
HETATM   26  O   UNK N   1      34.554  13.858   8.513  0.00  0.00    -0.263 OA
BRANCH  26  27
HETATM   27  C   UNK N   1      34.432  13.671   9.904  0.00  0.00     0.303 C 
HETATM   28  O   UNK N   1      35.636  13.194  10.479  0.00  0.00    -0.348 OA
HETATM   29  C   UNK N   1      36.702  14.019  10.052  0.00  0.00     0.179 C 
HETATM   30  C   UNK N   1      36.571  15.429  10.648  0.00  0.00     0.180 C 
HETATM   31  C   UNK N   1      35.207  15.999  10.236  0.00  0.00     0.183 C 
HETATM   32  C   UNK N   1      34.082  15.009  10.565  0.00  0.00     0.205 C 
BRANCH  29  33
HETATM   33  C   UNK N   1      38.030  13.366  10.393  0.00  0.00     0.198 C 
BRANCH  33  34
HETATM   34  O   UNK N   1      38.058  13.029  11.747  0.00  0.00    -0.398 OA
HETATM   35  H   UNK N   1      38.812  13.292  12.298  0.00  0.00     0.209 HD
ENDBRANCH  33  34
ENDBRANCH  29  33
BRANCH  30  36
HETATM   36  O   UNK N   1      36.674  15.375  12.040  0.00  0.00    -0.390 OA
HETATM   37  H   UNK N   1      36.886  14.858  12.834  0.00  0.00     0.210 HD
ENDBRANCH  30  36
BRANCH  31  38
HETATM   38  O   UNK N   1      34.981  17.237  10.840  0.00  0.00    -0.390 OA
HETATM   39  H   UNK N   1      34.591  17.964  10.328  0.00  0.00     0.210 HD
ENDBRANCH  31  38
BRANCH  32  40
HETATM   40  O   UNK N   1      32.858  15.482  10.087  0.00  0.00    -0.388 OA
HETATM   41  H   UNK N   1      32.040  14.982  10.237  0.00  0.00     0.210 HD
ENDBRANCH  32  40
ENDBRANCH  26  27
ENDBRANCH  24  26
BRANCH  24  42
HETATM   42  O   UNK N   1      34.285  11.774   6.627  0.00  0.00    -0.307 OA
HETATM   43  H   UNK N   1      35.042  12.109   6.122  0.00  0.00     0.222 HD
ENDBRANCH  24  42
ENDBRANCH  23  24
ENDBRANCH   1  23
BRANCH   1  44
HETATM   44  O   UNK N   1      34.068  14.029   4.958  0.00  0.00    -0.307 OA
HETATM   45  H   UNK N   1      34.832  14.340   5.470  0.00  0.00     0.222 HD
ENDBRANCH   1  44
TORSDOF 17
ENDMDL
