REMARK  1 active torsions:
REMARK  status: ('A' for Active; 'I' for Inactive)
REMARK    1  A    between atoms: C_2  and  C_3 
ROOT
HETATM    1 Cl   UNK N   1       2.933  -1.357   0.000  0.00  0.00    -0.129 Cl
HETATM    2  C   UNK N   1       1.174  -1.099  -0.000  0.00  0.00     0.129 C 
ENDROOT
BRANCH   2   3
HETATM    3  C   UNK N   1       0.888   0.385  -0.000  0.00  0.00     0.129 C 
HETATM    4 Cl   UNK N   1      -0.870   0.643   0.000  0.00  0.00    -0.129 Cl
ENDBRANCH   2   3
TORSDOF 1
