REMARK  3 active torsions:
REMARK  status: ('A' for Active; 'I' for Inactive)
REMARK    1  A    between atoms: C_2  and  O_1 
REMARK    2  A    between atoms: C_2  and  C_5 
REMARK    3  A    between atoms: C_8  and  O_9 
ROOT
HETATM    1  C   UNK N   1       0.702  -1.942   0.014  0.00  0.00     0.257 C 
HETATM    2  C   UNK N   1       2.008  -2.608   0.001  0.00  0.00     0.096 C 
HETATM    3  N   UNK N   1       3.052  -3.111  -0.007  0.00  0.00    -0.194 NA
ENDROOT
BRANCH   1   4
HETATM    4  O   UNK N   1      -0.446  -2.736  -0.009  0.00  0.00    -0.377 OA
HETATM    5  H   UNK N   1      -1.323  -2.321  -0.025  0.00  0.00     0.211 HD
ENDBRANCH   1   4
BRANCH   1   6
HETATM    6  C   UNK N   1       0.580  -0.450   0.003  0.00  0.00    -0.016 A 
HETATM    7  C   UNK N   1      -0.678   0.169   0.001  0.00  0.00     0.013 A 
HETATM    8  C   UNK N   1      -0.771   1.565  -0.002  0.00  0.00     0.037 A 
HETATM    9  C   UNK N   1       0.391   2.345  -0.002  0.00  0.00     0.065 A 
HETATM   10  C   UNK N   1       1.644   1.731  -0.000  0.00  0.00     0.037 A 
HETATM   11  C   UNK N   1       1.738   0.340   0.003  0.00  0.00     0.013 A 
BRANCH   9  12
HETATM   12  O   UNK N   1       0.303   3.685  -0.002  0.00  0.00    -0.361 OA
HETATM   13  H   UNK N   1       1.083   4.205  -0.003  0.00  0.00     0.217 HD
ENDBRANCH   9  12
ENDBRANCH   1   6
TORSDOF 3
