MODEL 1
REMARK VINA RESULT:      -5.2      0.000      0.000
REMARK  4 active torsions:
REMARK  status: ('A' for Active; 'I' for Inactive)
REMARK    1  A    between atoms: C_4  and  O_5 
REMARK    2  A    between atoms: C_6  and  O_7 
REMARK    3  A    between atoms: C_8  and  O_9 
REMARK    4  A    between atoms: C_10  and  O_11 
ROOT
HETATM    1  C   UNK N   1      20.176  15.869   2.092  0.00  0.00     0.042 C 
HETATM    2  C   UNK N   1      20.429  17.361   2.213  0.00  0.00     0.152 A 
HETATM    3  O   UNK N   1      20.634  17.840   3.539  0.00  0.00    -0.351 OA
HETATM    4  C   UNK N   1      20.872  19.235   3.661  0.00  0.00     0.288 A 
HETATM    5  C   UNK N   1      20.921  20.226   2.502  0.00  0.00     0.204 A 
HETATM    6  C   UNK N   1      20.708  19.726   1.124  0.00  0.00     0.182 A 
HETATM    7  C   UNK N   1      20.456  18.266   0.968  0.00  0.00     0.178 A 
ENDROOT
BRANCH   4   8
HETATM    8  O   UNK N   1      21.073  19.704   4.959  0.00  0.00    -0.369 OA
HETATM    9  H   UNK N   1      21.317  19.085   5.665  0.00  0.00     0.212 HD
ENDBRANCH   4   8
BRANCH   5  10
HETATM   10  O   UNK N   1      21.161  21.583   2.706  0.00  0.00    -0.388 OA
HETATM   11  H   UNK N   1      21.785  21.868   3.391  0.00  0.00     0.210 HD
ENDBRANCH   5  10
BRANCH   6  12
HETATM   12  O   UNK N   1      20.743  20.590   0.032  0.00  0.00    -0.390 OA
HETATM   13  H   UNK N   1      19.940  21.065  -0.236  0.00  0.00     0.210 HD
ENDBRANCH   6  12
BRANCH   7  14
HETATM   14  O   UNK N   1      20.251  17.759  -0.316  0.00  0.00    -0.390 OA
HETATM   15  H   UNK N   1      20.801  17.030  -0.643  0.00  0.00     0.210 HD
ENDBRANCH   7  14
TORSDOF 4
ENDMDL
MODEL 2
REMARK VINA RESULT:      -5.2      1.011      2.452
REMARK  4 active torsions:
REMARK  status: ('A' for Active; 'I' for Inactive)
REMARK    1  A    between atoms: C_4  and  O_5 
REMARK    2  A    between atoms: C_6  and  O_7 
REMARK    3  A    between atoms: C_8  and  O_9 
REMARK    4  A    between atoms: C_10  and  O_11 
ROOT
HETATM    1  C   UNK N   1      20.959  17.628   5.089  0.00  0.00     0.042 C 
HETATM    2  C   UNK N   1      20.913  18.356   3.758  0.00  0.00     0.152 A 
HETATM    3  O   UNK N   1      21.241  19.742   3.808  0.00  0.00    -0.351 OA
HETATM    4  C   UNK N   1      21.199  20.430   2.565  0.00  0.00     0.288 A 
HETATM    5  C   UNK N   1      20.838  19.805   1.222  0.00  0.00     0.204 A 
HETATM    6  C   UNK N   1      20.497  18.364   1.172  0.00  0.00     0.182 A 
HETATM    7  C   UNK N   1      20.533  17.618   2.461  0.00  0.00     0.178 A 
ENDROOT
BRANCH   4   8
HETATM    8  O   UNK N   1      21.520  21.787   2.614  0.00  0.00    -0.369 OA
HETATM    9  H   UNK N   1      20.878  22.448   2.311  0.00  0.00     0.212 HD
ENDBRANCH   4   8
BRANCH   5  10
HETATM   10  O   UNK N   1      20.821  20.551   0.045  0.00  0.00    -0.388 OA
HETATM   11  H   UNK N   1      19.984  20.912  -0.288  0.00  0.00     0.210 HD
ENDBRANCH   5  10
BRANCH   6  12
HETATM   12  O   UNK N   1      20.161  17.746  -0.030  0.00  0.00    -0.390 OA
HETATM   13  H   UNK N   1      20.777  17.120  -0.443  0.00  0.00     0.210 HD
ENDBRANCH   6  12
BRANCH   7  14
HETATM   14  O   UNK N   1      20.218  16.259   2.453  0.00  0.00    -0.390 OA
HETATM   15  H   UNK N   1      20.920  15.598   2.553  0.00  0.00     0.210 HD
ENDBRANCH   7  14
TORSDOF 4
ENDMDL
MODEL 3
REMARK VINA RESULT:      -5.1     13.763     14.796
REMARK  4 active torsions:
REMARK  status: ('A' for Active; 'I' for Inactive)
REMARK    1  A    between atoms: C_4  and  O_5 
REMARK    2  A    between atoms: C_6  and  O_7 
REMARK    3  A    between atoms: C_8  and  O_9 
REMARK    4  A    between atoms: C_10  and  O_11 
ROOT
HETATM    1  C   UNK N   1      33.080  17.249   4.905  0.00  0.00     0.042 C 
HETATM    2  C   UNK N   1      33.490  17.193   6.366  0.00  0.00     0.152 A 
HETATM    3  O   UNK N   1      34.279  18.289   6.821  0.00  0.00    -0.351 OA
HETATM    4  C   UNK N   1      34.667  18.243   8.188  0.00  0.00     0.288 A 
HETATM    5  C   UNK N   1      34.307  17.134   9.171  0.00  0.00     0.204 A 
HETATM    6  C   UNK N   1      33.487  15.995   8.695  0.00  0.00     0.182 A 
HETATM    7  C   UNK N   1      33.066  16.018   7.267  0.00  0.00     0.178 A 
ENDROOT
BRANCH   4   8
HETATM    8  O   UNK N   1      35.439  19.316   8.633  0.00  0.00    -0.369 OA
HETATM    9  H   UNK N   1      35.752  19.340   9.552  0.00  0.00     0.212 HD
ENDBRANCH   4   8
BRANCH   5  10
HETATM   10  O   UNK N   1      34.728  17.163  10.498  0.00  0.00    -0.388 OA
HETATM   11  H   UNK N   1      34.173  16.775  11.192  0.00  0.00     0.210 HD
ENDBRANCH   5  10
BRANCH   6  12
HETATM   12  O   UNK N   1      33.132  14.958   9.553  0.00  0.00    -0.390 OA
HETATM   13  H   UNK N   1      33.734  14.207   9.683  0.00  0.00     0.210 HD
ENDBRANCH   6  12
BRANCH   7  14
HETATM   14  O   UNK N   1      32.292  14.962   6.783  0.00  0.00    -0.390 OA
HETATM   15  H   UNK N   1      32.456  14.608   5.895  0.00  0.00     0.210 HD
ENDBRANCH   7  14
TORSDOF 4
ENDMDL
MODEL 4
REMARK VINA RESULT:      -5.1      0.801      3.003
REMARK  4 active torsions:
REMARK  status: ('A' for Active; 'I' for Inactive)
REMARK    1  A    between atoms: C_4  and  O_5 
REMARK    2  A    between atoms: C_6  and  O_7 
REMARK    3  A    between atoms: C_8  and  O_9 
REMARK    4  A    between atoms: C_10  and  O_11 
ROOT
HETATM    1  C   UNK N   1      19.849  16.468   0.762  0.00  0.00     0.042 C 
HETATM    2  C   UNK N   1      20.261  17.819   1.318  0.00  0.00     0.152 A 
HETATM    3  O   UNK N   1      20.491  18.835   0.347  0.00  0.00    -0.351 OA
HETATM    4  C   UNK N   1      20.877  20.103   0.861  0.00  0.00     0.288 A 
HETATM    5  C   UNK N   1      21.055  20.439   2.338  0.00  0.00     0.204 A 
HETATM    6  C   UNK N   1      20.814  19.381   3.346  0.00  0.00     0.182 A 
HETATM    7  C   UNK N   1      20.409  18.042   2.835  0.00  0.00     0.178 A 
ENDROOT
BRANCH   4   8
HETATM    8  O   UNK N   1      21.103  21.098  -0.090  0.00  0.00    -0.369 OA
HETATM    9  H   UNK N   1      20.759  20.994  -0.992  0.00  0.00     0.212 HD
ENDBRANCH   4   8
BRANCH   5  10
HETATM   10  O   UNK N   1      21.437  21.711   2.761  0.00  0.00    -0.388 OA
HETATM   11  H   UNK N   1      20.829  22.459   2.657  0.00  0.00     0.210 HD
ENDBRANCH   5  10
BRANCH   6  12
HETATM   12  O   UNK N   1      20.963  19.638   4.707  0.00  0.00    -0.390 OA
HETATM   13  H   UNK N   1      20.186  19.636   5.289  0.00  0.00     0.210 HD
ENDBRANCH   6  12
BRANCH   7  14
HETATM   14  O   UNK N   1      20.173  17.021   3.756  0.00  0.00    -0.390 OA
HETATM   15  H   UNK N   1      20.835  16.324   3.886  0.00  0.00     0.210 HD
ENDBRANCH   7  14
TORSDOF 4
ENDMDL
MODEL 5
REMARK VINA RESULT:      -5.0      9.678     11.525
REMARK  4 active torsions:
REMARK  status: ('A' for Active; 'I' for Inactive)
REMARK    1  A    between atoms: C_4  and  O_5 
REMARK    2  A    between atoms: C_6  and  O_7 
REMARK    3  A    between atoms: C_8  and  O_9 
REMARK    4  A    between atoms: C_10  and  O_11 
ROOT
HETATM    1  C   UNK N   1      25.006  13.425   8.920  0.00  0.00     0.042 C 
HETATM    2  C   UNK N   1      23.778  13.027   9.719  0.00  0.00     0.152 A 
HETATM    3  O   UNK N   1      22.528  13.393   9.142  0.00  0.00    -0.351 OA
HETATM    4  C   UNK N   1      21.374  13.023   9.885  0.00  0.00     0.288 A 
HETATM    5  C   UNK N   1      21.383  12.283  11.218  0.00  0.00     0.204 A 
HETATM    6  C   UNK N   1      22.684  11.903  11.817  0.00  0.00     0.182 A 
HETATM    7  C   UNK N   1      23.910  12.279  11.059  0.00  0.00     0.178 A 
ENDROOT
BRANCH   4   8
HETATM    8  O   UNK N   1      20.151  13.382   9.319  0.00  0.00    -0.369 OA
HETATM    9  H   UNK N   1      19.533  13.941   9.816  0.00  0.00     0.212 HD
ENDBRANCH   4   8
BRANCH   5  10
HETATM   10  O   UNK N   1      20.204  11.956  11.885  0.00  0.00    -0.388 OA
HETATM   11  H   UNK N   1      19.686  12.650  12.321  0.00  0.00     0.210 HD
ENDBRANCH   5  10
BRANCH   6  12
HETATM   12  O   UNK N   1      22.746  11.227  13.033  0.00  0.00    -0.390 OA
HETATM   13  H   UNK N   1      21.937  11.089  13.553  0.00  0.00     0.210 HD
ENDBRANCH   6  12
BRANCH   7  14
HETATM   14  O   UNK N   1      25.154  11.937  11.592  0.00  0.00    -0.390 OA
HETATM   15  H   UNK N   1      25.588  12.528  12.226  0.00  0.00     0.210 HD
ENDBRANCH   7  14
TORSDOF 4
ENDMDL
MODEL 6
REMARK VINA RESULT:      -4.8      9.606     11.356
REMARK  4 active torsions:
REMARK  status: ('A' for Active; 'I' for Inactive)
REMARK    1  A    between atoms: C_4  and  O_5 
REMARK    2  A    between atoms: C_6  and  O_7 
REMARK    3  A    between atoms: C_8  and  O_9 
REMARK    4  A    between atoms: C_10  and  O_11 
ROOT
HETATM    1  C   UNK N   1      22.312  13.906   7.910  0.00  0.00     0.042 C 
HETATM    2  C   UNK N   1      22.470  13.236   9.263  0.00  0.00     0.152 A 
HETATM    3  O   UNK N   1      21.254  12.864   9.906  0.00  0.00    -0.351 OA
HETATM    4  C   UNK N   1      21.394  12.237  11.174  0.00  0.00     0.288 A 
HETATM    5  C   UNK N   1      22.719  11.943  11.871  0.00  0.00     0.204 A 
HETATM    6  C   UNK N   1      23.981  12.330  11.200  0.00  0.00     0.182 A 
HETATM    7  C   UNK N   1      23.864  12.990   9.871  0.00  0.00     0.178 A 
ENDROOT
BRANCH   4   8
HETATM    8  O   UNK N   1      20.204  11.873  11.803  0.00  0.00    -0.369 OA
HETATM    9  H   UNK N   1      20.107  10.984  12.179  0.00  0.00     0.212 HD
ENDBRANCH   4   8
BRANCH   5  10
HETATM   10  O   UNK N   1      22.770  11.322  13.118  0.00  0.00    -0.388 OA
HETATM   11  H   UNK N   1      23.498  11.520  13.728  0.00  0.00     0.210 HD
ENDBRANCH   5  10
BRANCH   6  12
HETATM   12  O   UNK N   1      25.216  12.084  11.796  0.00  0.00    -0.390 OA
HETATM   13  H   UNK N   1      25.384  12.381  12.705  0.00  0.00     0.210 HD
ENDBRANCH   6  12
BRANCH   7  14
HETATM   14  O   UNK N   1      25.032  13.369   9.209  0.00  0.00    -0.390 OA
HETATM   15  H   UNK N   1      25.556  14.116   9.539  0.00  0.00     0.210 HD
ENDBRANCH   7  14
TORSDOF 4
ENDMDL
MODEL 7
REMARK VINA RESULT:      -4.7     14.316     15.384
REMARK  4 active torsions:
REMARK  status: ('A' for Active; 'I' for Inactive)
REMARK    1  A    between atoms: C_4  and  O_5 
REMARK    2  A    between atoms: C_6  and  O_7 
REMARK    3  A    between atoms: C_8  and  O_9 
REMARK    4  A    between atoms: C_10  and  O_11 
ROOT
HETATM    1  C   UNK N   1      32.732  13.759   7.982  0.00  0.00     0.042 C 
HETATM    2  C   UNK N   1      33.390  15.116   8.161  0.00  0.00     0.152 A 
HETATM    3  O   UNK N   1      33.457  15.922   6.988  0.00  0.00    -0.351 OA
HETATM    4  C   UNK N   1      34.071  17.194   7.148  0.00  0.00     0.288 A 
HETATM    5  C   UNK N   1      34.647  17.738   8.451  0.00  0.00     0.204 A 
HETATM    6  C   UNK N   1      34.577  16.898   9.670  0.00  0.00     0.182 A 
HETATM    7  C   UNK N   1      33.937  15.560   9.530  0.00  0.00     0.178 A 
ENDROOT
BRANCH   4   8
HETATM    8  O   UNK N   1      34.136  17.983   6.000  0.00  0.00    -0.369 OA
HETATM    9  H   UNK N   1      33.460  17.890   5.309  0.00  0.00     0.212 HD
ENDBRANCH   4   8
BRANCH   5  10
HETATM   10  O   UNK N   1      35.235  18.999   8.525  0.00  0.00    -0.388 OA
HETATM   11  H   UNK N   1      36.171  19.084   8.765  0.00  0.00     0.210 HD
ENDBRANCH   5  10
BRANCH   6  12
HETATM   12  O   UNK N   1      35.088  17.349  10.884  0.00  0.00    -0.390 OA
HETATM   13  H   UNK N   1      34.898  18.252  11.185  0.00  0.00     0.210 HD
ENDBRANCH   6  12
BRANCH   7  14
HETATM   14  O   UNK N   1      33.853  14.741  10.657  0.00  0.00    -0.390 OA
HETATM   15  H   UNK N   1      33.161  14.064  10.714  0.00  0.00     0.210 HD
ENDBRANCH   7  14
TORSDOF 4
ENDMDL
MODEL 8
REMARK VINA RESULT:      -4.5     22.827     23.419
REMARK  4 active torsions:
REMARK  status: ('A' for Active; 'I' for Inactive)
REMARK    1  A    between atoms: C_4  and  O_5 
REMARK    2  A    between atoms: C_6  and  O_7 
REMARK    3  A    between atoms: C_8  and  O_9 
REMARK    4  A    between atoms: C_10  and  O_11 
ROOT
HETATM    1  C   UNK N   1      43.443  19.998   0.133  0.00  0.00     0.042 C 
HETATM    2  C   UNK N   1      43.491  21.051   1.225  0.00  0.00     0.152 A 
HETATM    3  O   UNK N   1      42.408  21.977   1.229  0.00  0.00    -0.351 OA
HETATM    4  C   UNK N   1      42.447  22.966   2.249  0.00  0.00     0.288 A 
HETATM    5  C   UNK N   1      43.536  23.100   3.308  0.00  0.00     0.204 A 
HETATM    6  C   UNK N   1      44.661  22.136   3.302  0.00  0.00     0.182 A 
HETATM    7  C   UNK N   1      44.646  21.088   2.244  0.00  0.00     0.178 A 
ENDROOT
BRANCH   4   8
HETATM    8  O   UNK N   1      41.387  23.873   2.253  0.00  0.00    -0.369 OA
HETATM    9  H   UNK N   1      40.797  23.931   1.485  0.00  0.00     0.212 HD
ENDBRANCH   4   8
BRANCH   5  10
HETATM   10  O   UNK N   1      43.501  24.101   4.277  0.00  0.00    -0.388 OA
HETATM   11  H   UNK N   1      42.873  24.041   5.014  0.00  0.00     0.210 HD
ENDBRANCH   5  10
BRANCH   6  12
HETATM   12  O   UNK N   1      45.681  22.216   4.248  0.00  0.00    -0.390 OA
HETATM   13  H   UNK N   1      46.447  22.791   4.088  0.00  0.00     0.210 HD
ENDBRANCH   6  12
BRANCH   7  14
HETATM   14  O   UNK N   1      45.690  20.163   2.207  0.00  0.00    -0.390 OA
HETATM   15  H   UNK N   1      45.985  19.799   1.358  0.00  0.00     0.210 HD
ENDBRANCH   7  14
TORSDOF 4
ENDMDL
MODEL 9
REMARK VINA RESULT:      -4.4     22.262     22.726
REMARK  4 active torsions:
REMARK  status: ('A' for Active; 'I' for Inactive)
REMARK    1  A    between atoms: C_4  and  O_5 
REMARK    2  A    between atoms: C_6  and  O_7 
REMARK    3  A    between atoms: C_8  and  O_9 
REMARK    4  A    between atoms: C_10  and  O_11 
ROOT
HETATM    1  C   UNK N   1      42.949  18.702   2.108  0.00  0.00     0.042 C 
HETATM    2  C   UNK N   1      43.145  20.149   2.522  0.00  0.00     0.152 A 
HETATM    3  O   UNK N   1      44.347  20.422   3.237  0.00  0.00    -0.351 OA
HETATM    4  C   UNK N   1      44.537  21.776   3.628  0.00  0.00     0.288 A 
HETATM    5  C   UNK N   1      43.571  22.921   3.342  0.00  0.00     0.204 A 
HETATM    6  C   UNK N   1      42.323  22.634   2.599  0.00  0.00     0.182 A 
HETATM    7  C   UNK N   1      42.098  21.224   2.177  0.00  0.00     0.178 A 
ENDROOT
BRANCH   4   8
HETATM    8  O   UNK N   1      45.714  22.043   4.328  0.00  0.00    -0.369 OA
HETATM    9  H   UNK N   1      45.672  22.442   5.211  0.00  0.00     0.212 HD
ENDBRANCH   4   8
BRANCH   5  10
HETATM   10  O   UNK N   1      43.832  24.224   3.761  0.00  0.00    -0.388 OA
HETATM   11  H   UNK N   1      44.557  24.727   3.358  0.00  0.00     0.210 HD
ENDBRANCH   5  10
BRANCH   6  12
HETATM   12  O   UNK N   1      41.408  23.645   2.313  0.00  0.00    -0.390 OA
HETATM   13  H   UNK N   1      41.533  24.204   1.529  0.00  0.00     0.210 HD
ENDBRANCH   6  12
BRANCH   7  14
HETATM   14  O   UNK N   1      40.932  20.916   1.474  0.00  0.00    -0.390 OA
HETATM   15  H   UNK N   1      40.867  21.123   0.529  0.00  0.00     0.210 HD
ENDBRANCH   7  14
TORSDOF 4
ENDMDL
