MODEL 1
REMARK VINA RESULT:      -6.4      0.000      0.000
REMARK  15 active torsions:
REMARK  status: ('A' for Active; 'I' for Inactive)
REMARK    1  A    between atoms: C_18  and  C_9 
REMARK    2  A    between atoms: C_19  and  C_9 
REMARK    3  A    between atoms: N_38  and  C_18 
REMARK    4  A    between atoms: O_41  and  C_19 
REMARK    5  A    between atoms: C_24  and  C_21 
REMARK    6  A    between atoms: C_31  and  C_21 
REMARK    7  A    between atoms: C_27  and  C_22 
REMARK    8  A    between atoms: N_38  and  C_22 
REMARK    9  A    between atoms: C_29  and  C_23 
REMARK   10  A    between atoms: N_38  and  C_23 
REMARK   11  A    between atoms: C_29  and  C_25 
REMARK   12  A    between atoms: C_29  and  C_26 
REMARK   13  A    between atoms: O_41  and  C_28 
REMARK   14  A    between atoms: C_33  and  C_30 
REMARK   15  A    between atoms: O_40  and  C_31 
ROOT
HETATM    1  N   UNK N   1      29.576  25.835  -8.091  0.00  0.00     0.093 N 
ENDROOT
BRANCH   1   2
HETATM    2  C   UNK N   1      30.798  25.921  -8.883  0.00  0.00     0.275 C 
BRANCH   2   3
HETATM    3  C   UNK N   1      32.013  25.852  -7.972  0.00  0.00     0.057 C 
BRANCH   3   4
HETATM    4  C   UNK N   1      32.758  24.553  -8.196  0.00  0.00     0.177 C 
BRANCH   4   5
HETATM    5  O   UNK N   1      33.169  24.025  -6.991  0.00  0.00    -0.351 OA
BRANCH   5   6
HETATM    6  C   UNK N   1      32.734  22.828  -6.526  0.00  0.00     0.069 A 
HETATM    7  C   UNK N   1      33.062  21.627  -7.177  0.00  0.00     0.037 A 
HETATM    8  C   UNK N   1      32.594  20.405  -6.687  0.00  0.00     0.003 A 
HETATM    9  C   UNK N   1      31.789  20.373  -5.548  0.00  0.00     0.008 A 
HETATM   10  C   UNK N   1      31.446  21.562  -4.898  0.00  0.00    -0.046 A 
HETATM   11  C   UNK N   1      31.923  22.789  -5.386  0.00  0.00     0.044 A 
BRANCH  10  12
HETATM   12  C   UNK N   1      30.563  21.514  -3.699  0.00  0.00     0.148 C 
BRANCH  12  13
HETATM   13  C   UNK N   1      31.293  21.990  -2.484  0.00  0.00     0.143 C 
HETATM   14  O   UNK N   1      30.836  22.907  -1.819  0.00  0.00    -0.650 OA
BRANCH  13  15
HETATM   15  O   UNK N   1      32.458  21.418  -2.125  0.00  0.00    -0.776 OA
HETATM   16  H   UNK N   1      33.204  21.924  -1.869  0.00  0.00     0.167 HD
ENDBRANCH  13  15
ENDBRANCH  12  13
ENDBRANCH  10  12
ENDBRANCH   5   6
ENDBRANCH   4   5
ENDBRANCH   3   4
ENDBRANCH   2   3
ENDBRANCH   1   2
BRANCH   1  17
HETATM   17  C   UNK N   1      28.635  26.868  -8.527  0.00  0.00     0.312 C 
BRANCH  17  18
HETATM   18  C   UNK N   1      27.511  27.052  -7.552  0.00  0.00    -0.008 A 
HETATM   19  C   UNK N   1      26.240  26.566  -7.865  0.00  0.00     0.011 A 
HETATM   20  C   UNK N   1      25.196  26.700  -6.954  0.00  0.00     0.002 A 
HETATM   21  C   UNK N   1      25.420  27.308  -5.721  0.00  0.00     0.018 A 
HETATM   22  C   UNK N   1      26.684  27.813  -5.380  0.00  0.00     0.070 A 
HETATM   23  C   UNK N   1      27.746  27.691  -6.317  0.00  0.00     0.057 A 
HETATM   24 Cl   UNK N   1      29.379  28.290  -5.987  0.00  0.00    -0.083 Cl
BRANCH  22  25
HETATM   25  C   UNK N   1      26.820  28.445  -4.010  0.00  0.00     0.419 C 
HETATM   26  F   UNK N   1      27.622  27.739  -3.138  0.00  0.00    -0.166 F 
HETATM   27  F   UNK N   1      25.564  28.552  -3.441  0.00  0.00    -0.166 F 
HETATM   28  F   UNK N   1      27.354  29.714  -4.148  0.00  0.00    -0.166 F 
ENDBRANCH  22  25
ENDBRANCH  17  18
ENDBRANCH   1  17
BRANCH   1  29
HETATM   29  C   UNK N   1      28.969  24.553  -8.428  0.00  0.00     0.286 C 
BRANCH  29  30
HETATM   30  C   UNK N   1      29.179  23.545  -7.303  0.00  0.00     0.080 C 
BRANCH  30  31
HETATM   31  C   UNK N   1      28.135  23.733  -6.224  0.00  0.00    -0.048 A 
HETATM   32  C   UNK N   1      26.802  23.386  -6.498  0.00  0.00     0.008 A 
HETATM   33  C   UNK N   1      25.811  23.547  -5.527  0.00  0.00     0.001 A 
HETATM   34  C   UNK N   1      26.141  24.072  -4.274  0.00  0.00     0.000 A 
HETATM   35  C   UNK N   1      27.461  24.432  -3.994  0.00  0.00     0.001 A 
HETATM   36  C   UNK N   1      28.455  24.261  -4.963  0.00  0.00     0.008 A 
ENDBRANCH  30  31
BRANCH  30  37
HETATM   37  C   UNK N   1      29.271  22.161  -7.889  0.00  0.00    -0.048 A 
HETATM   38  C   UNK N   1      29.946  21.931  -9.098  0.00  0.00     0.008 A 
HETATM   39  C   UNK N   1      30.069  20.632  -9.598  0.00  0.00     0.001 A 
HETATM   40  C   UNK N   1      29.527  19.557  -8.888  0.00  0.00     0.000 A 
HETATM   41  C   UNK N   1      28.858  19.781  -7.682  0.00  0.00     0.001 A 
HETATM   42  C   UNK N   1      28.732  21.080  -7.182  0.00  0.00     0.008 A 
ENDBRANCH  30  37
ENDBRANCH  29  30
ENDBRANCH   1  29
TORSDOF 15
ENDMDL
MODEL 2
REMARK VINA RESULT:      -6.4      1.355      2.225
REMARK  15 active torsions:
REMARK  status: ('A' for Active; 'I' for Inactive)
REMARK    1  A    between atoms: C_18  and  C_9 
REMARK    2  A    between atoms: C_19  and  C_9 
REMARK    3  A    between atoms: N_38  and  C_18 
REMARK    4  A    between atoms: O_41  and  C_19 
REMARK    5  A    between atoms: C_24  and  C_21 
REMARK    6  A    between atoms: C_31  and  C_21 
REMARK    7  A    between atoms: C_27  and  C_22 
REMARK    8  A    between atoms: N_38  and  C_22 
REMARK    9  A    between atoms: C_29  and  C_23 
REMARK   10  A    between atoms: N_38  and  C_23 
REMARK   11  A    between atoms: C_29  and  C_25 
REMARK   12  A    between atoms: C_29  and  C_26 
REMARK   13  A    between atoms: O_41  and  C_28 
REMARK   14  A    between atoms: C_33  and  C_30 
REMARK   15  A    between atoms: O_40  and  C_31 
ROOT
HETATM    1  N   UNK N   1      30.095  26.015  -7.206  0.00  0.00     0.093 N 
ENDROOT
BRANCH   1   2
HETATM    2  C   UNK N   1      31.466  26.162  -7.683  0.00  0.00     0.275 C 
BRANCH   2   3
HETATM    3  C   UNK N   1      32.411  26.331  -6.505  0.00  0.00     0.057 C 
BRANCH   3   4
HETATM    4  C   UNK N   1      33.042  25.000  -6.150  0.00  0.00     0.177 C 
BRANCH   4   5
HETATM    5  O   UNK N   1      32.832  24.713  -4.818  0.00  0.00    -0.351 OA
BRANCH   5   6
HETATM    6  C   UNK N   1      32.316  23.534  -4.392  0.00  0.00     0.069 A 
HETATM    7  C   UNK N   1      31.325  23.485  -3.397  0.00  0.00     0.037 A 
HETATM    8  C   UNK N   1      30.815  22.259  -2.965  0.00  0.00     0.003 A 
HETATM    9  C   UNK N   1      31.295  21.070  -3.517  0.00  0.00     0.008 A 
HETATM   10  C   UNK N   1      32.288  21.105  -4.499  0.00  0.00    -0.046 A 
HETATM   11  C   UNK N   1      32.795  22.338  -4.939  0.00  0.00     0.044 A 
BRANCH  10  12
HETATM   12  C   UNK N   1      32.810  19.827  -5.060  0.00  0.00     0.148 C 
BRANCH  12  13
HETATM   13  C   UNK N   1      33.850  19.240  -4.161  0.00  0.00     0.143 C 
HETATM   14  O   UNK N   1      34.819  19.907  -3.834  0.00  0.00    -0.650 OA
BRANCH  13  15
HETATM   15  O   UNK N   1      33.729  17.974  -3.719  0.00  0.00    -0.776 OA
HETATM   16  H   UNK N   1      33.683  17.765  -2.807  0.00  0.00     0.167 HD
ENDBRANCH  13  15
ENDBRANCH  12  13
ENDBRANCH  10  12
ENDBRANCH   5   6
ENDBRANCH   4   5
ENDBRANCH   3   4
ENDBRANCH   2   3
ENDBRANCH   1   2
BRANCH   1  17
HETATM   17  C   UNK N   1      29.249  27.039  -7.820  0.00  0.00     0.312 C 
BRANCH  17  18
HETATM   18  C   UNK N   1      27.924  27.160  -7.129  0.00  0.00    -0.008 A 
HETATM   19  C   UNK N   1      26.772  26.684  -7.758  0.00  0.00     0.011 A 
HETATM   20  C   UNK N   1      25.540  26.760  -7.114  0.00  0.00     0.002 A 
HETATM   21  C   UNK N   1      25.456  27.299  -5.832  0.00  0.00     0.018 A 
HETATM   22  C   UNK N   1      26.593  27.792  -5.177  0.00  0.00     0.070 A 
HETATM   23  C   UNK N   1      27.849  27.730  -5.842  0.00  0.00     0.057 A 
HETATM   24 Cl   UNK N   1      29.346  28.321  -5.104  0.00  0.00    -0.083 Cl
BRANCH  22  25
HETATM   25  C   UNK N   1      26.391  28.347  -3.782  0.00  0.00     0.419 C 
HETATM   26  F   UNK N   1      27.434  28.095  -2.915  0.00  0.00    -0.166 F 
HETATM   27  F   UNK N   1      25.246  27.790  -3.242  0.00  0.00    -0.166 F 
HETATM   28  F   UNK N   1      26.224  29.718  -3.859  0.00  0.00    -0.166 F 
ENDBRANCH  22  25
ENDBRANCH  17  18
ENDBRANCH   1  17
BRANCH   1  29
HETATM   29  C   UNK N   1      29.629  24.731  -7.715  0.00  0.00     0.286 C 
BRANCH  29  30
HETATM   30  C   UNK N   1      29.526  23.708  -6.589  0.00  0.00     0.080 C 
BRANCH  30  31
HETATM   31  C   UNK N   1      28.162  23.776  -5.938  0.00  0.00    -0.048 A 
HETATM   32  C   UNK N   1      28.056  24.278  -4.631  0.00  0.00     0.008 A 
HETATM   33  C   UNK N   1      26.813  24.353  -3.997  0.00  0.00     0.001 A 
HETATM   34  C   UNK N   1      25.664  23.914  -4.660  0.00  0.00     0.000 A 
HETATM   35  C   UNK N   1      25.759  23.401  -5.956  0.00  0.00     0.001 A 
HETATM   36  C   UNK N   1      27.001  23.334  -6.595  0.00  0.00     0.008 A 
ENDBRANCH  30  31
BRANCH  30  37
HETATM   37  C   UNK N   1      29.936  22.356  -7.109  0.00  0.00    -0.048 A 
HETATM   38  C   UNK N   1      29.352  21.181  -6.608  0.00  0.00     0.008 A 
HETATM   39  C   UNK N   1      29.705  19.939  -7.141  0.00  0.00     0.001 A 
HETATM   40  C   UNK N   1      30.632  19.865  -8.184  0.00  0.00     0.000 A 
HETATM   41  C   UNK N   1      31.212  21.032  -8.689  0.00  0.00     0.001 A 
HETATM   42  C   UNK N   1      30.863  22.275  -8.155  0.00  0.00     0.008 A 
ENDBRANCH  30  37
ENDBRANCH  29  30
ENDBRANCH   1  29
TORSDOF 15
ENDMDL
MODEL 3
REMARK VINA RESULT:      -6.2     12.823     15.291
REMARK  15 active torsions:
REMARK  status: ('A' for Active; 'I' for Inactive)
REMARK    1  A    between atoms: C_18  and  C_9 
REMARK    2  A    between atoms: C_19  and  C_9 
REMARK    3  A    between atoms: N_38  and  C_18 
REMARK    4  A    between atoms: O_41  and  C_19 
REMARK    5  A    between atoms: C_24  and  C_21 
REMARK    6  A    between atoms: C_31  and  C_21 
REMARK    7  A    between atoms: C_27  and  C_22 
REMARK    8  A    between atoms: N_38  and  C_22 
REMARK    9  A    between atoms: C_29  and  C_23 
REMARK   10  A    between atoms: N_38  and  C_23 
REMARK   11  A    between atoms: C_29  and  C_25 
REMARK   12  A    between atoms: C_29  and  C_26 
REMARK   13  A    between atoms: O_41  and  C_28 
REMARK   14  A    between atoms: C_33  and  C_30 
REMARK   15  A    between atoms: O_40  and  C_31 
ROOT
HETATM    1  N   UNK N   1      26.727  15.904   4.520  0.00  0.00     0.093 N 
ENDROOT
BRANCH   1   2
HETATM    2  C   UNK N   1      26.935  14.897   3.485  0.00  0.00     0.275 C 
BRANCH   2   3
HETATM    3  C   UNK N   1      26.619  15.484   2.119  0.00  0.00     0.057 C 
BRANCH   3   4
HETATM    4  C   UNK N   1      25.381  14.827   1.544  0.00  0.00     0.177 C 
BRANCH   4   5
HETATM    5  O   UNK N   1      24.772  14.041   2.498  0.00  0.00    -0.351 OA
BRANCH   5   6
HETATM    6  C   UNK N   1      23.475  14.197   2.862  0.00  0.00     0.069 A 
HETATM    7  C   UNK N   1      22.826  13.257   3.680  0.00  0.00     0.037 A 
HETATM    8  C   UNK N   1      21.486  13.432   4.035  0.00  0.00     0.003 A 
HETATM    9  C   UNK N   1      20.782  14.543   3.569  0.00  0.00     0.008 A 
HETATM   10  C   UNK N   1      21.413  15.479   2.745  0.00  0.00    -0.046 A 
HETATM   11  C   UNK N   1      22.761  15.307   2.395  0.00  0.00     0.044 A 
BRANCH  10  12
HETATM   12  C   UNK N   1      20.639  16.645   2.233  0.00  0.00     0.148 C 
BRANCH  12  13
HETATM   13  C   UNK N   1      20.185  16.405   0.829  0.00  0.00     0.143 C 
HETATM   14  O   UNK N   1      20.392  17.247  -0.031  0.00  0.00    -0.650 OA
BRANCH  13  15
HETATM   15  O   UNK N   1      19.538  15.267   0.511  0.00  0.00    -0.776 OA
HETATM   16  H   UNK N   1      19.235  14.666   1.162  0.00  0.00     0.167 HD
ENDBRANCH  13  15
ENDBRANCH  12  13
ENDBRANCH  10  12
ENDBRANCH   5   6
ENDBRANCH   4   5
ENDBRANCH   3   4
ENDBRANCH   2   3
ENDBRANCH   1   2
BRANCH   1  17
HETATM   17  C   UNK N   1      25.782  15.396   5.516  0.00  0.00     0.312 C 
BRANCH  17  18
HETATM   18  C   UNK N   1      24.540  16.232   5.589  0.00  0.00    -0.008 A 
HETATM   19  C   UNK N   1      24.453  17.404   4.835  0.00  0.00     0.011 A 
HETATM   20  C   UNK N   1      23.293  18.172   4.867  0.00  0.00     0.002 A 
HETATM   21  C   UNK N   1      22.208  17.765   5.641  0.00  0.00     0.018 A 
HETATM   22  C   UNK N   1      22.267  16.596   6.414  0.00  0.00     0.070 A 
HETATM   23  C   UNK N   1      23.459  15.821   6.395  0.00  0.00     0.057 A 
HETATM   24 Cl   UNK N   1      23.638  14.328   7.330  0.00  0.00    -0.083 Cl
BRANCH  22  25
HETATM   25  C   UNK N   1      21.028  16.240   7.210  0.00  0.00     0.419 C 
HETATM   26  F   UNK N   1      21.278  15.892   8.521  0.00  0.00    -0.166 F 
HETATM   27  F   UNK N   1      20.397  15.171   6.598  0.00  0.00    -0.166 F 
HETATM   28  F   UNK N   1      20.166  17.322   7.214  0.00  0.00    -0.166 F 
ENDBRANCH  22  25
ENDBRANCH  17  18
ENDBRANCH   1  17
BRANCH   1  29
HETATM   29  C   UNK N   1      28.008  16.049   5.201  0.00  0.00     0.286 C 
BRANCH  29  30
HETATM   30  C   UNK N   1      28.756  17.275   4.688  0.00  0.00     0.080 C 
BRANCH  30  31
HETATM   31  C   UNK N   1      27.975  18.535   4.991  0.00  0.00    -0.048 A 
HETATM   32  C   UNK N   1      27.465  19.293   3.925  0.00  0.00     0.008 A 
HETATM   33  C   UNK N   1      26.740  20.462   4.167  0.00  0.00     0.001 A 
HETATM   34  C   UNK N   1      26.531  20.894   5.480  0.00  0.00     0.000 A 
HETATM   35  C   UNK N   1      27.044  20.155   6.548  0.00  0.00     0.001 A 
HETATM   36  C   UNK N   1      27.761  18.979   6.307  0.00  0.00     0.008 A 
ENDBRANCH  30  31
BRANCH  30  37
HETATM   37  C   UNK N   1      30.171  17.244   5.202  0.00  0.00    -0.048 A 
HETATM   38  C   UNK N   1      30.456  16.819   6.510  0.00  0.00     0.008 A 
HETATM   39  C   UNK N   1      31.780  16.744   6.951  0.00  0.00     0.001 A 
HETATM   40  C   UNK N   1      32.824  17.082   6.086  0.00  0.00     0.000 A 
HETATM   41  C   UNK N   1      32.545  17.500   4.782  0.00  0.00     0.001 A 
HETATM   42  C   UNK N   1      31.221  17.579   4.340  0.00  0.00     0.008 A 
ENDBRANCH  30  37
ENDBRANCH  29  30
ENDBRANCH   1  29
TORSDOF 15
ENDMDL
MODEL 4
REMARK VINA RESULT:      -6.2     19.523     23.467
REMARK  15 active torsions:
REMARK  status: ('A' for Active; 'I' for Inactive)
REMARK    1  A    between atoms: C_18  and  C_9 
REMARK    2  A    between atoms: C_19  and  C_9 
REMARK    3  A    between atoms: N_38  and  C_18 
REMARK    4  A    between atoms: O_41  and  C_19 
REMARK    5  A    between atoms: C_24  and  C_21 
REMARK    6  A    between atoms: C_31  and  C_21 
REMARK    7  A    between atoms: C_27  and  C_22 
REMARK    8  A    between atoms: N_38  and  C_22 
REMARK    9  A    between atoms: C_29  and  C_23 
REMARK   10  A    between atoms: N_38  and  C_23 
REMARK   11  A    between atoms: C_29  and  C_25 
REMARK   12  A    between atoms: C_29  and  C_26 
REMARK   13  A    between atoms: O_41  and  C_28 
REMARK   14  A    between atoms: C_33  and  C_30 
REMARK   15  A    between atoms: O_40  and  C_31 
ROOT
HETATM    1  N   UNK N   1      34.949   9.810  10.856  0.00  0.00     0.093 N 
ENDROOT
BRANCH   1   2
HETATM    2  C   UNK N   1      34.709   9.194   9.556  0.00  0.00     0.275 C 
BRANCH   2   3
HETATM    3  C   UNK N   1      33.263   9.407   9.139  0.00  0.00     0.057 C 
BRANCH   3   4
HETATM    4  C   UNK N   1      32.849  10.839   9.411  0.00  0.00     0.177 C 
BRANCH   4   5
HETATM    5  O   UNK N   1      32.879  11.574   8.245  0.00  0.00    -0.351 OA
BRANCH   5   6
HETATM    6  C   UNK N   1      33.743  12.599   8.045  0.00  0.00     0.069 A 
HETATM    7  C   UNK N   1      34.512  12.689   6.871  0.00  0.00     0.037 A 
HETATM    8  C   UNK N   1      35.404  13.748   6.690  0.00  0.00     0.003 A 
HETATM    9  C   UNK N   1      35.543  14.721   7.681  0.00  0.00     0.008 A 
HETATM   10  C   UNK N   1      34.794  14.635   8.857  0.00  0.00    -0.046 A 
HETATM   11  C   UNK N   1      33.891  13.576   9.036  0.00  0.00     0.044 A 
BRANCH  10  12
HETATM   12  C   UNK N   1      34.974  15.667   9.918  0.00  0.00     0.148 C 
BRANCH  12  13
HETATM   13  C   UNK N   1      34.425  16.985   9.474  0.00  0.00     0.143 C 
HETATM   14  O   UNK N   1      35.176  17.935   9.318  0.00  0.00    -0.650 OA
BRANCH  13  15
HETATM   15  O   UNK N   1      33.105  17.131   9.255  0.00  0.00    -0.776 OA
HETATM   16  H   UNK N   1      32.479  17.126   9.953  0.00  0.00     0.167 HD
ENDBRANCH  13  15
ENDBRANCH  12  13
ENDBRANCH  10  12
ENDBRANCH   5   6
ENDBRANCH   4   5
ENDBRANCH   3   4
ENDBRANCH   2   3
ENDBRANCH   1   2
BRANCH   1  17
HETATM   17  C   UNK N   1      34.882   8.790  11.903  0.00  0.00     0.312 C 
BRANCH  17  18
HETATM   18  C   UNK N   1      34.730   9.395  13.267  0.00  0.00    -0.008 A 
HETATM   19  C   UNK N   1      33.753  10.368  13.484  0.00  0.00     0.011 A 
HETATM   20  C   UNK N   1      33.578  10.914  14.753  0.00  0.00     0.002 A 
HETATM   21  C   UNK N   1      34.370  10.479  15.813  0.00  0.00     0.018 A 
HETATM   22  C   UNK N   1      35.365   9.509  15.626  0.00  0.00     0.070 A 
HETATM   23  C   UNK N   1      35.554   8.964  14.326  0.00  0.00     0.057 A 
HETATM   24 Cl   UNK N   1      36.778   7.731  13.979  0.00  0.00    -0.083 Cl
BRANCH  22  25
HETATM   25  C   UNK N   1      36.162   9.101  16.848  0.00  0.00     0.419 C 
HETATM   26  F   UNK N   1      35.899   9.854  17.973  0.00  0.00    -0.166 F 
HETATM   27  F   UNK N   1      37.510   9.220  16.561  0.00  0.00    -0.166 F 
HETATM   28  F   UNK N   1      35.887   7.779  17.148  0.00  0.00    -0.166 F 
ENDBRANCH  22  25
ENDBRANCH  17  18
ENDBRANCH   1  17
BRANCH   1  29
HETATM   29  C   UNK N   1      36.328  10.284  10.827  0.00  0.00     0.286 C 
BRANCH  29  30
HETATM   30  C   UNK N   1      36.379  11.805  10.906  0.00  0.00     0.080 C 
BRANCH  30  31
HETATM   31  C   UNK N   1      36.575  12.254  12.337  0.00  0.00    -0.048 A 
HETATM   32  C   UNK N   1      37.529  11.596  13.132  0.00  0.00     0.008 A 
HETATM   33  C   UNK N   1      37.737  11.982  14.458  0.00  0.00     0.001 A 
HETATM   34  C   UNK N   1      36.982  13.021  15.009  0.00  0.00     0.000 A 
HETATM   35  C   UNK N   1      36.022  13.674  14.232  0.00  0.00     0.001 A 
HETATM   36  C   UNK N   1      35.820  13.295  12.902  0.00  0.00     0.008 A 
ENDBRANCH  30  31
BRANCH  30  37
HETATM   37  C   UNK N   1      37.389  12.320   9.916  0.00  0.00    -0.048 A 
HETATM   38  C   UNK N   1      37.655  11.623   8.725  0.00  0.00     0.008 A 
HETATM   39  C   UNK N   1      38.556  12.145   7.793  0.00  0.00     0.001 A 
HETATM   40  C   UNK N   1      39.186  13.367   8.039  0.00  0.00     0.000 A 
HETATM   41  C   UNK N   1      38.920  14.066   9.220  0.00  0.00     0.001 A 
HETATM   42  C   UNK N   1      38.022  13.545  10.155  0.00  0.00     0.008 A 
ENDBRANCH  30  37
ENDBRANCH  29  30
ENDBRANCH   1  29
TORSDOF 15
ENDMDL
MODEL 5
REMARK VINA RESULT:      -6.2     14.262     16.684
REMARK  15 active torsions:
REMARK  status: ('A' for Active; 'I' for Inactive)
REMARK    1  A    between atoms: C_18  and  C_9 
REMARK    2  A    between atoms: C_19  and  C_9 
REMARK    3  A    between atoms: N_38  and  C_18 
REMARK    4  A    between atoms: O_41  and  C_19 
REMARK    5  A    between atoms: C_24  and  C_21 
REMARK    6  A    between atoms: C_31  and  C_21 
REMARK    7  A    between atoms: C_27  and  C_22 
REMARK    8  A    between atoms: N_38  and  C_22 
REMARK    9  A    between atoms: C_29  and  C_23 
REMARK   10  A    between atoms: N_38  and  C_23 
REMARK   11  A    between atoms: C_29  and  C_25 
REMARK   12  A    between atoms: C_29  and  C_26 
REMARK   13  A    between atoms: O_41  and  C_28 
REMARK   14  A    between atoms: C_33  and  C_30 
REMARK   15  A    between atoms: O_40  and  C_31 
ROOT
HETATM    1  N   UNK N   1      24.233  15.547   6.250  0.00  0.00     0.093 N 
ENDROOT
BRANCH   1   2
HETATM    2  C   UNK N   1      25.619  15.420   6.689  0.00  0.00     0.275 C 
BRANCH   2   3
HETATM    3  C   UNK N   1      26.553  15.965   5.622  0.00  0.00     0.057 C 
BRANCH   3   4
HETATM    4  C   UNK N   1      27.451  17.033   6.213  0.00  0.00     0.177 C 
BRANCH   4   5
HETATM    5  O   UNK N   1      28.737  16.554   6.348  0.00  0.00    -0.351 OA
BRANCH   5   6
HETATM    6  C   UNK N   1      29.663  17.146   7.141  0.00  0.00     0.069 A 
HETATM    7  C   UNK N   1      29.287  17.959   8.224  0.00  0.00     0.037 A 
HETATM    8  C   UNK N   1      30.258  18.569   9.021  0.00  0.00     0.003 A 
HETATM    9  C   UNK N   1      31.612  18.380   8.739  0.00  0.00     0.008 A 
HETATM   10  C   UNK N   1      31.998  17.584   7.658  0.00  0.00    -0.046 A 
HETATM   11  C   UNK N   1      31.022  16.964   6.861  0.00  0.00     0.044 A 
BRANCH  10  12
HETATM   12  C   UNK N   1      33.447  17.413   7.353  0.00  0.00     0.148 C 
BRANCH  12  13
HETATM   13  C   UNK N   1      34.289  17.978   8.451  0.00  0.00     0.143 C 
HETATM   14  O   UNK N   1      34.927  19.003   8.264  0.00  0.00    -0.650 OA
BRANCH  13  15
HETATM   15  O   UNK N   1      34.356  17.356   9.643  0.00  0.00    -0.776 OA
HETATM   16  H   UNK N   1      34.415  16.424   9.718  0.00  0.00     0.167 HD
ENDBRANCH  13  15
ENDBRANCH  12  13
ENDBRANCH  10  12
ENDBRANCH   5   6
ENDBRANCH   4   5
ENDBRANCH   3   4
ENDBRANCH   2   3
ENDBRANCH   1   2
BRANCH   1  17
HETATM   17  C   UNK N   1      24.176  15.508   4.788  0.00  0.00     0.312 C 
BRANCH  17  18
HETATM   18  C   UNK N   1      23.059  16.350   4.248  0.00  0.00    -0.008 A 
HETATM   19  C   UNK N   1      22.862  17.638   4.750  0.00  0.00     0.011 A 
HETATM   20  C   UNK N   1      21.851  18.443   4.234  0.00  0.00     0.002 A 
HETATM   21  C   UNK N   1      21.040  17.970   3.204  0.00  0.00     0.018 A 
HETATM   22  C   UNK N   1      21.208  16.679   2.684  0.00  0.00     0.070 A 
HETATM   23  C   UNK N   1      22.231  15.850   3.223  0.00  0.00     0.057 A 
HETATM   24 Cl   UNK N   1      22.531  14.206   2.637  0.00  0.00    -0.083 Cl
BRANCH  22  25
HETATM   25  C   UNK N   1      20.280  16.268   1.559  0.00  0.00     0.419 C 
HETATM   26  F   UNK N   1      20.925  15.902   0.397  0.00  0.00    -0.166 F 
HETATM   27  F   UNK N   1      19.442  17.329   1.264  0.00  0.00    -0.166 F 
HETATM   28  F   UNK N   1      19.510  15.197   1.975  0.00  0.00    -0.166 F 
ENDBRANCH  22  25
ENDBRANCH  17  18
ENDBRANCH   1  17
BRANCH   1  29
HETATM   29  C   UNK N   1      23.551  14.348   6.724  0.00  0.00     0.286 C 
BRANCH  29  30
HETATM   30  C   UNK N   1      22.309  14.716   7.528  0.00  0.00     0.080 C 
BRANCH  30  31
HETATM   31  C   UNK N   1      21.093  14.763   6.628  0.00  0.00    -0.048 A 
HETATM   32  C   UNK N   1      20.294  15.919   6.622  0.00  0.00     0.008 A 
HETATM   33  C   UNK N   1      19.164  15.997   5.806  0.00  0.00     0.001 A 
HETATM   34  C   UNK N   1      18.812  14.914   4.995  0.00  0.00     0.000 A 
HETATM   35  C   UNK N   1      19.591  13.755   5.002  0.00  0.00     0.001 A 
HETATM   36  C   UNK N   1      20.729  13.680   5.811  0.00  0.00     0.008 A 
ENDBRANCH  30  31
BRANCH  30  37
HETATM   37  C   UNK N   1      22.203  13.804   8.721  0.00  0.00    -0.048 A 
HETATM   38  C   UNK N   1      21.022  13.740   9.480  0.00  0.00     0.008 A 
HETATM   39  C   UNK N   1      20.924  12.848  10.550  0.00  0.00     0.001 A 
HETATM   40  C   UNK N   1      21.997  12.009  10.862  0.00  0.00     0.000 A 
HETATM   41  C   UNK N   1      23.172  12.067  10.106  0.00  0.00     0.001 A 
HETATM   42  C   UNK N   1      23.274  12.961   9.037  0.00  0.00     0.008 A 
ENDBRANCH  30  37
ENDBRANCH  29  30
ENDBRANCH   1  29
TORSDOF 15
ENDMDL
MODEL 6
REMARK VINA RESULT:      -6.2      2.674      4.789
REMARK  15 active torsions:
REMARK  status: ('A' for Active; 'I' for Inactive)
REMARK    1  A    between atoms: C_18  and  C_9 
REMARK    2  A    between atoms: C_19  and  C_9 
REMARK    3  A    between atoms: N_38  and  C_18 
REMARK    4  A    between atoms: O_41  and  C_19 
REMARK    5  A    between atoms: C_24  and  C_21 
REMARK    6  A    between atoms: C_31  and  C_21 
REMARK    7  A    between atoms: C_27  and  C_22 
REMARK    8  A    between atoms: N_38  and  C_22 
REMARK    9  A    between atoms: C_29  and  C_23 
REMARK   10  A    between atoms: N_38  and  C_23 
REMARK   11  A    between atoms: C_29  and  C_25 
REMARK   12  A    between atoms: C_29  and  C_26 
REMARK   13  A    between atoms: O_41  and  C_28 
REMARK   14  A    between atoms: C_33  and  C_30 
REMARK   15  A    between atoms: O_40  and  C_31 
ROOT
HETATM    1  N   UNK N   1      28.369  22.920  -7.198  0.00  0.00     0.093 N 
ENDROOT
BRANCH   1   2
HETATM    2  C   UNK N   1      28.410  23.182  -8.632  0.00  0.00     0.275 C 
BRANCH   2   3
HETATM    3  C   UNK N   1      28.648  24.662  -8.883  0.00  0.00     0.057 C 
BRANCH   3   4
HETATM    4  C   UNK N   1      29.727  25.180  -7.955  0.00  0.00     0.177 C 
BRANCH   4   5
HETATM    5  O   UNK N   1      29.218  26.167  -7.137  0.00  0.00    -0.351 OA
BRANCH   5   6
HETATM    6  C   UNK N   1      29.662  26.375  -5.873  0.00  0.00     0.069 A 
HETATM    7  C   UNK N   1      30.318  25.364  -5.151  0.00  0.00     0.037 A 
HETATM    8  C   UNK N   1      30.758  25.597  -3.846  0.00  0.00     0.003 A 
HETATM    9  C   UNK N   1      30.539  26.839  -3.248  0.00  0.00     0.008 A 
HETATM   10  C   UNK N   1      29.877  27.848  -3.951  0.00  0.00    -0.046 A 
HETATM   11  C   UNK N   1      29.442  27.617  -5.265  0.00  0.00     0.044 A 
BRANCH  10  12
HETATM   12  C   UNK N   1      29.626  29.160  -3.289  0.00  0.00     0.148 C 
BRANCH  12  13
HETATM   13  C   UNK N   1      28.159  29.405  -3.136  0.00  0.00     0.143 C 
HETATM   14  O   UNK N   1      27.544  28.871  -2.226  0.00  0.00    -0.650 OA
BRANCH  13  15
HETATM   15  O   UNK N   1      27.511  30.203  -4.005  0.00  0.00    -0.776 OA
HETATM   16  H   UNK N   1      27.966  30.771  -4.597  0.00  0.00     0.167 HD
ENDBRANCH  13  15
ENDBRANCH  12  13
ENDBRANCH  10  12
ENDBRANCH   5   6
ENDBRANCH   4   5
ENDBRANCH   3   4
ENDBRANCH   2   3
ENDBRANCH   1   2
BRANCH   1  17
HETATM   17  C   UNK N   1      26.982  22.955  -6.732  0.00  0.00     0.312 C 
BRANCH  17  18
HETATM   18  C   UNK N   1      26.778  23.976  -5.652  0.00  0.00    -0.008 A 
HETATM   19  C   UNK N   1      27.271  23.730  -4.369  0.00  0.00     0.011 A 
HETATM   20  C   UNK N   1      27.119  24.683  -3.367  0.00  0.00     0.002 A 
HETATM   21  C   UNK N   1      26.485  25.892  -3.644  0.00  0.00     0.018 A 
HETATM   22  C   UNK N   1      25.973  26.166  -4.921  0.00  0.00     0.070 A 
HETATM   23  C   UNK N   1      26.113  25.185  -5.941  0.00  0.00     0.057 A 
HETATM   24 Cl   UNK N   1      25.506  25.429  -7.586  0.00  0.00    -0.083 Cl
BRANCH  22  25
HETATM   25  C   UNK N   1      25.311  27.514  -5.117  0.00  0.00     0.419 C 
HETATM   26  F   UNK N   1      24.075  27.456  -5.725  0.00  0.00    -0.166 F 
HETATM   27  F   UNK N   1      26.134  28.304  -5.902  0.00  0.00    -0.166 F 
HETATM   28  F   UNK N   1      25.152  28.125  -3.886  0.00  0.00    -0.166 F 
ENDBRANCH  22  25
ENDBRANCH  17  18
ENDBRANCH   1  17
BRANCH   1  29
HETATM   29  C   UNK N   1      28.829  21.547  -7.028  0.00  0.00     0.286 C 
BRANCH  29  30
HETATM   30  C   UNK N   1      30.351  21.475  -7.088  0.00  0.00     0.080 C 
BRANCH  30  31
HETATM   31  C   UNK N   1      30.944  21.678  -5.711  0.00  0.00    -0.048 A 
HETATM   32  C   UNK N   1      30.181  21.331  -4.584  0.00  0.00     0.008 A 
HETATM   33  C   UNK N   1      30.696  21.506  -3.297  0.00  0.00     0.001 A 
HETATM   34  C   UNK N   1      31.975  22.042  -3.123  0.00  0.00     0.000 A 
HETATM   35  C   UNK N   1      32.738  22.402  -4.237  0.00  0.00     0.001 A 
HETATM   36  C   UNK N   1      32.227  22.218  -5.526  0.00  0.00     0.008 A 
ENDBRANCH  30  31
BRANCH  30  37
HETATM   37  C   UNK N   1      30.760  20.212  -7.796  0.00  0.00    -0.048 A 
HETATM   38  C   UNK N   1      29.816  19.219  -8.107  0.00  0.00     0.008 A 
HETATM   39  C   UNK N   1      30.205  18.077  -8.814  0.00  0.00     0.001 A 
HETATM   40  C   UNK N   1      31.533  17.928  -9.222  0.00  0.00     0.000 A 
HETATM   41  C   UNK N   1      32.474  18.916  -8.919  0.00  0.00     0.001 A 
HETATM   42  C   UNK N   1      32.088  20.056  -8.210  0.00  0.00     0.008 A 
ENDBRANCH  30  37
ENDBRANCH  29  30
ENDBRANCH   1  29
TORSDOF 15
ENDMDL
MODEL 7
REMARK VINA RESULT:      -6.1      1.816      2.597
REMARK  15 active torsions:
REMARK  status: ('A' for Active; 'I' for Inactive)
REMARK    1  A    between atoms: C_18  and  C_9 
REMARK    2  A    between atoms: C_19  and  C_9 
REMARK    3  A    between atoms: N_38  and  C_18 
REMARK    4  A    between atoms: O_41  and  C_19 
REMARK    5  A    between atoms: C_24  and  C_21 
REMARK    6  A    between atoms: C_31  and  C_21 
REMARK    7  A    between atoms: C_27  and  C_22 
REMARK    8  A    between atoms: N_38  and  C_22 
REMARK    9  A    between atoms: C_29  and  C_23 
REMARK   10  A    between atoms: N_38  and  C_23 
REMARK   11  A    between atoms: C_29  and  C_25 
REMARK   12  A    between atoms: C_29  and  C_26 
REMARK   13  A    between atoms: O_41  and  C_28 
REMARK   14  A    between atoms: C_33  and  C_30 
REMARK   15  A    between atoms: O_40  and  C_31 
ROOT
HETATM    1  N   UNK N   1      30.664  25.155  -7.293  0.00  0.00     0.093 N 
ENDROOT
BRANCH   1   2
HETATM    2  C   UNK N   1      31.645  24.987  -8.359  0.00  0.00     0.275 C 
BRANCH   2   3
HETATM    3  C   UNK N   1      32.459  23.725  -8.121  0.00  0.00     0.057 C 
BRANCH   3   4
HETATM    4  C   UNK N   1      33.679  24.044  -7.282  0.00  0.00     0.177 C 
BRANCH   4   5
HETATM    5  O   UNK N   1      33.300  24.401  -6.006  0.00  0.00    -0.351 OA
BRANCH   5   6
HETATM    6  C   UNK N   1      32.972  23.493  -5.055  0.00  0.00     0.069 A 
HETATM    7  C   UNK N   1      31.829  23.654  -4.252  0.00  0.00     0.037 A 
HETATM    8  C   UNK N   1      31.515  22.712  -3.270  0.00  0.00     0.003 A 
HETATM    9  C   UNK N   1      32.342  21.605  -3.075  0.00  0.00     0.008 A 
HETATM   10  C   UNK N   1      33.487  21.440  -3.859  0.00  0.00    -0.046 A 
HETATM   11  C   UNK N   1      33.799  22.382  -4.851  0.00  0.00     0.044 A 
BRANCH  10  12
HETATM   12  C   UNK N   1      34.376  20.267  -3.620  0.00  0.00     0.148 C 
BRANCH  12  13
HETATM   13  C   UNK N   1      33.870  19.062  -4.346  0.00  0.00     0.143 C 
HETATM   14  O   UNK N   1      33.600  19.136  -5.535  0.00  0.00    -0.650 OA
BRANCH  13  15
HETATM   15  O   UNK N   1      33.699  17.898  -3.691  0.00  0.00    -0.776 OA
HETATM   16  H   UNK N   1      33.098  17.809  -2.979  0.00  0.00     0.167 HD
ENDBRANCH  13  15
ENDBRANCH  12  13
ENDBRANCH  10  12
ENDBRANCH   5   6
ENDBRANCH   4   5
ENDBRANCH   3   4
ENDBRANCH   2   3
ENDBRANCH   1   2
BRANCH   1  17
HETATM   17  C   UNK N   1      30.075  26.493  -7.375  0.00  0.00     0.312 C 
BRANCH  17  18
HETATM   18  C   UNK N   1      29.523  26.945  -6.056  0.00  0.00    -0.008 A 
HETATM   19  C   UNK N   1      30.337  26.915  -4.922  0.00  0.00     0.011 A 
HETATM   20  C   UNK N   1      29.847  27.363  -3.698  0.00  0.00     0.002 A 
HETATM   21  C   UNK N   1      28.547  27.855  -3.604  0.00  0.00     0.018 A 
HETATM   22  C   UNK N   1      27.703  27.891  -4.724  0.00  0.00     0.070 A 
HETATM   23  C   UNK N   1      28.198  27.417  -5.971  0.00  0.00     0.057 A 
HETATM   24 Cl   UNK N   1      27.218  27.421  -7.446  0.00  0.00    -0.083 Cl
BRANCH  22  25
HETATM   25  C   UNK N   1      26.313  28.454  -4.515  0.00  0.00     0.419 C 
HETATM   26  F   UNK N   1      25.800  28.244  -3.251  0.00  0.00    -0.166 F 
HETATM   27  F   UNK N   1      25.452  27.868  -5.426  0.00  0.00    -0.166 F 
HETATM   28  F   UNK N   1      26.338  29.819  -4.742  0.00  0.00    -0.166 F 
ENDBRANCH  22  25
ENDBRANCH  17  18
ENDBRANCH   1  17
BRANCH   1  29
HETATM   29  C   UNK N   1      29.590  24.212  -7.584  0.00  0.00     0.286 C 
BRANCH  29  30
HETATM   30  C   UNK N   1      29.321  23.314  -6.382  0.00  0.00     0.080 C 
BRANCH  30  31
HETATM   31  C   UNK N   1      28.094  23.789  -5.633  0.00  0.00    -0.048 A 
HETATM   32  C   UNK N   1      26.924  24.075  -6.355  0.00  0.00     0.008 A 
HETATM   33  C   UNK N   1      25.774  24.517  -5.697  0.00  0.00     0.001 A 
HETATM   34  C   UNK N   1      25.785  24.690  -4.311  0.00  0.00     0.000 A 
HETATM   35  C   UNK N   1      26.947  24.420  -3.583  0.00  0.00     0.001 A 
HETATM   36  C   UNK N   1      28.096  23.968  -4.240  0.00  0.00     0.008 A 
ENDBRANCH  30  31
BRANCH  30  37
HETATM   37  C   UNK N   1      29.296  21.878  -6.831  0.00  0.00    -0.048 A 
HETATM   38  C   UNK N   1      28.366  21.434  -7.785  0.00  0.00     0.008 A 
HETATM   39  C   UNK N   1      28.394  20.110  -8.231  0.00  0.00     0.001 A 
HETATM   40  C   UNK N   1      29.357  19.227  -7.736  0.00  0.00     0.000 A 
HETATM   41  C   UNK N   1      30.288  19.666  -6.790  0.00  0.00     0.001 A 
HETATM   42  C   UNK N   1      30.259  20.989  -6.340  0.00  0.00     0.008 A 
ENDBRANCH  30  37
ENDBRANCH  29  30
ENDBRANCH   1  29
TORSDOF 15
ENDMDL
MODEL 8
REMARK VINA RESULT:      -6.1     13.587     16.348
REMARK  15 active torsions:
REMARK  status: ('A' for Active; 'I' for Inactive)
REMARK    1  A    between atoms: C_18  and  C_9 
REMARK    2  A    between atoms: C_19  and  C_9 
REMARK    3  A    between atoms: N_38  and  C_18 
REMARK    4  A    between atoms: O_41  and  C_19 
REMARK    5  A    between atoms: C_24  and  C_21 
REMARK    6  A    between atoms: C_31  and  C_21 
REMARK    7  A    between atoms: C_27  and  C_22 
REMARK    8  A    between atoms: N_38  and  C_22 
REMARK    9  A    between atoms: C_29  and  C_23 
REMARK   10  A    between atoms: N_38  and  C_23 
REMARK   11  A    between atoms: C_29  and  C_25 
REMARK   12  A    between atoms: C_29  and  C_26 
REMARK   13  A    between atoms: O_41  and  C_28 
REMARK   14  A    between atoms: C_33  and  C_30 
REMARK   15  A    between atoms: O_40  and  C_31 
ROOT
HETATM    1  N   UNK N   1      24.806  15.102   5.891  0.00  0.00     0.093 N 
ENDROOT
BRANCH   1   2
HETATM    2  C   UNK N   1      26.163  14.634   6.149  0.00  0.00     0.275 C 
BRANCH   2   3
HETATM    3  C   UNK N   1      26.867  14.333   4.835  0.00  0.00     0.057 C 
BRANCH   3   4
HETATM    4  C   UNK N   1      28.222  15.010   4.804  0.00  0.00     0.177 C 
BRANCH   4   5
HETATM    5  O   UNK N   1      28.114  16.268   4.253  0.00  0.00    -0.351 OA
BRANCH   5   6
HETATM    6  C   UNK N   1      27.990  17.391   5.002  0.00  0.00     0.069 A 
HETATM    7  C   UNK N   1      27.228  18.486   4.559  0.00  0.00     0.037 A 
HETATM    8  C   UNK N   1      27.122  19.638   5.342  0.00  0.00     0.003 A 
HETATM    9  C   UNK N   1      27.782  19.710   6.570  0.00  0.00     0.008 A 
HETATM   10  C   UNK N   1      28.553  18.632   7.015  0.00  0.00    -0.046 A 
HETATM   11  C   UNK N   1      28.653  17.472   6.232  0.00  0.00     0.044 A 
BRANCH  10  12
HETATM   12  C   UNK N   1      29.275  18.735   8.315  0.00  0.00     0.148 C 
BRANCH  12  13
HETATM   13  C   UNK N   1      28.627  17.873   9.350  0.00  0.00     0.143 C 
HETATM   14  O   UNK N   1      29.314  17.171  10.075  0.00  0.00    -0.650 OA
BRANCH  13  15
HETATM   15  O   UNK N   1      27.287  17.861   9.480  0.00  0.00    -0.776 OA
HETATM   16  H   UNK N   1      26.713  17.909   8.741  0.00  0.00     0.167 HD
ENDBRANCH  13  15
ENDBRANCH  12  13
ENDBRANCH  10  12
ENDBRANCH   5   6
ENDBRANCH   4   5
ENDBRANCH   3   4
ENDBRANCH   2   3
ENDBRANCH   1   2
BRANCH   1  17
HETATM   17  C   UNK N   1      24.596  15.228   4.447  0.00  0.00     0.312 C 
BRANCH  17  18
HETATM   18  C   UNK N   1      23.537  16.238   4.121  0.00  0.00    -0.008 A 
HETATM   19  C   UNK N   1      23.627  17.527   4.650  0.00  0.00     0.011 A 
HETATM   20  C   UNK N   1      22.669  18.484   4.328  0.00  0.00     0.002 A 
HETATM   21  C   UNK N   1      21.624  18.162   3.464  0.00  0.00     0.018 A 
HETATM   22  C   UNK N   1      21.502  16.873   2.923  0.00  0.00     0.070 A 
HETATM   23  C   UNK N   1      22.471  15.891   3.266  0.00  0.00     0.057 A 
HETATM   24 Cl   UNK N   1      22.414  14.237   2.636  0.00  0.00    -0.083 Cl
BRANCH  22  25
HETATM   25  C   UNK N   1      20.334  16.632   1.988  0.00  0.00     0.419 C 
HETATM   26  F   UNK N   1      19.474  17.704   1.868  0.00  0.00    -0.166 F 
HETATM   27  F   UNK N   1      19.606  15.552   2.454  0.00  0.00    -0.166 F 
HETATM   28  F   UNK N   1      20.817  16.332   0.727  0.00  0.00    -0.166 F 
ENDBRANCH  22  25
ENDBRANCH  17  18
ENDBRANCH   1  17
BRANCH   1  29
HETATM   29  C   UNK N   1      23.921  14.037   6.346  0.00  0.00     0.286 C 
BRANCH  29  30
HETATM   30  C   UNK N   1      23.011  14.532   7.465  0.00  0.00     0.080 C 
BRANCH  30  31
HETATM   31  C   UNK N   1      21.703  15.037   6.896  0.00  0.00    -0.048 A 
HETATM   32  C   UNK N   1      20.951  14.193   6.062  0.00  0.00     0.008 A 
HETATM   33  C   UNK N   1      19.740  14.627   5.518  0.00  0.00     0.001 A 
HETATM   34  C   UNK N   1      19.274  15.916   5.790  0.00  0.00     0.000 A 
HETATM   35  C   UNK N   1      20.019  16.768   6.609  0.00  0.00     0.001 A 
HETATM   36  C   UNK N   1      21.226  16.332   7.162  0.00  0.00     0.008 A 
ENDBRANCH  30  31
BRANCH  30  37
HETATM   37  C   UNK N   1      22.895  13.464   8.519  0.00  0.00    -0.048 A 
HETATM   38  C   UNK N   1      23.709  12.320   8.483  0.00  0.00     0.008 A 
HETATM   39  C   UNK N   1      23.626  11.367   9.501  0.00  0.00     0.001 A 
HETATM   40  C   UNK N   1      22.739  11.556  10.564  0.00  0.00     0.000 A 
HETATM   41  C   UNK N   1      21.930  12.695  10.606  0.00  0.00     0.001 A 
HETATM   42  C   UNK N   1      22.010  13.648   9.587  0.00  0.00     0.008 A 
ENDBRANCH  30  37
ENDBRANCH  29  30
ENDBRANCH   1  29
TORSDOF 15
ENDMDL
MODEL 9
REMARK VINA RESULT:      -6.1     13.646     16.252
REMARK  15 active torsions:
REMARK  status: ('A' for Active; 'I' for Inactive)
REMARK    1  A    between atoms: C_18  and  C_9 
REMARK    2  A    between atoms: C_19  and  C_9 
REMARK    3  A    between atoms: N_38  and  C_18 
REMARK    4  A    between atoms: O_41  and  C_19 
REMARK    5  A    between atoms: C_24  and  C_21 
REMARK    6  A    between atoms: C_31  and  C_21 
REMARK    7  A    between atoms: C_27  and  C_22 
REMARK    8  A    between atoms: N_38  and  C_22 
REMARK    9  A    between atoms: C_29  and  C_23 
REMARK   10  A    between atoms: N_38  and  C_23 
REMARK   11  A    between atoms: C_29  and  C_25 
REMARK   12  A    between atoms: C_29  and  C_26 
REMARK   13  A    between atoms: O_41  and  C_28 
REMARK   14  A    between atoms: C_33  and  C_30 
REMARK   15  A    between atoms: O_40  and  C_31 
ROOT
HETATM    1  N   UNK N   1      24.459  15.595   5.953  0.00  0.00     0.093 N 
ENDROOT
BRANCH   1   2
HETATM    2  C   UNK N   1      25.766  15.413   6.576  0.00  0.00     0.275 C 
BRANCH   2   3
HETATM    3  C   UNK N   1      26.756  14.874   5.557  0.00  0.00     0.057 C 
BRANCH   3   4
HETATM    4  C   UNK N   1      28.059  15.643   5.640  0.00  0.00     0.177 C 
BRANCH   4   5
HETATM    5  O   UNK N   1      27.971  16.628   6.599  0.00  0.00    -0.351 OA
BRANCH   5   6
HETATM    6  C   UNK N   1      29.049  17.096   7.274  0.00  0.00     0.069 A 
HETATM    7  C   UNK N   1      28.923  18.102   8.247  0.00  0.00     0.037 A 
HETATM    8  C   UNK N   1      30.049  18.578   8.924  0.00  0.00     0.003 A 
HETATM    9  C   UNK N   1      31.311  18.059   8.629  0.00  0.00     0.008 A 
HETATM   10  C   UNK N   1      31.450  17.067   7.654  0.00  0.00    -0.046 A 
HETATM   11  C   UNK N   1      30.318  16.583   6.980  0.00  0.00     0.044 A 
BRANCH  10  12
HETATM   12  C   UNK N   1      32.807  16.543   7.331  0.00  0.00     0.148 C 
BRANCH  12  13
HETATM   13  C   UNK N   1      33.565  17.517   6.488  0.00  0.00     0.143 C 
HETATM   14  O   UNK N   1      33.284  17.648   5.306  0.00  0.00    -0.650 OA
BRANCH  13  15
HETATM   15  O   UNK N   1      34.563  18.245   7.023  0.00  0.00    -0.776 OA
HETATM   16  H   UNK N   1      34.446  19.136   7.287  0.00  0.00     0.167 HD
ENDBRANCH  13  15
ENDBRANCH  12  13
ENDBRANCH  10  12
ENDBRANCH   5   6
ENDBRANCH   4   5
ENDBRANCH   3   4
ENDBRANCH   2   3
ENDBRANCH   1   2
BRANCH   1  17
HETATM   17  C   UNK N   1      24.607  15.607   4.497  0.00  0.00     0.312 C 
BRANCH  17  18
HETATM   18  C   UNK N   1      23.358  16.073   3.810  0.00  0.00    -0.008 A 
HETATM   19  C   UNK N   1      22.649  15.188   2.996  0.00  0.00     0.011 A 
HETATM   20  C   UNK N   1      21.470  15.596   2.379  0.00  0.00     0.002 A 
HETATM   21  C   UNK N   1      20.986  16.886   2.584  0.00  0.00     0.018 A 
HETATM   22  C   UNK N   1      21.679  17.801   3.391  0.00  0.00     0.070 A 
HETATM   23  C   UNK N   1      22.893  17.389   4.007  0.00  0.00     0.057 A 
HETATM   24 Cl   UNK N   1      23.844  18.461   5.047  0.00  0.00    -0.083 Cl
BRANCH  22  25
HETATM   25  C   UNK N   1      21.060  19.174   3.556  0.00  0.00     0.419 C 
HETATM   26  F   UNK N   1      19.822  19.312   2.963  0.00  0.00    -0.166 F 
HETATM   27  F   UNK N   1      21.907  20.114   2.996  0.00  0.00    -0.166 F 
HETATM   28  F   UNK N   1      20.919  19.449   4.904  0.00  0.00    -0.166 F 
ENDBRANCH  22  25
ENDBRANCH  17  18
ENDBRANCH   1  17
BRANCH   1  29
HETATM   29  C   UNK N   1      23.689  14.401   6.281  0.00  0.00     0.286 C 
BRANCH  29  30
HETATM   30  C   UNK N   1      22.539  14.741   7.222  0.00  0.00     0.080 C 
BRANCH  30  31
HETATM   31  C   UNK N   1      21.242  14.850   6.452  0.00  0.00    -0.048 A 
HETATM   32  C   UNK N   1      20.535  16.063   6.477  0.00  0.00     0.008 A 
HETATM   33  C   UNK N   1      19.333  16.200   5.779  0.00  0.00     0.001 A 
HETATM   34  C   UNK N   1      18.816  15.118   5.060  0.00  0.00     0.000 A 
HETATM   35  C   UNK N   1      19.504  13.903   5.038  0.00  0.00     0.001 A 
HETATM   36  C   UNK N   1      20.713  13.768   5.728  0.00  0.00     0.008 A 
ENDBRANCH  30  31
BRANCH  30  37
HETATM   37  C   UNK N   1      22.537  13.771   8.373  0.00  0.00    -0.048 A 
HETATM   38  C   UNK N   1      21.529  13.810   9.351  0.00  0.00     0.008 A 
HETATM   39  C   UNK N   1      21.512  12.866  10.381  0.00  0.00     0.001 A 
HETATM   40  C   UNK N   1      22.493  11.873  10.433  0.00  0.00     0.000 A 
HETATM   41  C   UNK N   1      23.495  11.827   9.460  0.00  0.00     0.001 A 
HETATM   42  C   UNK N   1      23.516  12.772   8.431  0.00  0.00     0.008 A 
ENDBRANCH  30  37
ENDBRANCH  29  30
ENDBRANCH   1  29
TORSDOF 15
ENDMDL
