MODEL 1
REMARK VINA RESULT:      -4.3      0.000      0.000
REMARK  2 active torsions:
REMARK  status: ('A' for Active; 'I' for Inactive)
REMARK    1  A    between atoms: O_1  and  C_2 
REMARK    2  A    between atoms: C_2  and  C_4 
ROOT
HETATM    1  C   UNK N   1      34.603  17.118   9.176  0.00  0.00     0.113 A 
HETATM    2  C   UNK N   1      34.004  15.896   8.835  0.00  0.00     0.087 A 
HETATM    3  S   UNK N   1      34.203  14.952  10.178  0.00  0.00    -0.094 SA
HETATM    4  C   UNK N   1      35.002  16.030  11.141  0.00  0.00     0.138 A 
HETATM    5  N   UNK N   1      35.148  17.184  10.441  0.00  0.00    -0.354 N 
ATOM      6  HN  UNK N   1      35.612  18.014  10.812  1.00  0.00     0.166 HD
ENDROOT
BRANCH   1   7
HETATM    7  C   UNK N   1      34.654  18.261   8.255  0.00  0.00     0.194 C 
HETATM    8  O   UNK N   1      34.054  18.222   7.192  0.00  0.00    -0.645 OA
BRANCH   7   9
HETATM    9  O   UNK N   1      35.363  19.358   8.579  0.00  0.00    -0.772 OA
HETATM   10  H   UNK N   1      35.764  19.424   9.423  0.00  0.00     0.167 HD
ENDBRANCH   7   9
ENDBRANCH   1   7
TORSDOF 2
ENDMDL
MODEL 2
REMARK VINA RESULT:      -4.2     15.853     16.176
REMARK  2 active torsions:
REMARK  status: ('A' for Active; 'I' for Inactive)
REMARK    1  A    between atoms: O_1  and  C_2 
REMARK    2  A    between atoms: C_2  and  C_4 
ROOT
HETATM    1  C   UNK N   1      20.529  19.339   1.798  0.00  0.00     0.113 A 
HETATM    2  C   UNK N   1      20.444  19.114   3.180  0.00  0.00     0.087 A 
HETATM    3  S   UNK N   1      20.001  17.526   3.311  0.00  0.00    -0.094 SA
HETATM    4  C   UNK N   1      19.922  17.143   1.707  0.00  0.00     0.138 A 
HETATM    5  N   UNK N   1      20.242  18.254   0.996  0.00  0.00    -0.354 N 
ATOM      6  HN  UNK N   1      20.266  18.284  -0.023  1.00  0.00     0.166 HD
ENDROOT
BRANCH   1   7
HETATM    7  C   UNK N   1      20.900  20.641   1.227  0.00  0.00     0.194 C 
HETATM    8  O   UNK N   1      21.095  20.754   0.026  0.00  0.00    -0.645 OA
BRANCH   7   9
HETATM    9  O   UNK N   1      21.025  21.717   2.026  0.00  0.00    -0.772 OA
HETATM   10  H   UNK N   1      21.365  22.519   1.682  0.00  0.00     0.167 HD
ENDBRANCH   7   9
ENDBRANCH   1   7
TORSDOF 2
ENDMDL
MODEL 3
REMARK VINA RESULT:      -3.8     11.323     11.945
REMARK  2 active torsions:
REMARK  status: ('A' for Active; 'I' for Inactive)
REMARK    1  A    between atoms: O_1  and  C_2 
REMARK    2  A    between atoms: C_2  and  C_4 
ROOT
HETATM    1  C   UNK N   1      43.197  22.322   3.497  0.00  0.00     0.113 A 
HETATM    2  C   UNK N   1      42.574  21.115   3.146  0.00  0.00     0.087 A 
HETATM    3  S   UNK N   1      41.499  21.536   1.963  0.00  0.00    -0.094 SA
HETATM    4  C   UNK N   1      41.804  23.158   1.896  0.00  0.00     0.138 A 
HETATM    5  N   UNK N   1      42.770  23.437   2.808  0.00  0.00    -0.354 N 
ATOM      6  HN  UNK N   1      43.140  24.375   2.967  1.00  0.00     0.166 HD
ENDROOT
BRANCH   1   7
HETATM    7  C   UNK N   1      44.238  22.407   4.530  0.00  0.00     0.194 C 
HETATM    8  O   UNK N   1      43.942  22.695   5.680  0.00  0.00    -0.645 OA
BRANCH   7   9
HETATM    9  O   UNK N   1      45.524  22.168   4.213  0.00  0.00    -0.772 OA
HETATM   10  H   UNK N   1      46.140  21.954   4.885  0.00  0.00     0.167 HD
ENDBRANCH   7   9
ENDBRANCH   1   7
TORSDOF 2
ENDMDL
MODEL 4
REMARK VINA RESULT:      -3.8     12.439     12.985
REMARK  2 active torsions:
REMARK  status: ('A' for Active; 'I' for Inactive)
REMARK    1  A    between atoms: O_1  and  C_2 
REMARK    2  A    between atoms: C_2  and  C_4 
ROOT
HETATM    1  C   UNK N   1      22.880  12.596  10.698  0.00  0.00     0.113 A 
HETATM    2  C   UNK N   1      22.216  13.479   9.834  0.00  0.00     0.087 A 
HETATM    3  S   UNK N   1      20.616  13.301  10.213  0.00  0.00    -0.094 SA
HETATM    4  C   UNK N   1      20.755  12.168  11.408  0.00  0.00     0.138 A 
HETATM    5  N   UNK N   1      22.073  11.881  11.558  0.00  0.00    -0.354 N 
ATOM      6  HN  UNK N   1      22.429  11.206  12.235  1.00  0.00     0.166 HD
ENDROOT
BRANCH   1   7
HETATM    7  C   UNK N   1      24.340  12.433  10.699  0.00  0.00     0.194 C 
HETATM    8  O   UNK N   1      24.973  12.556   9.661  0.00  0.00    -0.645 OA
BRANCH   7   9
HETATM    9  O   UNK N   1      24.986  12.148  11.844  0.00  0.00    -0.772 OA
HETATM   10  H   UNK N   1      25.732  11.581  11.833  0.00  0.00     0.167 HD
ENDBRANCH   7   9
ENDBRANCH   1   7
TORSDOF 2
ENDMDL
MODEL 5
REMARK VINA RESULT:      -3.7      3.382      3.988
REMARK  2 active torsions:
REMARK  status: ('A' for Active; 'I' for Inactive)
REMARK    1  A    between atoms: O_1  and  C_2 
REMARK    2  A    between atoms: C_2  and  C_4 
ROOT
HETATM    1  C   UNK N   1      35.763  14.932  12.179  0.00  0.00     0.113 A 
HETATM    2  C   UNK N   1      35.013  13.766  11.967  0.00  0.00     0.087 A 
HETATM    3  S   UNK N   1      35.267  12.861  13.327  0.00  0.00    -0.094 SA
HETATM    4  C   UNK N   1      36.271  13.889  14.142  0.00  0.00     0.138 A 
HETATM    5  N   UNK N   1      36.450  14.993  13.373  0.00  0.00    -0.354 N 
ATOM      6  HN  UNK N   1      37.032  15.784  13.649  1.00  0.00     0.166 HD
ENDROOT
BRANCH   1   7
HETATM    7  C   UNK N   1      35.822  16.027  11.201  0.00  0.00     0.194 C 
HETATM    8  O   UNK N   1      36.852  16.243  10.581  0.00  0.00    -0.645 OA
BRANCH   7   9
HETATM    9  O   UNK N   1      34.740  16.796  10.983  0.00  0.00    -0.772 OA
HETATM   10  H   UNK N   1      34.528  17.072  10.114  0.00  0.00     0.167 HD
ENDBRANCH   7   9
ENDBRANCH   1   7
TORSDOF 2
ENDMDL
MODEL 6
REMARK VINA RESULT:      -3.6      3.198      3.500
REMARK  2 active torsions:
REMARK  status: ('A' for Active; 'I' for Inactive)
REMARK    1  A    between atoms: O_1  and  C_2 
REMARK    2  A    between atoms: C_2  and  C_4 
ROOT
HETATM    1  C   UNK N   1      32.575  17.607   8.024  0.00  0.00     0.113 A 
HETATM    2  C   UNK N   1      32.208  17.195   6.734  0.00  0.00     0.087 A 
HETATM    3  S   UNK N   1      30.564  17.038   6.804  0.00  0.00    -0.094 SA
HETATM    4  C   UNK N   1      30.327  17.470   8.381  0.00  0.00     0.138 A 
HETATM    5  N   UNK N   1      31.538  17.756   8.921  0.00  0.00    -0.354 N 
ATOM      6  HN  UNK N   1      31.668  18.050   9.889  1.00  0.00     0.166 HD
ENDROOT
BRANCH   1   7
HETATM    7  C   UNK N   1      33.969  17.868   8.408  0.00  0.00     0.194 C 
HETATM    8  O   UNK N   1      34.725  18.432   7.633  0.00  0.00    -0.645 OA
BRANCH   7   9
HETATM    9  O   UNK N   1      34.418  17.486   9.618  0.00  0.00    -0.772 OA
HETATM   10  H   UNK N   1      35.308  17.211   9.722  0.00  0.00     0.167 HD
ENDBRANCH   7   9
ENDBRANCH   1   7
TORSDOF 2
ENDMDL
MODEL 7
REMARK VINA RESULT:      -3.5      2.894      3.426
REMARK  2 active torsions:
REMARK  status: ('A' for Active; 'I' for Inactive)
REMARK    1  A    between atoms: O_1  and  C_2 
REMARK    2  A    between atoms: C_2  and  C_4 
ROOT
HETATM    1  C   UNK N   1      33.865  17.006   8.866  0.00  0.00     0.113 A 
HETATM    2  C   UNK N   1      34.410  17.055   7.574  0.00  0.00     0.087 A 
HETATM    3  S   UNK N   1      33.119  17.384   6.594  0.00  0.00    -0.094 SA
HETATM    4  C   UNK N   1      31.933  17.463   7.741  0.00  0.00     0.138 A 
HETATM    5  N   UNK N   1      32.507  17.231   8.950  0.00  0.00    -0.354 N 
ATOM      6  HN  UNK N   1      31.987  17.224   9.828  1.00  0.00     0.166 HD
ENDROOT
BRANCH   1   7
HETATM    7  C   UNK N   1      34.676  16.735  10.060  0.00  0.00     0.194 C 
HETATM    8  O   UNK N   1      35.686  17.386  10.278  0.00  0.00    -0.645 OA
BRANCH   7   9
HETATM    9  O   UNK N   1      34.308  15.768  10.920  0.00  0.00    -0.772 OA
HETATM   10  H   UNK N   1      33.785  15.979  11.668  0.00  0.00     0.167 HD
ENDBRANCH   7   9
ENDBRANCH   1   7
TORSDOF 2
ENDMDL
MODEL 8
REMARK VINA RESULT:      -3.5      7.614      8.164
REMARK  2 active torsions:
REMARK  status: ('A' for Active; 'I' for Inactive)
REMARK    1  A    between atoms: O_1  and  C_2 
REMARK    2  A    between atoms: C_2  and  C_4 
ROOT
HETATM    1  C   UNK N   1      27.859  19.111   7.065  0.00  0.00     0.113 A 
HETATM    2  C   UNK N   1      28.274  18.747   5.775  0.00  0.00     0.087 A 
HETATM    3  S   UNK N   1      27.496  19.811   4.778  0.00  0.00    -0.094 SA
HETATM    4  C   UNK N   1      26.678  20.687   5.915  0.00  0.00     0.138 A 
HETATM    5  N   UNK N   1      26.985  20.175   7.134  0.00  0.00    -0.354 N 
ATOM      6  HN  UNK N   1      26.607  20.539   8.009  1.00  0.00     0.166 HD
ENDROOT
BRANCH   1   7
HETATM    7  C   UNK N   1      28.318  18.412   8.273  0.00  0.00     0.194 C 
HETATM    8  O   UNK N   1      29.453  17.965   8.331  0.00  0.00    -0.645 OA
BRANCH   7   9
HETATM    9  O   UNK N   1      27.489  18.263   9.323  0.00  0.00    -0.772 OA
HETATM   10  H   UNK N   1      27.823  17.964  10.145  0.00  0.00     0.167 HD
ENDBRANCH   7   9
ENDBRANCH   1   7
TORSDOF 2
ENDMDL
MODEL 9
REMARK VINA RESULT:      -3.5     12.906     13.544
REMARK  2 active torsions:
REMARK  status: ('A' for Active; 'I' for Inactive)
REMARK    1  A    between atoms: O_1  and  C_2 
REMARK    2  A    between atoms: C_2  and  C_4 
ROOT
HETATM    1  C   UNK N   1      44.694  23.396   2.763  0.00  0.00     0.113 A 
HETATM    2  C   UNK N   1      43.380  23.049   2.414  0.00  0.00     0.087 A 
HETATM    3  S   UNK N   1      43.095  21.642   3.234  0.00  0.00    -0.094 SA
HETATM    4  C   UNK N   1      44.554  21.480   3.992  0.00  0.00     0.138 A 
HETATM    5  N   UNK N   1      45.331  22.532   3.629  0.00  0.00    -0.354 N 
ATOM      6  HN  UNK N   1      46.286  22.668   3.960  1.00  0.00     0.166 HD
ENDROOT
BRANCH   1   7
HETATM    7  C   UNK N   1      45.360  24.600   2.249  0.00  0.00     0.194 C 
HETATM    8  O   UNK N   1      44.762  25.365   1.507  0.00  0.00    -0.645 OA
BRANCH   7   9
HETATM    9  O   UNK N   1      46.634  24.865   2.592  0.00  0.00    -0.772 OA
HETATM   10  H   UNK N   1      46.869  24.945   3.496  0.00  0.00     0.167 HD
ENDBRANCH   7   9
ENDBRANCH   1   7
TORSDOF 2
ENDMDL
