REMARK  31 active torsions:
REMARK  status: ('A' for Active; 'I' for Inactive)
REMARK    1  A    between atoms: C_5  and  C_3 
REMARK    2  A    between atoms: C_6  and  C_4 
REMARK    3  A    between atoms: C_17  and  C_5 
REMARK    4  A    between atoms: C_18  and  C_6 
REMARK    5  A    between atoms: C_15  and  C_13 
REMARK    6  A    between atoms: C_23  and  C_13 
REMARK    7  A    between atoms: C_16  and  C_14 
REMARK    8  A    between atoms: C_24  and  C_14 
REMARK    9  A    between atoms: C_25  and  C_15 
REMARK   10  A    between atoms: C_26  and  C_16 
REMARK   11  A    between atoms: C_29  and  C_17 
REMARK   12  A    between atoms: C_30  and  C_18 
REMARK   13  A    between atoms: C_33  and  C_23 
REMARK   14  A    between atoms: C_34  and  C_24 
REMARK   15  A    between atoms: N_39  and  C_25 
REMARK   16  A    between atoms: N_40  and  C_26 
REMARK   17  A    between atoms: C_29  and  C_27 
REMARK   18  A    between atoms: N_41  and  C_27 
REMARK   19  A    between atoms: C_30  and  C_28 
REMARK   20  A    between atoms: N_42  and  C_28 
REMARK   21  A    between atoms: C_29  and  C_35 
REMARK   22  A    between atoms: C_30  and  C_36 
REMARK   23  A    between atoms: N_43  and  C_31 
REMARK   24  A    between atoms: N_45  and  C_32 
REMARK   25  A    between atoms: C_37  and  C_33 
REMARK   26  A    between atoms: C_33  and  N_47 
REMARK   27  A    between atoms: C_38  and  C_34 
REMARK   28  A    between atoms: C_34  and  N_49 
REMARK   29  A    between atoms: C_35  and  O_51 
REMARK   30  A    between atoms: C_36  and  O_52 
REMARK   31  A    between atoms: N_42  and  N_41 
ROOT
HETATM    1  C   UNK N   1       5.797   0.978  -0.375  0.00  0.00     0.139 C 
HETATM    2  N   UNK N   1       5.053   0.105  -0.977  0.00  0.00    -0.339 N 
ATOM      3  HN  UNK N   1       5.266  -0.131  -1.946  1.00  0.00     0.168 HD
HETATM    4  O   UNK N   1       5.668   1.188   0.952  0.00  0.00    -0.348 OA
HETATM    5  H   UNK N   1       5.750   1.338   1.874  0.00  0.00     0.219 HD
ENDROOT
BRANCH   1   6
HETATM    6  C   UNK N   1       6.707   1.862  -1.191  0.00  0.00     0.158 C 
BRANCH   6   7
HETATM    7  C   UNK N   1       8.217   1.564  -1.146  0.00  0.00     0.033 C 
BRANCH   7   8
HETATM    8  C   UNK N   1       8.825   1.223   0.205  0.00  0.00     0.004 C 
BRANCH   8   9
HETATM    9  C   UNK N   1      10.190   0.585  -0.014  0.00  0.00     0.019 C 
BRANCH   9  10
HETATM   10  C   UNK N   1      11.255   1.628  -0.310  0.00  0.00     0.111 C 
BRANCH  10  11
HETATM   11  N   UNK N   1      11.885   2.045   0.929  0.00  0.00    -0.430 N 
HETATM   12  H   UNK N   1      12.360   1.807   1.800  0.00  0.00     0.149 HD
HETATM   13  H   UNK N   1      11.824   3.063   0.929  0.00  0.00     0.149 HD
ENDBRANCH  10  11
ENDBRANCH   9  10
ENDBRANCH   8   9
ENDBRANCH   7   8
ENDBRANCH   6   7
BRANCH   6  14
HETATM   14  N   UNK N   1       6.326   3.243  -0.929  0.00  0.00    -0.362 N 
HETATM   15  C   UNK N   1       6.617   3.945   0.119  0.00  0.00     0.117 C 
ATOM     16  HN  UNK N   1       5.770   3.707  -1.648  1.00  0.00     0.162 HD
BRANCH  15  17
HETATM   17  C   UNK N   1       5.909   5.261   0.367  0.00  0.00     0.079 C 
BRANCH  17  18
HETATM   18  C   UNK N   1       4.692   5.396  -0.552  0.00  0.00     0.014 C 
BRANCH  18  19
HETATM   19  C   UNK N   1       3.711   6.427  -0.020  0.00  0.00     0.000 C 
BRANCH  19  20
HETATM   20  C   UNK N   1       3.558   7.558  -1.009  0.00  0.00    -0.005 C 
HETATM   21  C   UNK N   1       2.516   8.524  -0.489  0.00  0.00     0.005 C 
ENDBRANCH  19  20
ENDBRANCH  18  19
ENDBRANCH  17  18
BRANCH  17  22
HETATM   22  C   UNK N   1       6.810   6.476   0.154  0.00  0.00     0.151 C 
BRANCH  22  23
HETATM   23  N   UNK N   1       7.643   6.789   1.314  0.00  0.00    -0.340 N 
HETATM   24  H   UNK N   1       7.418   7.486   2.024  0.00  0.00     0.179 HD
BRANCH  23  25
HETATM   25  N   UNK N   1       8.800   5.989   1.309  0.00  0.00    -0.340 N 
HETATM   26  H   UNK N   1       9.028   5.287   2.012  0.00  0.00     0.179 HD
BRANCH  25  27
HETATM   27  C   UNK N   1       9.628   6.311   0.147  0.00  0.00     0.151 C 
BRANCH  27  28
HETATM   28  C   UNK N   1      10.526   7.528   0.364  0.00  0.00     0.079 C 
BRANCH  28  29
HETATM   29  C   UNK N   1      11.745   7.397  -0.553  0.00  0.00     0.014 C 
BRANCH  29  30
HETATM   30  C   UNK N   1      12.730   6.369  -0.023  0.00  0.00     0.000 C 
BRANCH  30  31
HETATM   31  C   UNK N   1      12.864   5.225  -1.000  0.00  0.00    -0.005 C 
HETATM   32  C   UNK N   1      13.913   4.263  -0.486  0.00  0.00     0.005 C 
ENDBRANCH  30  31
ENDBRANCH  29  30
ENDBRANCH  28  29
BRANCH  28  33
HETATM   33  C   UNK N   1       9.816   8.842   0.117  0.00  0.00     0.117 C 
HETATM   34  N   UNK N   1      10.107   9.545  -0.930  0.00  0.00    -0.362 N 
ATOM     35  HN  UNK N   1      10.663   9.083  -1.649  1.00  0.00     0.162 HD
BRANCH  34  36
HETATM   36  C   UNK N   1       9.725  10.926  -1.191  0.00  0.00     0.158 C 
BRANCH  36  37
HETATM   37  C   UNK N   1       8.215  11.223  -1.146  0.00  0.00     0.033 C 
BRANCH  37  38
HETATM   38  C   UNK N   1       7.607  11.564   0.205  0.00  0.00     0.004 C 
BRANCH  38  39
HETATM   39  C   UNK N   1       6.242  12.202  -0.013  0.00  0.00     0.019 C 
BRANCH  39  40
HETATM   40  C   UNK N   1       5.177  11.159  -0.310  0.00  0.00     0.111 C 
BRANCH  40  41
HETATM   41  N   UNK N   1       4.547  10.742   0.930  0.00  0.00    -0.430 N 
HETATM   42  H   UNK N   1       4.071  10.979   1.800  0.00  0.00     0.149 HD
HETATM   43  H   UNK N   1       4.609   9.724   0.930  0.00  0.00     0.149 HD
ENDBRANCH  40  41
ENDBRANCH  39  40
ENDBRANCH  38  39
ENDBRANCH  37  38
ENDBRANCH  36  37
BRANCH  36  44
HETATM   44  C   UNK N   1      10.634  11.810  -0.375  0.00  0.00     0.139 C 
HETATM   45  N   UNK N   1      11.379  12.683  -0.977  0.00  0.00    -0.339 N 
ATOM     46  HN  UNK N   1      11.166  12.920  -1.946  1.00  0.00     0.168 HD
HETATM   47  O   UNK N   1      10.763  11.600   0.952  0.00  0.00    -0.348 OA
HETATM   48  H   UNK N   1      10.681  11.449   1.874  0.00  0.00     0.219 HD
BRANCH  45  49
HETATM   49  C   UNK N   1      12.476  13.323  -0.350  0.00  0.00     0.033 A 
HETATM   50  C   UNK N   1      12.630  14.712  -0.429  0.00  0.00     0.029 A 
HETATM   51  C   UNK N   1      13.772  15.319   0.107  0.00  0.00     0.002 A 
HETATM   52  C   UNK N   1      14.780  14.538   0.684  0.00  0.00     0.000 A 
HETATM   53  C   UNK N   1      14.641  13.149   0.740  0.00  0.00     0.002 A 
HETATM   54  C   UNK N   1      13.493  12.545   0.227  0.00  0.00     0.029 A 
ENDBRANCH  45  49
ENDBRANCH  36  44
ENDBRANCH  34  36
BRANCH  33  55
HETATM   55  O   UNK N   1       8.965   9.307   1.054  0.00  0.00    -0.349 OA
HETATM   56  H   UNK N   1       8.949   9.981   1.705  0.00  0.00     0.219 HD
ENDBRANCH  33  55
ENDBRANCH  28  33
ENDBRANCH  27  28
ENDBRANCH  25  27
ENDBRANCH  23  25
ENDBRANCH  22  23
ENDBRANCH  17  22
ENDBRANCH  15  17
BRANCH  15  57
HETATM   57  O   UNK N   1       7.467   3.478   1.056  0.00  0.00    -0.349 OA
HETATM   58  H   UNK N   1       7.481   2.805   1.707  0.00  0.00     0.219 HD
ENDBRANCH  15  57
ENDBRANCH   6  14
ENDBRANCH   1   6
BRANCH   2  59
HETATM   59  C   UNK N   1       3.957  -0.535  -0.350  0.00  0.00     0.033 A 
HETATM   60  C   UNK N   1       3.802  -1.924  -0.429  0.00  0.00     0.029 A 
HETATM   61  C   UNK N   1       2.661  -2.532   0.107  0.00  0.00     0.002 A 
HETATM   62  C   UNK N   1       1.653  -1.751   0.684  0.00  0.00     0.000 A 
HETATM   63  C   UNK N   1       1.791  -0.362   0.739  0.00  0.00     0.002 A 
HETATM   64  C   UNK N   1       2.939   0.242   0.226  0.00  0.00     0.029 A 
ENDBRANCH   2  59
TORSDOF 31
