MODEL 1
REMARK VINA RESULT:      -4.3      0.000      0.000
REMARK  2 active torsions:
REMARK  status: ('A' for Active; 'I' for Inactive)
REMARK    1  A    between atoms: C_2  and  N_3 
REMARK    2  A    between atoms: N_3  and  C_4 
ROOT
HETATM    1  C   UNK N   1      27.748  19.297   7.319  0.00  0.00     0.083 A 
HETATM    2  C   UNK N   1      28.449  18.297   6.425  0.00  0.00     0.025 A 
HETATM    3  C   UNK N   1      28.499  18.638   4.941  0.00  0.00     0.002 A 
HETATM    4  C   UNK N   1      27.863  19.932   4.426  0.00  0.00     0.000 A 
HETATM    5  C   UNK N   1      27.167  20.906   5.377  0.00  0.00     0.002 A 
HETATM    6  C   UNK N   1      27.101  20.593   6.862  0.00  0.00     0.025 A 
ENDROOT
BRANCH   1   7
HETATM    7  N   UNK N   1      27.700  18.972   8.727  0.00  0.00    -0.364 N 
HETATM    8  H   UNK N   1      27.247  19.585   9.349  0.00  0.00     0.162 HD
BRANCH   7   9
HETATM    9  C   UNK N   1      28.267  17.844   9.205  0.00  0.00     0.348 C 
HETATM   10  O   UNK N   1      27.566  16.939   9.630  0.00  0.00    -0.284 OA
ENDBRANCH   7   9
ENDBRANCH   1   7
TORSDOF 2
ENDMDL
MODEL 2
REMARK VINA RESULT:      -4.3      0.035      1.788
REMARK  2 active torsions:
REMARK  status: ('A' for Active; 'I' for Inactive)
REMARK    1  A    between atoms: C_2  and  N_3 
REMARK    2  A    between atoms: N_3  and  C_4 
ROOT
HETATM    1  C   UNK N   1      27.773  19.301   7.307  0.00  0.00     0.083 A 
HETATM    2  C   UNK N   1      27.108  20.590   6.874  0.00  0.00     0.025 A 
HETATM    3  C   UNK N   1      27.157  20.907   5.385  0.00  0.00     0.002 A 
HETATM    4  C   UNK N   1      27.851  19.947   4.415  0.00  0.00     0.000 A 
HETATM    5  C   UNK N   1      28.505  18.658   4.910  0.00  0.00     0.002 A 
HETATM    6  C   UNK N   1      28.473  18.314   6.388  0.00  0.00     0.025 A 
ENDROOT
BRANCH   1   7
HETATM    7  N   UNK N   1      27.726  19.000   8.720  0.00  0.00    -0.364 N 
HETATM    8  H   UNK N   1      27.287  19.632   9.333  0.00  0.00     0.162 HD
BRANCH   7   9
HETATM    9  C   UNK N   1      28.273  17.869   9.214  0.00  0.00     0.348 C 
HETATM   10  O   UNK N   1      27.557  16.949   9.575  0.00  0.00    -0.284 OA
ENDBRANCH   7   9
ENDBRANCH   1   7
TORSDOF 2
ENDMDL
MODEL 3
REMARK VINA RESULT:      -4.3      8.988      9.299
REMARK  2 active torsions:
REMARK  status: ('A' for Active; 'I' for Inactive)
REMARK    1  A    between atoms: C_2  and  N_3 
REMARK    2  A    between atoms: N_3  and  C_4 
ROOT
HETATM    1  C   UNK N   1      23.223  12.327  10.524  0.00  0.00     0.083 A 
HETATM    2  C   UNK N   1      21.889  13.040  10.487  0.00  0.00     0.025 A 
HETATM    3  C   UNK N   1      21.172  13.061   9.143  0.00  0.00     0.002 A 
HETATM    4  C   UNK N   1      21.803  12.385   7.923  0.00  0.00     0.000 A 
HETATM    5  C   UNK N   1      23.155  11.679   8.019  0.00  0.00     0.002 A 
HETATM    6  C   UNK N   1      23.894  11.642   9.345  0.00  0.00     0.025 A 
ENDROOT
BRANCH   1   7
HETATM    7  N   UNK N   1      23.902  12.307  11.799  0.00  0.00    -0.364 N 
HETATM    8  H   UNK N   1      24.843  12.591  11.850  0.00  0.00     0.162 HD
BRANCH   7   9
HETATM    9  C   UNK N   1      23.271  11.907  12.924  0.00  0.00     0.348 C 
HETATM   10  O   UNK N   1      23.683  12.260  14.017  0.00  0.00    -0.284 OA
ENDBRANCH   7   9
ENDBRANCH   1   7
TORSDOF 2
ENDMDL
MODEL 4
REMARK VINA RESULT:      -4.2     11.734     13.468
REMARK  2 active torsions:
REMARK  status: ('A' for Active; 'I' for Inactive)
REMARK    1  A    between atoms: C_2  and  N_3 
REMARK    2  A    between atoms: N_3  and  C_4 
ROOT
HETATM    1  C   UNK N   1      36.554  13.957  15.351  0.00  0.00     0.083 A 
HETATM    2  C   UNK N   1      35.546  13.107  16.093  0.00  0.00     0.025 A 
HETATM    3  C   UNK N   1      35.184  13.564  17.500  0.00  0.00     0.002 A 
HETATM    4  C   UNK N   1      35.830  14.819  18.092  0.00  0.00     0.000 A 
HETATM    5  C   UNK N   1      36.843  15.640  17.296  0.00  0.00     0.002 A 
HETATM    6  C   UNK N   1      37.224  15.210  15.890  0.00  0.00     0.025 A 
ENDROOT
BRANCH   1   7
HETATM    7  N   UNK N   1      36.897  13.523  14.016  0.00  0.00    -0.364 N 
HETATM    8  H   UNK N   1      37.580  12.825  13.895  0.00  0.00     0.162 HD
BRANCH   7   9
HETATM    9  C   UNK N   1      36.298  14.057  12.930  0.00  0.00     0.348 C 
HETATM   10  O   UNK N   1      35.084  14.018  12.818  0.00  0.00    -0.284 OA
ENDBRANCH   7   9
ENDBRANCH   1   7
TORSDOF 2
ENDMDL
MODEL 5
REMARK VINA RESULT:      -4.2      5.374      6.070
REMARK  2 active torsions:
REMARK  status: ('A' for Active; 'I' for Inactive)
REMARK    1  A    between atoms: C_2  and  N_3 
REMARK    2  A    between atoms: N_3  and  C_4 
ROOT
HETATM    1  C   UNK N   1      33.036  17.406   7.981  0.00  0.00     0.083 A 
HETATM    2  C   UNK N   1      31.544  17.160   7.926  0.00  0.00     0.025 A 
HETATM    3  C   UNK N   1      30.926  17.072   6.536  0.00  0.00     0.002 A 
HETATM    4  C   UNK N   1      31.803  17.230   5.291  0.00  0.00     0.000 A 
HETATM    5  C   UNK N   1      33.307  17.477   5.409  0.00  0.00     0.002 A 
HETATM    6  C   UNK N   1      33.952  17.569   6.780  0.00  0.00     0.025 A 
ENDROOT
BRANCH   1   7
HETATM    7  N   UNK N   1      33.621  17.489   9.300  0.00  0.00    -0.364 N 
HETATM    8  H   UNK N   1      33.151  17.985  10.007  0.00  0.00     0.162 HD
BRANCH   7   9
HETATM    9  C   UNK N   1      34.802  16.897   9.581  0.00  0.00     0.348 C 
HETATM   10  O   UNK N   1      35.598  17.442  10.328  0.00  0.00    -0.284 OA
ENDBRANCH   7   9
ENDBRANCH   1   7
TORSDOF 2
ENDMDL
MODEL 6
REMARK VINA RESULT:      -4.1      4.382      5.324
REMARK  2 active torsions:
REMARK  status: ('A' for Active; 'I' for Inactive)
REMARK    1  A    between atoms: C_2  and  N_3 
REMARK    2  A    between atoms: N_3  and  C_4 
ROOT
HETATM    1  C   UNK N   1      31.854  17.824   8.351  0.00  0.00     0.083 A 
HETATM    2  C   UNK N   1      30.712  18.558   9.020  0.00  0.00     0.025 A 
HETATM    3  C   UNK N   1      29.327  18.336   8.425  0.00  0.00     0.002 A 
HETATM    4  C   UNK N   1      29.146  17.412   7.218  0.00  0.00     0.000 A 
HETATM    5  C   UNK N   1      30.337  16.695   6.584  0.00  0.00     0.002 A 
HETATM    6  C   UNK N   1      31.730  16.897   7.154  0.00  0.00     0.025 A 
ENDROOT
BRANCH   1   7
HETATM    7  N   UNK N   1      33.167  18.035   8.916  0.00  0.00    -0.364 N 
HETATM    8  H   UNK N   1      33.284  18.002   9.892  0.00  0.00     0.162 HD
BRANCH   7   9
HETATM    9  C   UNK N   1      34.237  18.276   8.129  0.00  0.00     0.348 C 
HETATM   10  O   UNK N   1      35.048  19.133   8.443  0.00  0.00    -0.284 OA
ENDBRANCH   7   9
ENDBRANCH   1   7
TORSDOF 2
ENDMDL
MODEL 7
REMARK VINA RESULT:      -4.0     13.042     14.096
REMARK  2 active torsions:
REMARK  status: ('A' for Active; 'I' for Inactive)
REMARK    1  A    between atoms: C_2  and  N_3 
REMARK    2  A    between atoms: N_3  and  C_4 
ROOT
HETATM    1  C   UNK N   1      26.177  27.325  -3.562  0.00  0.00     0.083 A 
HETATM    2  C   UNK N   1      25.352  27.935  -4.674  0.00  0.00     0.025 A 
HETATM    3  C   UNK N   1      24.914  26.990  -5.786  0.00  0.00     0.002 A 
HETATM    4  C   UNK N   1      25.309  25.512  -5.740  0.00  0.00     0.000 A 
HETATM    5  C   UNK N   1      26.145  24.950  -4.591  0.00  0.00     0.002 A 
HETATM    6  C   UNK N   1      26.597  25.867  -3.468  0.00  0.00     0.025 A 
ENDROOT
BRANCH   1   7
HETATM    7  N   UNK N   1      26.593  28.222  -2.508  0.00  0.00    -0.364 N 
HETATM    8  H   UNK N   1      26.101  28.226  -1.656  0.00  0.00     0.162 HD
BRANCH   7   9
HETATM    9  C   UNK N   1      27.642  29.055  -2.671  0.00  0.00     0.348 C 
HETATM   10  O   UNK N   1      27.742  30.057  -1.981  0.00  0.00    -0.284 OA
ENDBRANCH   7   9
ENDBRANCH   1   7
TORSDOF 2
ENDMDL
MODEL 8
REMARK VINA RESULT:      -4.0     13.659     14.943
REMARK  2 active torsions:
REMARK  status: ('A' for Active; 'I' for Inactive)
REMARK    1  A    between atoms: C_2  and  N_3 
REMARK    2  A    between atoms: N_3  and  C_4 
ROOT
HETATM    1  C   UNK N   1      25.761  24.957  -5.781  0.00  0.00     0.083 A 
HETATM    2  C   UNK N   1      25.326  26.289  -6.355  0.00  0.00     0.025 A 
HETATM    3  C   UNK N   1      25.502  27.502  -5.450  0.00  0.00     0.002 A 
HETATM    4  C   UNK N   1      26.089  27.338  -4.046  0.00  0.00     0.000 A 
HETATM    5  C   UNK N   1      26.511  25.967  -3.520  0.00  0.00     0.002 A 
HETATM    6  C   UNK N   1      26.349  24.738  -4.397  0.00  0.00     0.025 A 
ENDROOT
BRANCH   1   7
HETATM    7  N   UNK N   1      25.594  23.807  -6.640  0.00  0.00    -0.364 N 
HETATM    8  H   UNK N   1      25.452  22.920  -6.237  0.00  0.00     0.162 HD
BRANCH   7   9
HETATM    9  C   UNK N   1      25.629  23.925  -7.984  0.00  0.00     0.348 C 
HETATM   10  O   UNK N   1      24.675  23.570  -8.656  0.00  0.00    -0.284 OA
ENDBRANCH   7   9
ENDBRANCH   1   7
TORSDOF 2
ENDMDL
MODEL 9
REMARK VINA RESULT:      -3.9      3.271      4.219
REMARK  2 active torsions:
REMARK  status: ('A' for Active; 'I' for Inactive)
REMARK    1  A    between atoms: C_2  and  N_3 
REMARK    2  A    between atoms: N_3  and  C_4 
ROOT
HETATM    1  C   UNK N   1      31.018  17.568   8.243  0.00  0.00     0.083 A 
HETATM    2  C   UNK N   1      32.484  17.906   8.405  0.00  0.00     0.025 A 
HETATM    3  C   UNK N   1      33.344  17.798   7.152  0.00  0.00     0.002 A 
HETATM    4  C   UNK N   1      32.717  17.367   5.823  0.00  0.00     0.000 A 
HETATM    5  C   UNK N   1      31.229  17.037   5.719  0.00  0.00     0.002 A 
HETATM    6  C   UNK N   1      30.346  17.136   6.951  0.00  0.00     0.025 A 
ENDROOT
BRANCH   1   7
HETATM    7  N   UNK N   1      30.203  17.671   9.432  0.00  0.00    -0.364 N 
HETATM    8  H   UNK N   1      30.516  17.259  10.269  0.00  0.00     0.162 HD
BRANCH   7   9
HETATM    9  C   UNK N   1      29.020  18.322   9.417  0.00  0.00     0.348 C 
HETATM   10  O   UNK N   1      27.982  17.712   9.616  0.00  0.00    -0.284 OA
ENDBRANCH   7   9
ENDBRANCH   1   7
TORSDOF 2
ENDMDL
