MODEL 1
REMARK VINA RESULT:      -4.1      0.000      0.000
REMARK  5 active torsions:
REMARK  status: ('A' for Active; 'I' for Inactive)
REMARK    1  A    between atoms: C_2  and  O_3 
REMARK    2  A    between atoms: C_2  and  C_4 
REMARK    3  A    between atoms: C_4  and  N_5 
REMARK    4  A    between atoms: C_4  and  C_6 
REMARK    5  A    between atoms: C_6  and  O_7 
ROOT
HETATM    1  C   UNK N   1      20.226  19.359   2.039  0.00  0.00     0.202 C 
ENDROOT
BRANCH   1   2
HETATM    2  C   UNK N   1      21.005  19.037   3.319  0.00  0.00     0.146 C 
HETATM    3  C   UNK N   1      20.593  17.681   3.867  0.00  0.00     0.042 C 
BRANCH   2   4
HETATM    4  O   UNK N   1      20.745  20.000   4.295  0.00  0.00    -0.393 OA
HETATM    5  H   UNK N   1      20.629  20.935   4.061  0.00  0.00     0.210 HD
ENDBRANCH   2   4
ENDBRANCH   1   2
BRANCH   1   6
HETATM    6  N   UNK N   1      20.117  18.167   1.209  0.00  0.00    -0.416 N 
HETATM    7  H   UNK N   1      19.297  18.016   0.619  0.00  0.00     0.150 HD
HETATM    8  H   UNK N   1      20.867  17.476   1.217  0.00  0.00     0.150 HD
ENDBRANCH   1   6
BRANCH   1   9
HETATM    9  C   UNK N   1      20.860  20.478   1.247  0.00  0.00     0.165 C 
HETATM   10  O   UNK N   1      21.546  21.314   1.810  0.00  0.00    -0.648 OA
BRANCH   9  11
HETATM   11  O   UNK N   1      20.642  20.585  -0.080  0.00  0.00    -0.775 OA
HETATM   12  H   UNK N   1      19.955  20.122  -0.518  0.00  0.00     0.167 HD
ENDBRANCH   9  11
ENDBRANCH   1   9
TORSDOF 5
ENDMDL
MODEL 2
REMARK VINA RESULT:      -4.0     15.025     15.576
REMARK  5 active torsions:
REMARK  status: ('A' for Active; 'I' for Inactive)
REMARK    1  A    between atoms: C_2  and  O_3 
REMARK    2  A    between atoms: C_2  and  C_4 
REMARK    3  A    between atoms: C_4  and  N_5 
REMARK    4  A    between atoms: C_4  and  C_6 
REMARK    5  A    between atoms: C_6  and  O_7 
ROOT
HETATM    1  C   UNK N   1      33.927  17.205   8.935  0.00  0.00     0.202 C 
ENDROOT
BRANCH   1   2
HETATM    2  C   UNK N   1      34.986  16.416   9.712  0.00  0.00     0.146 C 
HETATM    3  C   UNK N   1      34.332  15.345  10.568  0.00  0.00     0.042 C 
BRANCH   2   4
HETATM    4  O   UNK N   1      35.701  17.271  10.554  0.00  0.00    -0.393 OA
HETATM    5  H   UNK N   1      35.648  18.235  10.454  0.00  0.00     0.210 HD
ENDBRANCH   2   4
ENDBRANCH   1   2
BRANCH   1   6
HETATM    6  N   UNK N   1      33.092  16.293   8.164  0.00  0.00    -0.416 N 
HETATM    7  H   UNK N   1      32.921  16.457   7.171  0.00  0.00     0.150 HD
HETATM    8  H   UNK N   1      32.675  15.484   8.622  0.00  0.00     0.150 HD
ENDBRANCH   1   6
BRANCH   1   9
HETATM    9  C   UNK N   1      34.538  18.239   8.019  0.00  0.00     0.165 C 
HETATM   10  O   UNK N   1      34.392  18.151   6.812  0.00  0.00    -0.648 OA
BRANCH   9  11
HETATM   11  O   UNK N   1      35.282  19.245   8.524  0.00  0.00    -0.775 OA
HETATM   12  H   UNK N   1      35.730  19.863   7.981  0.00  0.00     0.167 HD
ENDBRANCH   9  11
ENDBRANCH   1   9
TORSDOF 5
ENDMDL
MODEL 3
REMARK VINA RESULT:      -4.0     14.251     14.792
REMARK  5 active torsions:
REMARK  status: ('A' for Active; 'I' for Inactive)
REMARK    1  A    between atoms: C_2  and  O_3 
REMARK    2  A    between atoms: C_2  and  C_4 
REMARK    3  A    between atoms: C_4  and  N_5 
REMARK    4  A    between atoms: C_4  and  C_6 
REMARK    5  A    between atoms: C_6  and  O_7 
ROOT
HETATM    1  C   UNK N   1      34.297  16.966   8.896  0.00  0.00     0.202 C 
ENDROOT
BRANCH   1   2
HETATM    2  C   UNK N   1      32.795  16.685   9.013  0.00  0.00     0.146 C 
HETATM    3  C   UNK N   1      32.375  15.610   8.024  0.00  0.00     0.042 C 
BRANCH   2   4
HETATM    4  O   UNK N   1      32.066  17.843   8.735  0.00  0.00    -0.393 OA
HETATM    5  H   UNK N   1      31.100  17.821   8.651  0.00  0.00     0.210 HD
ENDBRANCH   2   4
ENDBRANCH   1   2
BRANCH   1   6
HETATM    6  N   UNK N   1      34.866  17.191  10.218  0.00  0.00    -0.416 N 
HETATM    7  H   UNK N   1      35.462  17.999  10.399  0.00  0.00     0.150 HD
HETATM    8  H   UNK N   1      34.667  16.533  10.971  0.00  0.00     0.150 HD
ENDBRANCH   1   6
BRANCH   1   9
HETATM    9  C   UNK N   1      34.592  18.148   8.004  0.00  0.00     0.165 C 
HETATM   10  O   UNK N   1      35.010  19.188   8.483  0.00  0.00    -0.648 OA
BRANCH   9  11
HETATM   11  O   UNK N   1      34.360  18.077   6.677  0.00  0.00    -0.775 OA
HETATM   12  H   UNK N   1      34.219  18.838   6.148  0.00  0.00     0.167 HD
ENDBRANCH   9  11
ENDBRANCH   1   9
TORSDOF 5
ENDMDL
MODEL 4
REMARK VINA RESULT:      -3.9     10.300     12.021
REMARK  5 active torsions:
REMARK  status: ('A' for Active; 'I' for Inactive)
REMARK    1  A    between atoms: C_2  and  O_3 
REMARK    2  A    between atoms: C_2  and  C_4 
REMARK    3  A    between atoms: C_4  and  N_5 
REMARK    4  A    between atoms: C_4  and  C_6 
REMARK    5  A    between atoms: C_6  and  O_7 
ROOT
HETATM    1  C   UNK N   1      22.608  11.988  11.121  0.00  0.00     0.202 C 
ENDROOT
BRANCH   1   2
HETATM    2  C   UNK N   1      22.491  13.225  10.225  0.00  0.00     0.146 C 
HETATM    3  C   UNK N   1      21.069  13.380   9.713  0.00  0.00     0.042 C 
BRANCH   2   4
HETATM    4  O   UNK N   1      23.341  13.103   9.124  0.00  0.00    -0.393 OA
HETATM    5  H   UNK N   1      23.987  13.794   8.908  0.00  0.00     0.210 HD
ENDBRANCH   2   4
ENDBRANCH   1   2
BRANCH   1   6
HETATM    6  N   UNK N   1      21.371  11.792  11.865  0.00  0.00    -0.416 N 
HETATM    7  H   UNK N   1      21.294  11.052  12.563  0.00  0.00     0.150 HD
HETATM    8  H   UNK N   1      20.574  12.402  11.686  0.00  0.00     0.150 HD
ENDBRANCH   1   6
BRANCH   1   9
HETATM    9  C   UNK N   1      23.772  12.080  12.078  0.00  0.00     0.165 C 
HETATM   10  O   UNK N   1      23.586  11.988  13.280  0.00  0.00    -0.648 OA
BRANCH   9  11
HETATM   11  O   UNK N   1      25.020  12.304  11.617  0.00  0.00    -0.775 OA
HETATM   12  H   UNK N   1      25.241  13.055  11.102  0.00  0.00     0.167 HD
ENDBRANCH   9  11
ENDBRANCH   1   9
TORSDOF 5
ENDMDL
MODEL 5
REMARK VINA RESULT:      -3.9     14.148     14.733
REMARK  5 active torsions:
REMARK  status: ('A' for Active; 'I' for Inactive)
REMARK    1  A    between atoms: C_2  and  O_3 
REMARK    2  A    between atoms: C_2  and  C_4 
REMARK    3  A    between atoms: C_4  and  N_5 
REMARK    4  A    between atoms: C_4  and  C_6 
REMARK    5  A    between atoms: C_6  and  O_7 
ROOT
HETATM    1  C   UNK N   1      34.102  16.880   8.666  0.00  0.00     0.202 C 
ENDROOT
BRANCH   1   2
HETATM    2  C   UNK N   1      32.606  16.573   8.539  0.00  0.00     0.146 C 
HETATM    3  C   UNK N   1      31.795  17.858   8.554  0.00  0.00     0.042 C 
BRANCH   2   4
HETATM    4  O   UNK N   1      32.186  15.779   9.608  0.00  0.00    -0.393 OA
HETATM    5  H   UNK N   1      32.782  15.133  10.019  0.00  0.00     0.210 HD
ENDBRANCH   2   4
ENDBRANCH   1   2
BRANCH   1   6
HETATM    6  N   UNK N   1      34.447  17.109  10.063  0.00  0.00    -0.416 N 
HETATM    7  H   UNK N   1      33.888  16.698  10.812  0.00  0.00     0.150 HD
HETATM    8  H   UNK N   1      35.255  17.685  10.295  0.00  0.00     0.150 HD
ENDBRANCH   1   6
BRANCH   1   9
HETATM    9  C   UNK N   1      34.517  18.070   7.835  0.00  0.00     0.165 C 
HETATM   10  O   UNK N   1      34.417  18.034   6.620  0.00  0.00    -0.648 OA
BRANCH   9  11
HETATM   11  O   UNK N   1      35.037  19.167   8.424  0.00  0.00    -0.775 OA
HETATM   12  H   UNK N   1      34.517  19.769   8.919  0.00  0.00     0.167 HD
ENDBRANCH   9  11
ENDBRANCH   1   9
TORSDOF 5
ENDMDL
MODEL 6
REMARK VINA RESULT:      -3.6     23.131     23.434
REMARK  5 active torsions:
REMARK  status: ('A' for Active; 'I' for Inactive)
REMARK    1  A    between atoms: C_2  and  O_3 
REMARK    2  A    between atoms: C_2  and  C_4 
REMARK    3  A    between atoms: C_4  and  N_5 
REMARK    4  A    between atoms: C_4  and  C_6 
REMARK    5  A    between atoms: C_6  and  O_7 
ROOT
HETATM    1  C   UNK N   1      44.602  22.099   3.196  0.00  0.00     0.202 C 
ENDROOT
BRANCH   1   2
HETATM    2  C   UNK N   1      43.943  20.733   3.414  0.00  0.00     0.146 C 
HETATM    3  C   UNK N   1      43.994  19.906   2.140  0.00  0.00     0.042 C 
BRANCH   2   4
HETATM    4  O   UNK N   1      42.604  20.897   3.774  0.00  0.00    -0.393 OA
HETATM    5  H   UNK N   1      41.892  20.806   3.121  0.00  0.00     0.210 HD
ENDBRANCH   2   4
ENDBRANCH   1   2
BRANCH   1   6
HETATM    6  N   UNK N   1      45.688  22.286   4.148  0.00  0.00    -0.416 N 
HETATM    7  H   UNK N   1      45.749  21.709   4.988  0.00  0.00     0.150 HD
HETATM    8  H   UNK N   1      46.394  23.000   3.974  0.00  0.00     0.150 HD
ENDBRANCH   1   6
BRANCH   1   9
HETATM    9  C   UNK N   1      43.616  23.237   3.313  0.00  0.00     0.165 C 
HETATM   10  O   UNK N   1      42.940  23.563   2.353  0.00  0.00    -0.648 OA
BRANCH   9  11
HETATM   11  O   UNK N   1      43.504  23.927   4.467  0.00  0.00    -0.775 OA
HETATM   12  H   UNK N   1      43.267  23.521   5.277  0.00  0.00     0.167 HD
ENDBRANCH   9  11
ENDBRANCH   1   9
TORSDOF 5
ENDMDL
MODEL 7
REMARK VINA RESULT:      -3.6     14.410     15.068
REMARK  5 active torsions:
REMARK  status: ('A' for Active; 'I' for Inactive)
REMARK    1  A    between atoms: C_2  and  O_3 
REMARK    2  A    between atoms: C_2  and  C_4 
REMARK    3  A    between atoms: C_4  and  N_5 
REMARK    4  A    between atoms: C_4  and  C_6 
REMARK    5  A    between atoms: C_6  and  O_7 
ROOT
HETATM    1  C   UNK N   1      33.533  17.232   8.262  0.00  0.00     0.202 C 
ENDROOT
BRANCH   1   2
HETATM    2  C   UNK N   1      33.787  16.773   6.822  0.00  0.00     0.146 C 
HETATM    3  C   UNK N   1      34.864  15.702   6.787  0.00  0.00     0.042 C 
BRANCH   2   4
HETATM    4  O   UNK N   1      34.216  17.849   6.044  0.00  0.00    -0.393 OA
HETATM    5  H   UNK N   1      35.014  18.351   6.275  0.00  0.00     0.210 HD
ENDBRANCH   2   4
ENDBRANCH   1   2
BRANCH   1   6
HETATM    6  N   UNK N   1      32.320  18.037   8.322  0.00  0.00    -0.416 N 
HETATM    7  H   UNK N   1      31.842  18.323   7.466  0.00  0.00     0.150 HD
HETATM    8  H   UNK N   1      31.946  18.318   9.227  0.00  0.00     0.150 HD
ENDBRANCH   1   6
BRANCH   1   9
HETATM    9  C   UNK N   1      34.694  18.012   8.830  0.00  0.00     0.165 C 
HETATM   10  O   UNK N   1      35.026  19.071   8.325  0.00  0.00    -0.648 OA
BRANCH   9  11
HETATM   11  O   UNK N   1      35.399  17.527   9.874  0.00  0.00    -0.775 OA
HETATM   12  H   UNK N   1      36.161  17.955  10.211  0.00  0.00     0.167 HD
ENDBRANCH   9  11
ENDBRANCH   1   9
TORSDOF 5
ENDMDL
MODEL 8
REMARK VINA RESULT:      -3.6     16.112     16.913
REMARK  5 active torsions:
REMARK  status: ('A' for Active; 'I' for Inactive)
REMARK    1  A    between atoms: C_2  and  O_3 
REMARK    2  A    between atoms: C_2  and  C_4 
REMARK    3  A    between atoms: C_4  and  N_5 
REMARK    4  A    between atoms: C_4  and  C_6 
REMARK    5  A    between atoms: C_6  and  O_7 
ROOT
HETATM    1  C   UNK N   1      35.114  15.300   9.454  0.00  0.00     0.202 C 
ENDROOT
BRANCH   1   2
HETATM    2  C   UNK N   1      33.817  14.668   9.970  0.00  0.00     0.146 C 
HETATM    3  C   UNK N   1      32.618  15.222   9.219  0.00  0.00     0.042 C 
BRANCH   2   4
HETATM    4  O   UNK N   1      33.651  14.952  11.327  0.00  0.00    -0.393 OA
HETATM    5  H   UNK N   1      32.767  15.059  11.714  0.00  0.00     0.210 HD
ENDBRANCH   2   4
ENDBRANCH   1   2
BRANCH   1   6
HETATM    6  N   UNK N   1      36.070  14.258   9.103  0.00  0.00    -0.416 N 
HETATM    7  H   UNK N   1      35.961  13.719   8.244  0.00  0.00     0.150 HD
HETATM    8  H   UNK N   1      36.857  14.066   9.723  0.00  0.00     0.150 HD
ENDBRANCH   1   6
BRANCH   1   9
HETATM    9  C   UNK N   1      35.731  16.245  10.457  0.00  0.00     0.165 C 
HETATM   10  O   UNK N   1      35.132  17.249  10.801  0.00  0.00    -0.648 OA
BRANCH   9  11
HETATM   11  O   UNK N   1      36.964  16.008  10.951  0.00  0.00    -0.775 OA
HETATM   12  H   UNK N   1      37.683  15.749  10.410  0.00  0.00     0.167 HD
ENDBRANCH   9  11
ENDBRANCH   1   9
TORSDOF 5
ENDMDL
MODEL 9
REMARK VINA RESULT:      -3.6     11.323     12.109
REMARK  5 active torsions:
REMARK  status: ('A' for Active; 'I' for Inactive)
REMARK    1  A    between atoms: C_2  and  O_3 
REMARK    2  A    between atoms: C_2  and  C_4 
REMARK    3  A    between atoms: C_4  and  N_5 
REMARK    4  A    between atoms: C_4  and  C_6 
REMARK    5  A    between atoms: C_6  and  O_7 
ROOT
HETATM    1  C   UNK N   1      30.759  21.581  -3.230  0.00  0.00     0.202 C 
ENDROOT
BRANCH   1   2
HETATM    2  C   UNK N   1      32.290  21.512  -3.235  0.00  0.00     0.146 C 
HETATM    3  C   UNK N   1      32.774  20.465  -4.225  0.00  0.00     0.042 C 
BRANCH   2   4
HETATM    4  O   UNK N   1      32.760  21.164  -1.967  0.00  0.00    -0.393 OA
HETATM    5  H   UNK N   1      33.037  20.257  -1.765  0.00  0.00     0.210 HD
ENDBRANCH   2   4
ENDBRANCH   1   2
BRANCH   1   6
HETATM    6  N   UNK N   1      30.253  21.515  -4.595  0.00  0.00    -0.416 N 
HETATM    7  H   UNK N   1      30.813  21.097  -5.339  0.00  0.00     0.150 HD
HETATM    8  H   UNK N   1      29.330  21.892  -4.809  0.00  0.00     0.150 HD
ENDBRANCH   1   6
BRANCH   1   9
HETATM    9  C   UNK N   1      30.243  22.827  -2.552  0.00  0.00     0.165 C 
HETATM   10  O   UNK N   1      30.462  23.015  -1.367  0.00  0.00    -0.648 OA
BRANCH   9  11
HETATM   11  O   UNK N   1      29.502  23.722  -3.238  0.00  0.00    -0.775 OA
HETATM   12  H   UNK N   1      29.884  24.391  -3.770  0.00  0.00     0.167 HD
ENDBRANCH   9  11
ENDBRANCH   1   9
TORSDOF 5
ENDMDL
