MODEL 1
REMARK VINA RESULT:      -6.1      0.000      0.000
REMARK  13 active torsions:
REMARK  status: ('A' for Active; 'I' for Inactive)
REMARK    1  A    between atoms: C_5  and  C_2 
REMARK    2  A    between atoms: O_17  and  C_2 
REMARK    3  A    between atoms: C_6  and  C_3 
REMARK    4  A    between atoms: O_18  and  C_3 
REMARK    5  A    between atoms: O_19  and  C_4 
REMARK    6  A    between atoms: C_7  and  N_15 
REMARK    7  A    between atoms: C_8  and  O_20 
REMARK    8  A    between atoms: C_9  and  O_21 
REMARK    9  A    between atoms: C_10  and  O_22 
REMARK   10  A    between atoms: C_11  and  O_23 
REMARK   11  A    between atoms: C_12  and  O_27 
REMARK   12  A    between atoms: C_13  and  O_24 
REMARK   13  A    between atoms: C_14  and  O_27 
ROOT
HETATM    1  C   UNK N   1      22.368  20.148   2.731  0.00  0.00     0.179 C 
HETATM    2  C   UNK N   1      24.874  19.749   4.030  0.00  0.00     0.169 C 
HETATM    3  C   UNK N   1      24.046  18.547   3.597  0.00  0.00     0.177 C 
HETATM    4  C   UNK N   1      22.544  18.951   3.718  0.00  0.00     0.186 C 
HETATM    5  C   UNK N   1      24.576  20.929   3.095  0.00  0.00     0.282 C 
HETATM    6  O   UNK N   1      23.190  21.249   3.110  0.00  0.00    -0.349 OA
ENDROOT
BRANCH   4   7
HETATM    7  O   UNK N   1      21.612  17.913   3.405  0.00  0.00    -0.348 OA
BRANCH   7   8
HETATM    8  C   UNK N   1      21.257  17.084   4.512  0.00  0.00     0.292 C 
HETATM    9  C   UNK N   1      19.728  16.966   4.636  0.00  0.00     0.204 C 
HETATM   10  C   UNK N   1      19.437  15.911   5.722  0.00  0.00     0.183 C 
HETATM   11  C   UNK N   1      20.102  16.326   7.046  0.00  0.00     0.180 C 
HETATM   12  C   UNK N   1      21.595  16.641   6.816  0.00  0.00     0.179 C 
HETATM   13  O   UNK N   1      21.762  17.581   5.755  0.00  0.00    -0.348 OA
BRANCH   9  14
HETATM   14  O   UNK N   1      19.168  16.565   3.421  0.00  0.00    -0.388 OA
HETATM   15  H   UNK N   1      19.401  16.640   2.482  0.00  0.00     0.210 HD
ENDBRANCH   9  14
BRANCH  10  16
HETATM   16  O   UNK N   1      18.061  15.756   5.902  0.00  0.00    -0.390 OA
HETATM   17  H   UNK N   1      17.482  16.533   5.956  0.00  0.00     0.210 HD
ENDBRANCH  10  16
BRANCH  11  18
HETATM   18  O   UNK N   1      19.472  17.470   7.544  0.00  0.00    -0.390 OA
HETATM   19  H   UNK N   1      19.305  18.412   7.706  0.00  0.00     0.210 HD
ENDBRANCH  11  18
BRANCH  12  20
HETATM   20  C   UNK N   1      22.447  15.378   6.616  0.00  0.00     0.198 C 
BRANCH  20  21
HETATM   21  O   UNK N   1      23.808  15.688   6.618  0.00  0.00    -0.398 OA
HETATM   22  H   UNK N   1      24.194  16.177   7.362  0.00  0.00     0.209 HD
ENDBRANCH  20  21
ENDBRANCH  12  20
ENDBRANCH   7   8
ENDBRANCH   4   7
BRANCH   1  23
HETATM   23  C   UNK N   1      20.929  20.658   2.701  0.00  0.00     0.198 C 
BRANCH  23  24
HETATM   24  O   UNK N   1      20.337  20.561   3.963  0.00  0.00    -0.398 OA
HETATM   25  H   UNK N   1      19.531  21.009   4.262  0.00  0.00     0.209 HD
ENDBRANCH  23  24
ENDBRANCH   1  23
BRANCH   3  26
HETATM   26  O   UNK N   1      24.401  17.493   4.426  0.00  0.00    -0.391 OA
HETATM   27  H   UNK N   1      24.885  17.664   5.248  0.00  0.00     0.210 HD
ENDBRANCH   3  26
BRANCH   2  28
HETATM   28  N   UNK N   1      26.283  19.393   4.053  0.00  0.00    -0.363 N 
HETATM   29  C   UNK N   1      27.001  19.430   5.120  0.00  0.00     0.107 C 
HETATM   30  C   UNK N   1      28.421  18.987   5.066  0.00  0.00     0.097 C 
ATOM     31  HN  UNK N   1      26.724  19.098   3.182  1.00  0.00     0.162 HD
BRANCH  29  32
HETATM   32  O   UNK N   1      26.478  19.829   6.300  0.00  0.00    -0.350 OA
HETATM   33  H   UNK N   1      26.420  20.290   7.114  0.00  0.00     0.219 HD
ENDBRANCH  29  32
ENDBRANCH   2  28
BRANCH   5  34
HETATM   34  O   UNK N   1      25.013  20.672   1.790  0.00  0.00    -0.369 OA
HETATM   35  H   UNK N   1      25.241  20.192   0.979  0.00  0.00     0.212 HD
ENDBRANCH   5  34
TORSDOF 13
ENDMDL
MODEL 2
REMARK VINA RESULT:      -5.9      9.873     12.990
REMARK  13 active torsions:
REMARK  status: ('A' for Active; 'I' for Inactive)
REMARK    1  A    between atoms: C_5  and  C_2 
REMARK    2  A    between atoms: O_17  and  C_2 
REMARK    3  A    between atoms: C_6  and  C_3 
REMARK    4  A    between atoms: O_18  and  C_3 
REMARK    5  A    between atoms: O_19  and  C_4 
REMARK    6  A    between atoms: C_7  and  N_15 
REMARK    7  A    between atoms: C_8  and  O_20 
REMARK    8  A    between atoms: C_9  and  O_21 
REMARK    9  A    between atoms: C_10  and  O_22 
REMARK   10  A    between atoms: C_11  and  O_23 
REMARK   11  A    between atoms: C_12  and  O_27 
REMARK   12  A    between atoms: C_13  and  O_24 
REMARK   13  A    between atoms: C_14  and  O_27 
ROOT
HETATM    1  C   UNK N   1      31.713  15.935   7.855  0.00  0.00     0.179 C 
HETATM    2  C   UNK N   1      33.068  15.573   5.374  0.00  0.00     0.169 C 
HETATM    3  C   UNK N   1      33.855  15.551   6.676  0.00  0.00     0.177 C 
HETATM    4  C   UNK N   1      33.145  16.527   7.665  0.00  0.00     0.186 C 
HETATM    5  C   UNK N   1      31.637  15.090   5.642  0.00  0.00     0.282 C 
HETATM    6  O   UNK N   1      31.002  15.904   6.620  0.00  0.00    -0.349 OA
ENDROOT
BRANCH   4   7
HETATM    7  O   UNK N   1      33.788  16.679   8.932  0.00  0.00    -0.348 OA
BRANCH   7   8
HETATM    8  C   UNK N   1      34.496  15.522   9.378  0.00  0.00     0.292 C 
HETATM    9  C   UNK N   1      34.111  15.172  10.826  0.00  0.00     0.204 C 
HETATM   10  C   UNK N   1      34.765  13.816  11.158  0.00  0.00     0.183 C 
HETATM   11  C   UNK N   1      36.288  13.908  10.964  0.00  0.00     0.180 C 
HETATM   12  C   UNK N   1      36.613  14.471   9.564  0.00  0.00     0.179 C 
HETATM   13  O   UNK N   1      35.916  15.695   9.331  0.00  0.00    -0.348 OA
BRANCH   9  14
HETATM   14  O   UNK N   1      32.723  15.074  10.952  0.00  0.00    -0.388 OA
HETATM   15  H   UNK N   1      32.102  14.595  11.523  0.00  0.00     0.210 HD
ENDBRANCH   9  14
BRANCH  10  16
HETATM   16  O   UNK N   1      34.469  13.434  12.468  0.00  0.00    -0.390 OA
HETATM   17  H   UNK N   1      34.386  14.101  13.168  0.00  0.00     0.210 HD
ENDBRANCH  10  16
BRANCH  11  18
HETATM   18  O   UNK N   1      36.830  14.762  11.929  0.00  0.00    -0.390 OA
HETATM   19  H   UNK N   1      36.871  15.318  12.723  0.00  0.00     0.210 HD
ENDBRANCH  11  18
BRANCH  12  20
HETATM   20  C   UNK N   1      36.386  13.448   8.442  0.00  0.00     0.198 C 
BRANCH  20  21
HETATM   21  O   UNK N   1      37.081  13.810   7.287  0.00  0.00    -0.398 OA
HETATM   22  H   UNK N   1      37.131  14.742   7.022  0.00  0.00     0.209 HD
ENDBRANCH  20  21
ENDBRANCH  12  20
ENDBRANCH   7   8
ENDBRANCH   4   7
BRANCH   1  23
HETATM   23  C   UNK N   1      30.877  16.762   8.829  0.00  0.00     0.198 C 
BRANCH  23  24
HETATM   24  O   UNK N   1      31.423  18.036   9.001  0.00  0.00    -0.398 OA
HETATM   25  H   UNK N   1      32.363  18.259   9.081  0.00  0.00     0.209 HD
ENDBRANCH  23  24
ENDBRANCH   1  23
BRANCH   3  26
HETATM   26  O   UNK N   1      35.155  15.929   6.369  0.00  0.00    -0.391 OA
HETATM   27  H   UNK N   1      35.850  15.865   7.042  0.00  0.00     0.210 HD
ENDBRANCH   3  26
BRANCH   2  28
HETATM   28  N   UNK N   1      33.753  14.773   4.372  0.00  0.00    -0.363 N 
HETATM   29  C   UNK N   1      33.729  15.047   3.115  0.00  0.00     0.107 C 
HETATM   30  C   UNK N   1      34.512  14.210   2.165  0.00  0.00     0.097 C 
ATOM     31  HN  UNK N   1      34.279  13.955   4.680  1.00  0.00     0.162 HD
BRANCH  29  32
HETATM   32  O   UNK N   1      33.037  16.107   2.645  0.00  0.00    -0.350 OA
HETATM   33  H   UNK N   1      32.346  16.573   2.215  0.00  0.00     0.219 HD
ENDBRANCH  29  32
ENDBRANCH   2  28
BRANCH   5  34
HETATM   34  O   UNK N   1      31.614  13.743   6.027  0.00  0.00    -0.369 OA
HETATM   35  H   UNK N   1      31.675  12.947   6.577  0.00  0.00     0.212 HD
ENDBRANCH   5  34
TORSDOF 13
ENDMDL
MODEL 3
REMARK VINA RESULT:      -5.9      2.048      3.335
REMARK  13 active torsions:
REMARK  status: ('A' for Active; 'I' for Inactive)
REMARK    1  A    between atoms: C_5  and  C_2 
REMARK    2  A    between atoms: O_17  and  C_2 
REMARK    3  A    between atoms: C_6  and  C_3 
REMARK    4  A    between atoms: O_18  and  C_3 
REMARK    5  A    between atoms: O_19  and  C_4 
REMARK    6  A    between atoms: C_7  and  N_15 
REMARK    7  A    between atoms: C_8  and  O_20 
REMARK    8  A    between atoms: C_9  and  O_21 
REMARK    9  A    between atoms: C_10  and  O_22 
REMARK   10  A    between atoms: C_11  and  O_23 
REMARK   11  A    between atoms: C_12  and  O_27 
REMARK   12  A    between atoms: C_13  and  O_24 
REMARK   13  A    between atoms: C_14  and  O_27 
ROOT
HETATM    1  C   UNK N   1      25.920  19.718   3.440  0.00  0.00     0.179 C 
HETATM    2  C   UNK N   1      27.147  19.038   5.922  0.00  0.00     0.169 C 
HETATM    3  C   UNK N   1      26.469  17.957   5.091  0.00  0.00     0.177 C 
HETATM    4  C   UNK N   1      25.272  18.625   4.348  0.00  0.00     0.186 C 
HETATM    5  C   UNK N   1      27.664  20.140   4.988  0.00  0.00     0.282 C 
HETATM    6  O   UNK N   1      26.602  20.695   4.222  0.00  0.00    -0.349 OA
ENDROOT
BRANCH   4   7
HETATM    7  O   UNK N   1      24.478  17.736   3.559  0.00  0.00    -0.348 OA
BRANCH   7   8
HETATM    8  C   UNK N   1      23.213  17.405   4.133  0.00  0.00     0.292 C 
HETATM    9  C   UNK N   1      22.501  16.326   3.299  0.00  0.00     0.204 C 
HETATM   10  C   UNK N   1      21.248  15.893   4.085  0.00  0.00     0.183 C 
HETATM   11  C   UNK N   1      20.350  17.113   4.352  0.00  0.00     0.180 C 
HETATM   12  C   UNK N   1      21.172  18.249   4.997  0.00  0.00     0.179 C 
HETATM   13  O   UNK N   1      22.340  18.535   4.227  0.00  0.00    -0.348 OA
BRANCH   9  14
HETATM   14  O   UNK N   1      23.341  15.228   3.101  0.00  0.00    -0.388 OA
HETATM   15  H   UNK N   1      23.469  14.359   3.512  0.00  0.00     0.210 HD
ENDBRANCH   9  14
BRANCH  10  16
HETATM   16  O   UNK N   1      20.538  14.918   3.382  0.00  0.00    -0.390 OA
HETATM   17  H   UNK N   1      19.736  15.153   2.889  0.00  0.00     0.210 HD
ENDBRANCH  10  16
BRANCH  11  18
HETATM   18  O   UNK N   1      19.818  17.573   3.143  0.00  0.00    -0.390 OA
HETATM   19  H   UNK N   1      19.361  18.162   2.523  0.00  0.00     0.210 HD
ENDBRANCH  11  18
BRANCH  12  20
HETATM   20  C   UNK N   1      21.499  17.984   6.474  0.00  0.00     0.198 C 
BRANCH  20  21
HETATM   21  O   UNK N   1      20.830  18.885   7.303  0.00  0.00    -0.398 OA
HETATM   22  H   UNK N   1      21.322  19.589   7.755  0.00  0.00     0.209 HD
ENDBRANCH  20  21
ENDBRANCH  12  20
ENDBRANCH   7   8
ENDBRANCH   4   7
BRANCH   1  23
HETATM   23  C   UNK N   1      24.878  20.462   2.609  0.00  0.00     0.198 C 
BRANCH  23  24
HETATM   24  O   UNK N   1      23.750  20.765   3.374  0.00  0.00    -0.398 OA
HETATM   25  H   UNK N   1      23.734  21.220   4.230  0.00  0.00     0.209 HD
ENDBRANCH  23  24
ENDBRANCH   1  23
BRANCH   3  26
HETATM   26  O   UNK N   1      26.082  16.956   5.970  0.00  0.00    -0.391 OA
HETATM   27  H   UNK N   1      25.767  17.185   6.858  0.00  0.00     0.210 HD
ENDBRANCH   3  26
BRANCH   2  28
HETATM   28  N   UNK N   1      28.199  18.448   6.733  0.00  0.00    -0.363 N 
HETATM   29  C   UNK N   1      28.245  18.556   8.014  0.00  0.00     0.107 C 
HETATM   30  C   UNK N   1      29.326  17.865   8.771  0.00  0.00     0.097 C 
ATOM     31  HN  UNK N   1      28.937  17.922   6.263  1.00  0.00     0.162 HD
BRANCH  29  32
HETATM   32  O   UNK N   1      27.307  19.254   8.690  0.00  0.00    -0.350 OA
HETATM   33  H   UNK N   1      26.883  19.658   9.422  0.00  0.00     0.219 HD
ENDBRANCH  29  32
ENDBRANCH   2  28
BRANCH   5  34
HETATM   34  O   UNK N   1      28.685  19.668   4.154  0.00  0.00    -0.369 OA
HETATM   35  H   UNK N   1      29.207  19.075   3.593  0.00  0.00     0.212 HD
ENDBRANCH   5  34
TORSDOF 13
ENDMDL
MODEL 4
REMARK VINA RESULT:      -5.9      9.145     12.872
REMARK  13 active torsions:
REMARK  status: ('A' for Active; 'I' for Inactive)
REMARK    1  A    between atoms: C_5  and  C_2 
REMARK    2  A    between atoms: O_17  and  C_2 
REMARK    3  A    between atoms: C_6  and  C_3 
REMARK    4  A    between atoms: O_18  and  C_3 
REMARK    5  A    between atoms: O_19  and  C_4 
REMARK    6  A    between atoms: C_7  and  N_15 
REMARK    7  A    between atoms: C_8  and  O_20 
REMARK    8  A    between atoms: C_9  and  O_21 
REMARK    9  A    between atoms: C_10  and  O_22 
REMARK   10  A    between atoms: C_11  and  O_23 
REMARK   11  A    between atoms: C_12  and  O_27 
REMARK   12  A    between atoms: C_13  and  O_24 
REMARK   13  A    between atoms: C_14  and  O_27 
ROOT
HETATM    1  C   UNK N   1      34.924  17.387   8.671  0.00  0.00     0.179 C 
HETATM    2  C   UNK N   1      35.017  14.774   9.809  0.00  0.00     0.169 C 
HETATM    3  C   UNK N   1      35.362  14.973   8.339  0.00  0.00     0.177 C 
HETATM    4  C   UNK N   1      34.491  16.155   7.814  0.00  0.00     0.186 C 
HETATM    5  C   UNK N   1      35.358  16.054  10.583  0.00  0.00     0.282 C 
HETATM    6  O   UNK N   1      34.652  17.170  10.054  0.00  0.00    -0.349 OA
ENDROOT
BRANCH   4   7
HETATM    7  O   UNK N   1      34.642  16.446   6.423  0.00  0.00    -0.348 OA
BRANCH   7   8
HETATM    8  C   UNK N   1      33.472  16.209   5.639  0.00  0.00     0.292 C 
HETATM    9  C   UNK N   1      33.829  15.482   4.332  0.00  0.00     0.204 C 
HETATM   10  C   UNK N   1      32.504  15.097   3.645  0.00  0.00     0.183 C 
HETATM   11  C   UNK N   1      31.656  16.357   3.400  0.00  0.00     0.180 C 
HETATM   12  C   UNK N   1      31.511  17.163   4.708  0.00  0.00     0.179 C 
HETATM   13  O   UNK N   1      32.787  17.418   5.296  0.00  0.00    -0.348 OA
BRANCH   9  14
HETATM   14  O   UNK N   1      34.577  14.333   4.601  0.00  0.00    -0.388 OA
HETATM   15  H   UNK N   1      34.607  13.421   4.270  0.00  0.00     0.210 HD
ENDBRANCH   9  14
BRANCH  10  16
HETATM   16  O   UNK N   1      32.747  14.438   2.438  0.00  0.00    -0.390 OA
HETATM   17  H   UNK N   1      32.045  13.924   2.008  0.00  0.00     0.210 HD
ENDBRANCH  10  16
BRANCH  11  18
HETATM   18  O   UNK N   1      32.283  17.161   2.444  0.00  0.00    -0.390 OA
HETATM   19  H   UNK N   1      32.504  17.521   1.571  0.00  0.00     0.210 HD
ENDBRANCH  11  18
BRANCH  12  20
HETATM   20  C   UNK N   1      30.530  16.519   5.700  0.00  0.00     0.198 C 
BRANCH  20  21
HETATM   21  O   UNK N   1      30.386  17.307   6.843  0.00  0.00    -0.398 OA
HETATM   22  H   UNK N   1      29.508  17.444   7.232  0.00  0.00     0.209 HD
ENDBRANCH  20  21
ENDBRANCH  12  20
ENDBRANCH   7   8
ENDBRANCH   4   7
BRANCH   1  23
HETATM   23  C   UNK N   1      34.181  18.656   8.266  0.00  0.00     0.198 C 
BRANCH  23  24
HETATM   24  O   UNK N   1      32.816  18.408   8.103  0.00  0.00    -0.398 OA
HETATM   25  H   UNK N   1      32.411  17.753   7.513  0.00  0.00     0.209 HD
ENDBRANCH  23  24
ENDBRANCH   1  23
BRANCH   3  26
HETATM   26  O   UNK N   1      35.101  13.770   7.698  0.00  0.00    -0.391 OA
HETATM   27  H   UNK N   1      35.118  12.940   8.198  0.00  0.00     0.210 HD
ENDBRANCH   3  26
BRANCH   2  28
HETATM   28  N   UNK N   1      35.711  13.605  10.323  0.00  0.00    -0.363 N 
HETATM   29  C   UNK N   1      35.349  12.984  11.390  0.00  0.00     0.107 C 
HETATM   30  C   UNK N   1      36.079  11.756  11.810  0.00  0.00     0.097 C 
ATOM     31  HN  UNK N   1      36.523  13.259   9.813  1.00  0.00     0.162 HD
BRANCH  29  32
HETATM   32  O   UNK N   1      34.291  13.405  12.118  0.00  0.00    -0.350 OA
HETATM   33  H   UNK N   1      33.792  13.959  12.685  0.00  0.00     0.219 HD
ENDBRANCH  29  32
ENDBRANCH   2  28
BRANCH   5  34
HETATM   34  O   UNK N   1      36.737  16.297  10.591  0.00  0.00    -0.369 OA
HETATM   35  H   UNK N   1      37.692  16.150  10.673  0.00  0.00     0.212 HD
ENDBRANCH   5  34
TORSDOF 13
ENDMDL
MODEL 5
REMARK VINA RESULT:      -5.7      3.448      5.650
REMARK  13 active torsions:
REMARK  status: ('A' for Active; 'I' for Inactive)
REMARK    1  A    between atoms: C_5  and  C_2 
REMARK    2  A    between atoms: O_17  and  C_2 
REMARK    3  A    between atoms: C_6  and  C_3 
REMARK    4  A    between atoms: O_18  and  C_3 
REMARK    5  A    between atoms: O_19  and  C_4 
REMARK    6  A    between atoms: C_7  and  N_15 
REMARK    7  A    between atoms: C_8  and  O_20 
REMARK    8  A    between atoms: C_9  and  O_21 
REMARK    9  A    between atoms: C_10  and  O_22 
REMARK   10  A    between atoms: C_11  and  O_23 
REMARK   11  A    between atoms: C_12  and  O_27 
REMARK   12  A    between atoms: C_13  and  O_24 
REMARK   13  A    between atoms: C_14  and  O_27 
ROOT
HETATM    1  C   UNK N   1      20.649  16.508   7.416  0.00  0.00     0.179 C 
HETATM    2  C   UNK N   1      23.010  16.586   5.819  0.00  0.00     0.169 C 
HETATM    3  C   UNK N   1      22.228  15.287   5.952  0.00  0.00     0.177 C 
HETATM    4  C   UNK N   1      21.597  15.268   7.378  0.00  0.00     0.186 C 
HETATM    5  C   UNK N   1      22.048  17.771   5.978  0.00  0.00     0.282 C 
HETATM    6  O   UNK N   1      21.381  17.718   7.233  0.00  0.00    -0.349 OA
ENDROOT
BRANCH   4   7
HETATM    7  O   UNK N   1      20.869  14.082   7.702  0.00  0.00    -0.348 OA
BRANCH   7   8
HETATM    8  C   UNK N   1      21.631  13.089   8.390  0.00  0.00     0.292 C 
HETATM    9  C   UNK N   1      21.320  13.111   9.897  0.00  0.00     0.204 C 
HETATM   10  C   UNK N   1      22.029  11.897  10.528  0.00  0.00     0.183 C 
HETATM   11  C   UNK N   1      23.539  11.964  10.241  0.00  0.00     0.180 C 
HETATM   12  C   UNK N   1      23.785  12.159   8.730  0.00  0.00     0.179 C 
HETATM   13  O   UNK N   1      23.041  13.270   8.230  0.00  0.00    -0.348 OA
BRANCH   9  14
HETATM   14  O   UNK N   1      19.943  13.024  10.113  0.00  0.00    -0.388 OA
HETATM   15  H   UNK N   1      19.342  12.417  10.573  0.00  0.00     0.210 HD
ENDBRANCH   9  14
BRANCH  10  16
HETATM   16  O   UNK N   1      21.803  11.854  11.905  0.00  0.00    -0.390 OA
HETATM   17  H   UNK N   1      20.929  11.614  12.253  0.00  0.00     0.210 HD
ENDBRANCH  10  16
BRANCH  11  18
HETATM   18  O   UNK N   1      24.096  13.045  10.931  0.00  0.00    -0.390 OA
HETATM   19  H   UNK N   1      24.167  13.934  11.312  0.00  0.00     0.210 HD
ENDBRANCH  11  18
BRANCH  12  20
HETATM   20  C   UNK N   1      23.540  10.880   7.916  0.00  0.00     0.198 C 
BRANCH  20  21
HETATM   21  O   UNK N   1      23.736  11.110   6.553  0.00  0.00    -0.398 OA
HETATM   22  H   UNK N   1      23.910  12.008   6.231  0.00  0.00     0.209 HD
ENDBRANCH  20  21
ENDBRANCH  12  20
ENDBRANCH   7   8
ENDBRANCH   4   7
BRANCH   1  23
HETATM   23  C   UNK N   1      19.918  16.629   8.751  0.00  0.00     0.198 C 
BRANCH  23  24
HETATM   24  O   UNK N   1      18.954  15.627   8.886  0.00  0.00    -0.398 OA
HETATM   25  H   UNK N   1      18.567  15.301   9.714  0.00  0.00     0.209 HD
ENDBRANCH  23  24
ENDBRANCH   1  23
BRANCH   3  26
HETATM   26  O   UNK N   1      23.125  14.251   5.734  0.00  0.00    -0.391 OA
HETATM   27  H   UNK N   1      24.079  14.425   5.749  0.00  0.00     0.210 HD
ENDBRANCH   3  26
BRANCH   2  28
HETATM   28  N   UNK N   1      23.721  16.605   4.552  0.00  0.00    -0.363 N 
HETATM   29  C   UNK N   1      24.925  17.039   4.427  0.00  0.00     0.107 C 
HETATM   30  C   UNK N   1      25.600  16.963   3.101  0.00  0.00     0.097 C 
ATOM     31  HN  UNK N   1      23.242  16.256   3.721  1.00  0.00     0.162 HD
BRANCH  29  32
HETATM   32  O   UNK N   1      25.604  17.529   5.486  0.00  0.00    -0.350 OA
HETATM   33  H   UNK N   1      26.258  17.569   6.157  0.00  0.00     0.219 HD
ENDBRANCH  29  32
ENDBRANCH   2  28
BRANCH   5  34
HETATM   34  O   UNK N   1      21.124  17.826   4.927  0.00  0.00    -0.369 OA
HETATM   35  H   UNK N   1      20.714  17.680   4.060  0.00  0.00     0.212 HD
ENDBRANCH   5  34
TORSDOF 13
ENDMDL
MODEL 6
REMARK VINA RESULT:      -5.7      5.996      9.571
REMARK  13 active torsions:
REMARK  status: ('A' for Active; 'I' for Inactive)
REMARK    1  A    between atoms: C_5  and  C_2 
REMARK    2  A    between atoms: O_17  and  C_2 
REMARK    3  A    between atoms: C_6  and  C_3 
REMARK    4  A    between atoms: O_18  and  C_3 
REMARK    5  A    between atoms: O_19  and  C_4 
REMARK    6  A    between atoms: C_7  and  N_15 
REMARK    7  A    between atoms: C_8  and  O_20 
REMARK    8  A    between atoms: C_9  and  O_21 
REMARK    9  A    between atoms: C_10  and  O_22 
REMARK   10  A    between atoms: C_11  and  O_23 
REMARK   11  A    between atoms: C_12  and  O_27 
REMARK   12  A    between atoms: C_13  and  O_24 
REMARK   13  A    between atoms: C_14  and  O_27 
ROOT
HETATM    1  C   UNK N   1      32.927  16.921   5.116  0.00  0.00     0.179 C 
HETATM    2  C   UNK N   1      33.759  16.301   7.771  0.00  0.00     0.169 C 
HETATM    3  C   UNK N   1      32.612  15.526   7.136  0.00  0.00     0.177 C 
HETATM    4  C   UNK N   1      31.863  16.506   6.181  0.00  0.00     0.186 C 
HETATM    5  C   UNK N   1      34.712  16.781   6.669  0.00  0.00     0.282 C 
HETATM    6  O   UNK N   1      34.026  17.595   5.725  0.00  0.00    -0.349 OA
ENDROOT
BRANCH   4   7
HETATM    7  O   UNK N   1      30.710  15.960   5.538  0.00  0.00    -0.348 OA
BRANCH   7   8
HETATM    8  C   UNK N   1      29.478  16.586   5.900  0.00  0.00     0.292 C 
HETATM    9  C   UNK N   1      28.661  16.949   4.648  0.00  0.00     0.204 C 
HETATM   10  C   UNK N   1      27.280  17.436   5.128  0.00  0.00     0.183 C 
HETATM   11  C   UNK N   1      27.450  18.631   6.083  0.00  0.00     0.180 C 
HETATM   12  C   UNK N   1      28.451  18.280   7.203  0.00  0.00     0.179 C 
HETATM   13  O   UNK N   1      29.674  17.783   6.659  0.00  0.00    -0.348 OA
BRANCH   9  14
HETATM   14  O   UNK N   1      28.511  15.832   3.823  0.00  0.00    -0.388 OA
HETATM   15  H   UNK N   1      27.778  15.263   3.538  0.00  0.00     0.210 HD
ENDBRANCH   9  14
BRANCH  10  16
HETATM   16  O   UNK N   1      26.480  17.798   4.043  0.00  0.00    -0.390 OA
HETATM   17  H   UNK N   1      26.671  18.604   3.538  0.00  0.00     0.210 HD
ENDBRANCH  10  16
BRANCH  11  18
HETATM   18  O   UNK N   1      27.940  19.730   5.370  0.00  0.00    -0.390 OA
HETATM   19  H   UNK N   1      28.035  20.651   5.083  0.00  0.00     0.210 HD
ENDBRANCH  11  18
BRANCH  12  20
HETATM   20  C   UNK N   1      27.857  17.335   8.259  0.00  0.00     0.198 C 
BRANCH  20  21
HETATM   21  O   UNK N   1      27.463  18.042   9.396  0.00  0.00    -0.398 OA
HETATM   22  H   UNK N   1      27.814  18.930   9.563  0.00  0.00     0.209 HD
ENDBRANCH  20  21
ENDBRANCH  12  20
ENDBRANCH   7   8
ENDBRANCH   4   7
BRANCH   1  23
HETATM   23  C   UNK N   1      32.348  17.871   4.070  0.00  0.00     0.198 C 
BRANCH  23  24
HETATM   24  O   UNK N   1      31.781  17.163   3.009  0.00  0.00    -0.398 OA
HETATM   25  H   UNK N   1      30.928  17.339   2.582  0.00  0.00     0.209 HD
ENDBRANCH  23  24
ENDBRANCH   1  23
BRANCH   3  26
HETATM   26  O   UNK N   1      31.819  15.056   8.173  0.00  0.00    -0.391 OA
HETATM   27  H   UNK N   1      30.853  15.116   8.111  0.00  0.00     0.210 HD
ENDBRANCH   3  26
BRANCH   2  28
HETATM   28  N   UNK N   1      34.420  15.471   8.765  0.00  0.00    -0.363 N 
HETATM   29  C   UNK N   1      34.817  15.920   9.903  0.00  0.00     0.107 C 
HETATM   30  C   UNK N   1      35.430  14.985  10.888  0.00  0.00     0.097 C 
ATOM     31  HN  UNK N   1      34.578  14.487   8.549  1.00  0.00     0.162 HD
BRANCH  29  32
HETATM   32  O   UNK N   1      34.652  17.217  10.239  0.00  0.00    -0.350 OA
HETATM   33  H   UNK N   1      34.263  17.968  10.644  0.00  0.00     0.219 HD
ENDBRANCH  29  32
ENDBRANCH   2  28
BRANCH   5  34
HETATM   34  O   UNK N   1      35.344  15.706   6.032  0.00  0.00    -0.369 OA
HETATM   35  H   UNK N   1      35.501  14.966   5.426  0.00  0.00     0.212 HD
ENDBRANCH   5  34
TORSDOF 13
ENDMDL
MODEL 7
REMARK VINA RESULT:      -5.6      9.495     13.943
REMARK  13 active torsions:
REMARK  status: ('A' for Active; 'I' for Inactive)
REMARK    1  A    between atoms: C_5  and  C_2 
REMARK    2  A    between atoms: O_17  and  C_2 
REMARK    3  A    between atoms: C_6  and  C_3 
REMARK    4  A    between atoms: O_18  and  C_3 
REMARK    5  A    between atoms: O_19  and  C_4 
REMARK    6  A    between atoms: C_7  and  N_15 
REMARK    7  A    between atoms: C_8  and  O_20 
REMARK    8  A    between atoms: C_9  and  O_21 
REMARK    9  A    between atoms: C_10  and  O_22 
REMARK   10  A    between atoms: C_11  and  O_23 
REMARK   11  A    between atoms: C_12  and  O_27 
REMARK   12  A    between atoms: C_13  and  O_24 
REMARK   13  A    between atoms: C_14  and  O_27 
ROOT
HETATM    1  C   UNK N   1      35.027  15.591   6.607  0.00  0.00     0.179 C 
HETATM    2  C   UNK N   1      32.667  16.922   7.492  0.00  0.00     0.169 C 
HETATM    3  C   UNK N   1      33.287  15.828   8.351  0.00  0.00     0.177 C 
HETATM    4  C   UNK N   1      33.935  14.790   7.385  0.00  0.00     0.186 C 
HETATM    5  C   UNK N   1      33.768  17.598   6.666  0.00  0.00     0.282 C 
HETATM    6  O   UNK N   1      34.445  16.649   5.851  0.00  0.00    -0.349 OA
ENDROOT
BRANCH   4   7
HETATM    7  O   UNK N   1      34.519  13.652   8.022  0.00  0.00    -0.348 OA
BRANCH   7   8
HETATM    8  C   UNK N   1      35.389  13.965   9.110  0.00  0.00     0.292 C 
HETATM    9  C   UNK N   1      36.408  12.835   9.337  0.00  0.00     0.204 C 
HETATM   10  C   UNK N   1      37.419  13.334  10.388  0.00  0.00     0.183 C 
HETATM   11  C   UNK N   1      36.680  13.724  11.680  0.00  0.00     0.180 C 
HETATM   12  C   UNK N   1      35.526  14.697  11.361  0.00  0.00     0.179 C 
HETATM   13  O   UNK N   1      34.682  14.172  10.337  0.00  0.00    -0.348 OA
BRANCH   9  14
HETATM   14  O   UNK N   1      37.071  12.530   8.146  0.00  0.00    -0.388 OA
HETATM   15  H   UNK N   1      37.024  11.831   7.475  0.00  0.00     0.210 HD
ENDBRANCH   9  14
BRANCH  10  16
HETATM   16  O   UNK N   1      38.375  12.352  10.657  0.00  0.00    -0.390 OA
HETATM   17  H   UNK N   1      39.222  12.348  10.184  0.00  0.00     0.210 HD
ENDBRANCH  10  16
BRANCH  11  18
HETATM   18  O   UNK N   1      36.149  12.576  12.276  0.00  0.00    -0.390 OA
HETATM   19  H   UNK N   1      36.084  11.648  12.553  0.00  0.00     0.210 HD
ENDBRANCH  11  18
BRANCH  12  20
HETATM   20  C   UNK N   1      36.016  16.117  11.041  0.00  0.00     0.198 C 
BRANCH  20  21
HETATM   21  O   UNK N   1      34.953  17.022  11.032  0.00  0.00    -0.398 OA
HETATM   22  H   UNK N   1      34.559  17.317  11.868  0.00  0.00     0.209 HD
ENDBRANCH  20  21
ENDBRANCH  12  20
ENDBRANCH   7   8
ENDBRANCH   4   7
BRANCH   1  23
HETATM   23  C   UNK N   1      35.791  14.708   5.623  0.00  0.00     0.198 C 
BRANCH  23  24
HETATM   24  O   UNK N   1      37.065  14.403   6.107  0.00  0.00    -0.398 OA
HETATM   25  H   UNK N   1      37.728  15.030   6.433  0.00  0.00     0.209 HD
ENDBRANCH  23  24
ENDBRANCH   1  23
BRANCH   3  26
HETATM   26  O   UNK N   1      32.266  15.296   9.126  0.00  0.00    -0.391 OA
HETATM   27  H   UNK N   1      31.385  15.701   9.113  0.00  0.00     0.210 HD
ENDBRANCH   3  26
BRANCH   2  28
HETATM   28  N   UNK N   1      31.941  17.857   8.336  0.00  0.00    -0.363 N 
HETATM   29  C   UNK N   1      30.663  17.834   8.475  0.00  0.00     0.107 C 
HETATM   30  C   UNK N   1      30.007  18.790   9.409  0.00  0.00     0.097 C 
ATOM     31  HN  UNK N   1      32.471  18.566   8.842  1.00  0.00     0.162 HD
BRANCH  29  32
HETATM   32  O   UNK N   1      29.905  16.930   7.817  0.00  0.00    -0.350 OA
HETATM   33  H   UNK N   1      29.478  16.113   7.646  0.00  0.00     0.219 HD
ENDBRANCH  29  32
ENDBRANCH   2  28
BRANCH   5  34
HETATM   34  O   UNK N   1      34.673  18.286   7.484  0.00  0.00    -0.369 OA
HETATM   35  H   UNK N   1      35.286  18.968   7.800  0.00  0.00     0.212 HD
ENDBRANCH   5  34
TORSDOF 13
ENDMDL
MODEL 8
REMARK VINA RESULT:      -5.6     10.013     14.306
REMARK  13 active torsions:
REMARK  status: ('A' for Active; 'I' for Inactive)
REMARK    1  A    between atoms: C_5  and  C_2 
REMARK    2  A    between atoms: O_17  and  C_2 
REMARK    3  A    between atoms: C_6  and  C_3 
REMARK    4  A    between atoms: O_18  and  C_3 
REMARK    5  A    between atoms: O_19  and  C_4 
REMARK    6  A    between atoms: C_7  and  N_15 
REMARK    7  A    between atoms: C_8  and  O_20 
REMARK    8  A    between atoms: C_9  and  O_21 
REMARK    9  A    between atoms: C_10  and  O_22 
REMARK   10  A    between atoms: C_11  and  O_23 
REMARK   11  A    between atoms: C_12  and  O_27 
REMARK   12  A    between atoms: C_13  and  O_24 
REMARK   13  A    between atoms: C_14  and  O_27 
ROOT
HETATM    1  C   UNK N   1      35.285  15.311   6.614  0.00  0.00     0.179 C 
HETATM    2  C   UNK N   1      32.941  16.578   7.626  0.00  0.00     0.169 C 
HETATM    3  C   UNK N   1      34.202  16.527   8.478  0.00  0.00     0.177 C 
HETATM    4  C   UNK N   1      34.942  15.198   8.133  0.00  0.00     0.186 C 
HETATM    5  C   UNK N   1      33.334  16.572   6.144  0.00  0.00     0.282 C 
HETATM    6  O   UNK N   1      34.101  15.417   5.827  0.00  0.00    -0.349 OA
ENDROOT
BRANCH   4   7
HETATM    7  O   UNK N   1      36.129  14.953   8.889  0.00  0.00    -0.348 OA
BRANCH   7   8
HETATM    8  C   UNK N   1      35.939  14.122  10.035  0.00  0.00     0.292 C 
HETATM    9  C   UNK N   1      36.633  14.726  11.268  0.00  0.00     0.204 C 
HETATM   10  C   UNK N   1      36.220  13.878  12.487  0.00  0.00     0.183 C 
HETATM   11  C   UNK N   1      36.610  12.407  12.258  0.00  0.00     0.180 C 
HETATM   12  C   UNK N   1      36.065  11.918  10.900  0.00  0.00     0.179 C 
HETATM   13  O   UNK N   1      36.452  12.800   9.846  0.00  0.00    -0.348 OA
BRANCH   9  14
HETATM   14  O   UNK N   1      36.234  16.052  11.453  0.00  0.00    -0.388 OA
HETATM   15  H   UNK N   1      35.508  16.616  11.143  0.00  0.00     0.210 HD
ENDBRANCH   9  14
BRANCH  10  16
HETATM   16  O   UNK N   1      36.824  14.360  13.651  0.00  0.00    -0.390 OA
HETATM   17  H   UNK N   1      36.291  14.544  14.441  0.00  0.00     0.210 HD
ENDBRANCH  10  16
BRANCH  11  18
HETATM   18  O   UNK N   1      38.003  12.291  12.253  0.00  0.00    -0.390 OA
HETATM   19  H   UNK N   1      38.883  11.963  12.494  0.00  0.00     0.210 HD
ENDBRANCH  11  18
BRANCH  12  20
HETATM   20  C   UNK N   1      34.550  11.665  10.921  0.00  0.00     0.198 C 
BRANCH  20  21
HETATM   21  O   UNK N   1      34.151  11.124  12.145  0.00  0.00    -0.398 OA
HETATM   22  H   UNK N   1      34.375  11.577  12.973  0.00  0.00     0.209 HD
ENDBRANCH  20  21
ENDBRANCH  12  20
ENDBRANCH   7   8
ENDBRANCH   4   7
BRANCH   1  23
HETATM   23  C   UNK N   1      36.047  14.088   6.108  0.00  0.00     0.198 C 
BRANCH  23  24
HETATM   24  O   UNK N   1      35.687  12.943   6.821  0.00  0.00    -0.398 OA
HETATM   25  H   UNK N   1      36.257  12.420   7.406  0.00  0.00     0.209 HD
ENDBRANCH  23  24
ENDBRANCH   1  23
BRANCH   3  26
HETATM   26  O   UNK N   1      33.798  16.604   9.803  0.00  0.00    -0.391 OA
HETATM   27  H   UNK N   1      33.443  15.820  10.248  0.00  0.00     0.210 HD
ENDBRANCH   3  26
BRANCH   2  28
HETATM   28  N   UNK N   1      32.148  17.740   7.993  0.00  0.00    -0.363 N 
HETATM   29  C   UNK N   1      31.140  17.680   8.791  0.00  0.00     0.107 C 
HETATM   30  C   UNK N   1      30.421  18.930   9.162  0.00  0.00     0.097 C 
ATOM     31  HN  UNK N   1      32.402  18.646   7.600  1.00  0.00     0.162 HD
BRANCH  29  32
HETATM   32  O   UNK N   1      30.744  16.506   9.329  0.00  0.00    -0.350 OA
HETATM   33  H   UNK N   1      30.658  15.830   9.974  0.00  0.00     0.219 HD
ENDBRANCH  29  32
ENDBRANCH   2  28
BRANCH   5  34
HETATM   34  O   UNK N   1      34.025  17.738   5.791  0.00  0.00    -0.369 OA
HETATM   35  H   UNK N   1      34.644  18.483   5.833  0.00  0.00     0.212 HD
ENDBRANCH   5  34
TORSDOF 13
ENDMDL
MODEL 9
REMARK VINA RESULT:      -5.5      8.927     12.586
REMARK  13 active torsions:
REMARK  status: ('A' for Active; 'I' for Inactive)
REMARK    1  A    between atoms: C_5  and  C_2 
REMARK    2  A    between atoms: O_17  and  C_2 
REMARK    3  A    between atoms: C_6  and  C_3 
REMARK    4  A    between atoms: O_18  and  C_3 
REMARK    5  A    between atoms: O_19  and  C_4 
REMARK    6  A    between atoms: C_7  and  N_15 
REMARK    7  A    between atoms: C_8  and  O_20 
REMARK    8  A    between atoms: C_9  and  O_21 
REMARK    9  A    between atoms: C_10  and  O_22 
REMARK   10  A    between atoms: C_11  and  O_23 
REMARK   11  A    between atoms: C_12  and  O_27 
REMARK   12  A    between atoms: C_13  and  O_24 
REMARK   13  A    between atoms: C_14  and  O_27 
ROOT
HETATM    1  C   UNK N   1      34.984  17.281   8.809  0.00  0.00     0.179 C 
HETATM    2  C   UNK N   1      35.021  14.769  10.156  0.00  0.00     0.169 C 
HETATM    3  C   UNK N   1      35.255  14.825   8.653  0.00  0.00     0.177 C 
HETATM    4  C   UNK N   1      34.413  16.014   8.096  0.00  0.00     0.186 C 
HETATM    5  C   UNK N   1      35.495  16.083  10.789  0.00  0.00     0.282 C 
HETATM    6  O   UNK N   1      34.813  17.195  10.221  0.00  0.00    -0.349 OA
ENDROOT
BRANCH   4   7
HETATM    7  O   UNK N   1      34.466  16.181   6.678  0.00  0.00    -0.348 OA
BRANCH   7   8
HETATM    8  C   UNK N   1      33.253  15.855   5.998  0.00  0.00     0.292 C 
HETATM    9  C   UNK N   1      32.563  17.126   5.474  0.00  0.00     0.204 C 
HETATM   10  C   UNK N   1      31.379  16.676   4.597  0.00  0.00     0.183 C 
HETATM   11  C   UNK N   1      30.426  15.790   5.418  0.00  0.00     0.180 C 
HETATM   12  C   UNK N   1      31.213  14.651   6.099  0.00  0.00     0.179 C 
HETATM   13  O   UNK N   1      32.322  15.165   6.837  0.00  0.00    -0.348 OA
BRANCH   9  14
HETATM   14  O   UNK N   1      33.455  17.888   4.715  0.00  0.00    -0.388 OA
HETATM   15  H   UNK N   1      34.263  18.398   4.884  0.00  0.00     0.210 HD
ENDBRANCH   9  14
BRANCH  10  16
HETATM   16  O   UNK N   1      30.691  17.782   4.091  0.00  0.00    -0.390 OA
HETATM   17  H   UNK N   1      30.845  18.082   3.181  0.00  0.00     0.210 HD
ENDBRANCH  10  16
BRANCH  11  18
HETATM   18  O   UNK N   1      29.808  16.563   6.407  0.00  0.00    -0.390 OA
HETATM   19  H   UNK N   1      29.636  16.939   7.284  0.00  0.00     0.210 HD
ENDBRANCH  11  18
BRANCH  12  20
HETATM   20  C   UNK N   1      31.629  13.544   5.118  0.00  0.00     0.198 C 
BRANCH  20  21
HETATM   21  O   UNK N   1      32.074  12.412   5.801  0.00  0.00    -0.398 OA
HETATM   22  H   UNK N   1      32.091  12.404   6.771  0.00  0.00     0.209 HD
ENDBRANCH  20  21
ENDBRANCH  12  20
ENDBRANCH   7   8
ENDBRANCH   4   7
BRANCH   1  23
HETATM   23  C   UNK N   1      34.282  18.558   8.353  0.00  0.00     0.198 C 
BRANCH  23  24
HETATM   24  O   UNK N   1      32.894  18.406   8.385  0.00  0.00    -0.398 OA
HETATM   25  H   UNK N   1      32.293  18.401   7.624  0.00  0.00     0.209 HD
ENDBRANCH  23  24
ENDBRANCH   1  23
BRANCH   3  26
HETATM   26  O   UNK N   1      34.875  13.594   8.139  0.00  0.00    -0.391 OA
HETATM   27  H   UNK N   1      35.299  12.783   8.460  0.00  0.00     0.210 HD
ENDBRANCH   3  26
BRANCH   2  28
HETATM   28  N   UNK N   1      35.687  13.603  10.714  0.00  0.00    -0.363 N 
HETATM   29  C   UNK N   1      35.327  13.048  11.818  0.00  0.00     0.107 C 
HETATM   30  C   UNK N   1      36.026  11.819  12.284  0.00  0.00     0.097 C 
ATOM     31  HN  UNK N   1      36.477  13.206  10.207  1.00  0.00     0.162 HD
BRANCH  29  32
HETATM   32  O   UNK N   1      34.299  13.539  12.543  0.00  0.00    -0.350 OA
HETATM   33  H   UNK N   1      33.604  13.546  13.173  0.00  0.00     0.219 HD
ENDBRANCH  29  32
ENDBRANCH   2  28
BRANCH   5  34
HETATM   34  O   UNK N   1      36.882  16.239  10.671  0.00  0.00    -0.369 OA
HETATM   35  H   UNK N   1      37.746  16.638  10.485  0.00  0.00     0.212 HD
ENDBRANCH   5  34
TORSDOF 13
ENDMDL
