MODEL 1
REMARK VINA RESULT:      -4.4      0.000      0.000
REMARK  6 active torsions:
REMARK  status: ('A' for Active; 'I' for Inactive)
REMARK    1  A    between atoms: C_2  and  N_1 
REMARK    2  A    between atoms: C_2  and  C_3 
REMARK    3  A    between atoms: C_2  and  C_7 
REMARK    4  A    between atoms: C_3  and  C_4 
REMARK    5  A    between atoms: C_4  and  C_5 
REMARK    6  A    between atoms: C_7  and  O_8 
ROOT
HETATM    1  C   UNK N   1      22.639  11.979  11.067  0.00  0.00     0.280 C 
ENDROOT
BRANCH   1   2
HETATM    2  N   UNK N   1      21.352  11.868  11.734  0.00  0.00    -0.065 N 
HETATM    3  H   UNK N   1      20.593  11.321  11.329  0.00  0.00     0.275 HD
HETATM    4  H   UNK N   1      21.206  12.348  12.622  0.00  0.00     0.275 HD
HETATM    5  H   UNK N   1      20.455  11.802  12.213  0.00  0.00     0.275 HD
ENDBRANCH   1   2
BRANCH   1   6
HETATM    6  C   UNK N   1      22.615  13.181  10.134  0.00  0.00     0.050 C 
BRANCH   6   7
HETATM    7  C   UNK N   1      21.449  13.068   9.164  0.00  0.00     0.072 C 
BRANCH   7   8
HETATM    8  C   UNK N   1      20.488  14.189   9.371  0.00  0.00     0.231 C 
HETATM    9  O   UNK N   1      19.439  14.000   9.963  0.00  0.00    -0.307 OA
ENDBRANCH   7   8
ENDBRANCH   6   7
ENDBRANCH   1   6
BRANCH   1  10
HETATM   10  C   UNK N   1      23.754  12.066  12.078  0.00  0.00     0.171 C 
HETATM   11  O   UNK N   1      23.507  11.989  13.269  0.00  0.00    -0.648 OA
BRANCH  10  12
HETATM   12  O   UNK N   1      25.026  12.262  11.677  0.00  0.00    -0.775 OA
HETATM   13  H   UNK N   1      25.287  12.934  11.077  0.00  0.00     0.167 HD
ENDBRANCH  10  12
ENDBRANCH   1  10
TORSDOF 6
ENDMDL
MODEL 2
REMARK VINA RESULT:      -4.3     11.017     11.671
REMARK  6 active torsions:
REMARK  status: ('A' for Active; 'I' for Inactive)
REMARK    1  A    between atoms: C_2  and  N_1 
REMARK    2  A    between atoms: C_2  and  C_3 
REMARK    3  A    between atoms: C_2  and  C_7 
REMARK    4  A    between atoms: C_3  and  C_4 
REMARK    5  A    between atoms: C_4  and  C_5 
REMARK    6  A    between atoms: C_7  and  O_8 
ROOT
HETATM    1  C   UNK N   1      20.146  19.256   2.556  0.00  0.00     0.280 C 
ENDROOT
BRANCH   1   2
HETATM    2  N   UNK N   1      18.759  18.926   2.272  0.00  0.00    -0.065 N 
HETATM    3  H   UNK N   1      18.443  17.957   2.237  0.00  0.00     0.275 HD
HETATM    4  H   UNK N   1      18.091  19.677   2.105  0.00  0.00     0.275 HD
HETATM    5  H   UNK N   1      17.783  18.711   2.071  0.00  0.00     0.275 HD
ENDBRANCH   1   2
BRANCH   1   6
HETATM    6  C   UNK N   1      20.949  17.968   2.675  0.00  0.00     0.050 C 
BRANCH   6   7
HETATM    7  C   UNK N   1      20.090  16.777   2.279  0.00  0.00     0.072 C 
BRANCH   7   8
HETATM    8  C   UNK N   1      20.455  16.302   0.914  0.00  0.00     0.231 C 
HETATM    9  O   UNK N   1      20.193  16.983  -0.065  0.00  0.00    -0.307 OA
ENDBRANCH   7   8
ENDBRANCH   6   7
ENDBRANCH   1   6
BRANCH   1  10
HETATM   10  C   UNK N   1      20.699  20.175   1.497  0.00  0.00     0.171 C 
HETATM   11  O   UNK N   1      21.199  21.241   1.812  0.00  0.00    -0.648 OA
BRANCH  10  12
HETATM   12  O   UNK N   1      20.618  19.840   0.193  0.00  0.00    -0.775 OA
HETATM   13  H   UNK N   1      21.284  19.369  -0.268  0.00  0.00     0.167 HD
ENDBRANCH  10  12
ENDBRANCH   1  10
TORSDOF 6
ENDMDL
MODEL 3
REMARK VINA RESULT:      -4.2     13.093     13.770
REMARK  6 active torsions:
REMARK  status: ('A' for Active; 'I' for Inactive)
REMARK    1  A    between atoms: C_2  and  N_1 
REMARK    2  A    between atoms: C_2  and  C_3 
REMARK    3  A    between atoms: C_2  and  C_7 
REMARK    4  A    between atoms: C_3  and  C_4 
REMARK    5  A    between atoms: C_4  and  C_5 
REMARK    6  A    between atoms: C_7  and  O_8 
ROOT
HETATM    1  C   UNK N   1      33.838  17.370   9.036  0.00  0.00     0.280 C 
ENDROOT
BRANCH   1   2
HETATM    2  N   UNK N   1      32.409  17.375   8.768  0.00  0.00    -0.065 N 
HETATM    3  H   UNK N   1      31.942  18.207   8.407  0.00  0.00     0.275 HD
HETATM    4  H   UNK N   1      31.864  16.532   8.946  0.00  0.00     0.275 HD
HETATM    5  H   UNK N   1      31.406  17.363   8.587  0.00  0.00     0.275 HD
ENDBRANCH   1   2
BRANCH   1   6
HETATM    6  C   UNK N   1      34.349  15.937   8.978  0.00  0.00     0.050 C 
BRANCH   6   7
HETATM    7  C   UNK N   1      34.486  15.373  10.384  0.00  0.00     0.072 C 
BRANCH   7   8
HETATM    8  C   UNK N   1      35.473  16.166  11.170  0.00  0.00     0.231 C 
HETATM    9  O   UNK N   1      36.600  16.347  10.740  0.00  0.00    -0.307 OA
ENDBRANCH   7   8
ENDBRANCH   6   7
ENDBRANCH   1   6
BRANCH   1  10
HETATM   10  C   UNK N   1      34.561  18.271   8.067  0.00  0.00     0.171 C 
HETATM   11  O   UNK N   1      35.261  19.179   8.482  0.00  0.00    -0.648 OA
BRANCH  10  12
HETATM   12  O   UNK N   1      34.415  18.100   6.738  0.00  0.00    -0.775 OA
HETATM   13  H   UNK N   1      33.595  18.169   6.289  0.00  0.00     0.167 HD
ENDBRANCH  10  12
ENDBRANCH   1  10
TORSDOF 6
ENDMDL
MODEL 4
REMARK VINA RESULT:      -4.1      1.721      1.963
REMARK  6 active torsions:
REMARK  status: ('A' for Active; 'I' for Inactive)
REMARK    1  A    between atoms: C_2  and  N_1 
REMARK    2  A    between atoms: C_2  and  C_3 
REMARK    3  A    between atoms: C_2  and  C_7 
REMARK    4  A    between atoms: C_3  and  C_4 
REMARK    5  A    between atoms: C_4  and  C_5 
REMARK    6  A    between atoms: C_7  and  O_8 
ROOT
HETATM    1  C   UNK N   1      23.571  12.412  11.162  0.00  0.00     0.280 C 
ENDROOT
BRANCH   1   2
HETATM    2  N   UNK N   1      25.017  12.326  11.032  0.00  0.00    -0.065 N 
HETATM    3  H   UNK N   1      25.462  12.253  10.118  0.00  0.00     0.275 HD
HETATM    4  H   UNK N   1      25.596  12.338  11.871  0.00  0.00     0.275 HD
HETATM    5  H   UNK N   1      26.032  12.265  10.958  0.00  0.00     0.275 HD
ENDBRANCH   1   2
BRANCH   1   6
HETATM    6  C   UNK N   1      22.923  11.580  10.065  0.00  0.00     0.050 C 
BRANCH   6   7
HETATM    7  C   UNK N   1      22.139  12.478   9.120  0.00  0.00     0.072 C 
BRANCH   7   8
HETATM    8  C   UNK N   1      21.197  13.344   9.886  0.00  0.00     0.231 C 
HETATM    9  O   UNK N   1      20.244  12.852  10.467  0.00  0.00    -0.307 OA
ENDBRANCH   7   8
ENDBRANCH   6   7
ENDBRANCH   1   6
BRANCH   1  10
HETATM   10  C   UNK N   1      23.136  11.976  12.538  0.00  0.00     0.171 C 
HETATM   11  O   UNK N   1      23.903  12.072  13.481  0.00  0.00    -0.648 OA
BRANCH  10  12
HETATM   12  O   UNK N   1      21.911  11.448  12.731  0.00  0.00    -0.775 OA
HETATM   13  H   UNK N   1      21.160  11.668  12.214  0.00  0.00     0.167 HD
ENDBRANCH  10  12
ENDBRANCH   1  10
TORSDOF 6
ENDMDL
MODEL 5
REMARK VINA RESULT:      -4.1      2.101      2.501
REMARK  6 active torsions:
REMARK  status: ('A' for Active; 'I' for Inactive)
REMARK    1  A    between atoms: C_2  and  N_1 
REMARK    2  A    between atoms: C_2  and  C_3 
REMARK    3  A    between atoms: C_2  and  C_7 
REMARK    4  A    between atoms: C_3  and  C_4 
REMARK    5  A    between atoms: C_4  and  C_5 
REMARK    6  A    between atoms: C_7  and  O_8 
ROOT
HETATM    1  C   UNK N   1      22.583  11.907  11.110  0.00  0.00     0.280 C 
ENDROOT
BRANCH   1   2
HETATM    2  N   UNK N   1      21.240  11.831  11.662  0.00  0.00    -0.065 N 
HETATM    3  H   UNK N   1      20.837  12.612  12.180  0.00  0.00     0.275 HD
HETATM    4  H   UNK N   1      20.692  10.982  11.531  0.00  0.00     0.275 HD
HETATM    5  H   UNK N   1      20.298  11.763  12.045  0.00  0.00     0.275 HD
ENDBRANCH   1   2
BRANCH   1   6
HETATM    6  C   UNK N   1      22.657  13.079  10.141  0.00  0.00     0.050 C 
BRANCH   6   7
HETATM    7  C   UNK N   1      23.218  12.619   8.805  0.00  0.00     0.072 C 
BRANCH   7   8
HETATM    8  C   UNK N   1      24.525  13.283   8.533  0.00  0.00     0.231 C 
HETATM    9  O   UNK N   1      25.296  13.522   9.447  0.00  0.00    -0.307 OA
ENDBRANCH   7   8
ENDBRANCH   6   7
ENDBRANCH   1   6
BRANCH   1  10
HETATM   10  C   UNK N   1      23.604  12.015  12.213  0.00  0.00     0.171 C 
HETATM   11  O   UNK N   1      23.258  11.925  13.378  0.00  0.00    -0.648 OA
BRANCH  10  12
HETATM   12  O   UNK N   1      24.901  12.244  11.922  0.00  0.00    -0.775 OA
HETATM   13  H   UNK N   1      25.565  12.381  12.570  0.00  0.00     0.167 HD
ENDBRANCH  10  12
ENDBRANCH   1  10
TORSDOF 6
ENDMDL
MODEL 6
REMARK VINA RESULT:      -4.0     11.132     11.974
REMARK  6 active torsions:
REMARK  status: ('A' for Active; 'I' for Inactive)
REMARK    1  A    between atoms: C_2  and  N_1 
REMARK    2  A    between atoms: C_2  and  C_3 
REMARK    3  A    between atoms: C_2  and  C_7 
REMARK    4  A    between atoms: C_3  and  C_4 
REMARK    5  A    between atoms: C_4  and  C_5 
REMARK    6  A    between atoms: C_7  and  O_8 
ROOT
HETATM    1  C   UNK N   1      33.135  17.353   8.334  0.00  0.00     0.280 C 
ENDROOT
BRANCH   1   2
HETATM    2  N   UNK N   1      33.571  16.854   9.628  0.00  0.00    -0.065 N 
HETATM    3  H   UNK N   1      33.905  17.488  10.354  0.00  0.00     0.275 HD
HETATM    4  H   UNK N   1      33.543  15.852   9.813  0.00  0.00     0.275 HD
HETATM    5  H   UNK N   1      33.874  16.489  10.531  0.00  0.00     0.275 HD
ENDBRANCH   1   2
BRANCH   1   6
HETATM    6  C   UNK N   1      31.883  18.197   8.523  0.00  0.00     0.050 C 
BRANCH   6   7
HETATM    7  C   UNK N   1      30.678  17.301   8.763  0.00  0.00     0.072 C 
BRANCH   7   8
HETATM    8  C   UNK N   1      29.523  18.103   9.259  0.00  0.00     0.231 C 
HETATM    9  O   UNK N   1      29.645  18.817  10.240  0.00  0.00    -0.307 OA
ENDBRANCH   7   8
ENDBRANCH   6   7
ENDBRANCH   1   6
BRANCH   1  10
HETATM   10  C   UNK N   1      34.244  18.123   7.663  0.00  0.00     0.171 C 
HETATM   11  O   UNK N   1      34.516  17.911   6.494  0.00  0.00    -0.648 OA
BRANCH  10  12
HETATM   12  O   UNK N   1      34.964  19.028   8.357  0.00  0.00    -0.775 OA
HETATM   13  H   UNK N   1      35.897  19.001   8.438  0.00  0.00     0.167 HD
ENDBRANCH  10  12
ENDBRANCH   1  10
TORSDOF 6
ENDMDL
MODEL 7
REMARK VINA RESULT:      -3.9      2.017      2.393
REMARK  6 active torsions:
REMARK  status: ('A' for Active; 'I' for Inactive)
REMARK    1  A    between atoms: C_2  and  N_1 
REMARK    2  A    between atoms: C_2  and  C_3 
REMARK    3  A    between atoms: C_2  and  C_7 
REMARK    4  A    between atoms: C_3  and  C_4 
REMARK    5  A    between atoms: C_4  and  C_5 
REMARK    6  A    between atoms: C_7  and  O_8 
ROOT
HETATM    1  C   UNK N   1      24.073  11.898  10.906  0.00  0.00     0.280 C 
ENDROOT
BRANCH   1   2
HETATM    2  N   UNK N   1      23.830  12.358  12.264  0.00  0.00    -0.065 N 
HETATM    3  H   UNK N   1      24.517  12.925  12.760  0.00  0.00     0.275 HD
HETATM    4  H   UNK N   1      22.958  12.108  12.728  0.00  0.00     0.275 HD
HETATM    5  H   UNK N   1      23.646  12.671  13.216  0.00  0.00     0.275 HD
ENDBRANCH   1   2
BRANCH   1   6
HETATM    6  C   UNK N   1      22.741  11.575  10.245  0.00  0.00     0.050 C 
BRANCH   6   7
HETATM    7  C   UNK N   1      21.602  12.225  11.016  0.00  0.00     0.072 C 
BRANCH   7   8
HETATM    8  C   UNK N   1      20.862  13.181  10.144  0.00  0.00     0.231 C 
HETATM    9  O   UNK N   1      20.798  12.994   8.940  0.00  0.00    -0.307 OA
ENDBRANCH   7   8
ENDBRANCH   6   7
ENDBRANCH   1   6
BRANCH   1  10
HETATM   10  C   UNK N   1      24.857  12.926  10.131  0.00  0.00     0.171 C 
HETATM   11  O   UNK N   1      24.626  13.109   8.948  0.00  0.00    -0.648 OA
BRANCH  10  12
HETATM   12  O   UNK N   1      25.840  13.628  10.730  0.00  0.00    -0.775 OA
HETATM   13  H   UNK N   1      25.847  13.845  11.642  0.00  0.00     0.167 HD
ENDBRANCH  10  12
ENDBRANCH   1  10
TORSDOF 6
ENDMDL
MODEL 8
REMARK VINA RESULT:      -3.9     12.833     13.230
REMARK  6 active torsions:
REMARK  status: ('A' for Active; 'I' for Inactive)
REMARK    1  A    between atoms: C_2  and  N_1 
REMARK    2  A    between atoms: C_2  and  C_3 
REMARK    3  A    between atoms: C_2  and  C_7 
REMARK    4  A    between atoms: C_3  and  C_4 
REMARK    5  A    between atoms: C_4  and  C_5 
REMARK    6  A    between atoms: C_7  and  O_8 
ROOT
HETATM    1  C   UNK N   1      34.550  15.604   9.903  0.00  0.00     0.280 C 
ENDROOT
BRANCH   1   2
HETATM    2  N   UNK N   1      33.779  15.092  11.024  0.00  0.00    -0.065 N 
HETATM    3  H   UNK N   1      33.013  14.434  10.883  0.00  0.00     0.275 HD
HETATM    4  H   UNK N   1      34.008  15.398  11.970  0.00  0.00     0.275 HD
HETATM    5  H   UNK N   1      33.247  14.743  11.821  0.00  0.00     0.275 HD
ENDBRANCH   1   2
BRANCH   1   6
HETATM    6  C   UNK N   1      33.608  16.293   8.926  0.00  0.00     0.050 C 
BRANCH   6   7
HETATM    7  C   UNK N   1      33.881  15.812   7.509  0.00  0.00     0.072 C 
BRANCH   7   8
HETATM    8  C   UNK N   1      34.129  16.971   6.604  0.00  0.00     0.231 C 
HETATM    9  O   UNK N   1      34.524  18.033   7.058  0.00  0.00    -0.307 OA
ENDBRANCH   7   8
ENDBRANCH   6   7
ENDBRANCH   1   6
BRANCH   1  10
HETATM   10  C   UNK N   1      35.640  16.525  10.387  0.00  0.00     0.171 C 
HETATM   11  O   UNK N   1      35.534  17.731  10.238  0.00  0.00    -0.648 OA
BRANCH  10  12
HETATM   12  O   UNK N   1      36.754  16.024  10.958  0.00  0.00    -0.775 OA
HETATM   13  H   UNK N   1      36.939  16.074  11.876  0.00  0.00     0.167 HD
ENDBRANCH  10  12
ENDBRANCH   1  10
TORSDOF 6
ENDMDL
MODEL 9
REMARK VINA RESULT:      -3.9     11.713     12.679
REMARK  6 active torsions:
REMARK  status: ('A' for Active; 'I' for Inactive)
REMARK    1  A    between atoms: C_2  and  N_1 
REMARK    2  A    between atoms: C_2  and  C_3 
REMARK    3  A    between atoms: C_2  and  C_7 
REMARK    4  A    between atoms: C_3  and  C_4 
REMARK    5  A    between atoms: C_4  and  C_5 
REMARK    6  A    between atoms: C_7  and  O_8 
ROOT
HETATM    1  C   UNK N   1      34.220  16.928   8.785  0.00  0.00     0.280 C 
ENDROOT
BRANCH   1   2
HETATM    2  N   UNK N   1      34.658  17.144  10.154  0.00  0.00    -0.065 N 
HETATM    3  H   UNK N   1      35.290  17.909  10.392  0.00  0.00     0.275 HD
HETATM    4  H   UNK N   1      34.328  16.519  10.889  0.00  0.00     0.275 HD
HETATM    5  H   UNK N   1      34.957  17.282  11.119  0.00  0.00     0.275 HD
ENDBRANCH   1   2
BRANCH   1   6
HETATM    6  C   UNK N   1      32.729  16.625   8.782  0.00  0.00     0.050 C 
BRANCH   6   7
HETATM    7  C   UNK N   1      32.459  15.326   8.037  0.00  0.00     0.072 C 
BRANCH   7   8
HETATM    8  C   UNK N   1      31.621  15.582   6.831  0.00  0.00     0.231 C 
HETATM    9  O   UNK N   1      31.872  16.523   6.095  0.00  0.00    -0.307 OA
ENDBRANCH   7   8
ENDBRANCH   6   7
ENDBRANCH   1   6
BRANCH   1  10
HETATM   10  C   UNK N   1      34.560  18.119   7.926  0.00  0.00     0.171 C 
HETATM   11  O   UNK N   1      35.039  19.120   8.430  0.00  0.00    -0.648 OA
BRANCH  10  12
HETATM   12  O   UNK N   1      34.307  18.100   6.601  0.00  0.00    -0.775 OA
HETATM   13  H   UNK N   1      33.648  18.624   6.188  0.00  0.00     0.167 HD
ENDBRANCH  10  12
ENDBRANCH   1  10
TORSDOF 6
ENDMDL
