REMARK  14 active torsions:
REMARK  status: ('A' for Active; 'I' for Inactive)
REMARK    1  A    between atoms: C_2  and  C_3 
REMARK    2  A    between atoms: C_2  and  O_21 
REMARK    3  A    between atoms: C_3  and  N_4 
REMARK    4  A    between atoms: N_4  and  C_5 
REMARK    5  A    between atoms: C_5  and  C_6 
REMARK    6  A    between atoms: C_7  and  O_8 
REMARK    7  A    between atoms: C_14  and  C_15 
REMARK    8  A    between atoms: C_15  and  O_16 
REMARK    9  A    between atoms: O_16  and  P_17 
REMARK   10  A    between atoms: P_17  and  O_18 
REMARK   11  A    between atoms: P_17  and  O_19 
REMARK   12  A    between atoms: O_21  and  P_22 
REMARK   13  A    between atoms: P_22  and  O_23 
REMARK   14  A    between atoms: P_22  and  O_24 
ROOT
HETATM    1  C   UNK N   1      -2.899  -1.684  -0.153  0.00  0.00     0.004 A 
HETATM    2  C   UNK N   1      -4.186  -2.244  -0.136  0.00  0.00     0.096 A 
HETATM    3  C   UNK N   1      -5.293  -1.415   0.093  0.00  0.00     0.039 A 
HETATM    4  C   UNK N   1      -6.671  -1.983   0.116  0.00  0.00     0.071 C 
HETATM    5  N   UNK N   1      -5.118  -0.084   0.295  0.00  0.00    -0.367 N 
ATOM      6  HN  UNK N   1      -5.934   0.506   0.456  1.00  0.00     0.165 HD
HETATM    7  C   UNK N   1      -3.881   0.484   0.289  0.00  0.00     0.098 A 
HETATM    8  C   UNK N   1      -2.744  -0.299   0.064  0.00  0.00    -0.008 A 
ENDROOT
BRANCH   1   9
HETATM    9  C   UNK N   1      -1.716  -2.572  -0.410  0.00  0.00     0.156 C 
BRANCH   9  10
HETATM   10  N   UNK N   1      -0.800  -2.549   0.721  0.00  0.00    -0.415 N 
HETATM   11  H   UNK N   1      -1.011  -2.224   1.665  0.00  0.00     0.153 HD
BRANCH  10  12
HETATM   12  C   UNK N   1       0.474  -3.076   0.253  0.00  0.00     0.146 C 
BRANCH  12  13
HETATM   13  C   UNK N   1       1.434  -1.952  -0.130  0.00  0.00     0.146 C 
HETATM   14  C   UNK N   1       0.936  -1.216  -1.364  0.00  0.00     0.042 C 
BRANCH  13  15
HETATM   15  O   UNK N   1       2.688  -2.509  -0.398  0.00  0.00    -0.290 OA
BRANCH  15  16
HETATM   16  P   UNK N   1       3.886  -1.306   0.011  0.00  0.00     0.391 P 
HETATM   17  O   UNK N   1       3.426  -0.535   1.279  0.00  0.00    -0.632 OA
BRANCH  16  18
HETATM   18  O   UNK N   1       4.090  -0.151  -1.269  0.00  0.00    -0.307 OA
HETATM   19  H   UNK N   1       4.707   0.073  -1.984  0.00  0.00     0.222 HD
ENDBRANCH  16  18
BRANCH  16  20
HETATM   20  O   UNK N   1       5.398  -2.060   0.405  0.00  0.00    -0.307 OA
HETATM   21  H   UNK N   1       5.456  -3.003   0.625  0.00  0.00     0.222 HD
ENDBRANCH  16  20
ENDBRANCH  15  16
ENDBRANCH  13  15
ENDBRANCH  12  13
ENDBRANCH  10  12
ENDBRANCH   9  10
ENDBRANCH   1   9
BRANCH   2  22
HETATM   22  O   UNK N   1      -4.355  -3.565  -0.335  0.00  0.00    -0.358 OA
HETATM   23  H   UNK N   1      -5.209  -3.922  -0.474  0.00  0.00     0.217 HD
ENDBRANCH   2  22
BRANCH   8  24
HETATM   24  C   UNK N   1      -1.374   0.320   0.067  0.00  0.00     0.221 C 
BRANCH  24  25
HETATM   25  O   UNK N   1      -1.372   1.660   0.473  0.00  0.00    -0.292 OA
BRANCH  25  26
HETATM   26  P   UNK N   1      -0.101   2.407  -0.454  0.00  0.00     0.391 P 
HETATM   27  O   UNK N   1       0.668   2.057   0.851  0.00  0.00    -0.632 OA
BRANCH  26  28
HETATM   28  O   UNK N   1       0.587   3.934   0.003  0.00  0.00    -0.307 OA
HETATM   29  H   UNK N   1       1.518   4.027   0.258  0.00  0.00     0.222 HD
ENDBRANCH  26  28
BRANCH  26  30
HETATM   30  O   UNK N   1      -1.335   3.567  -0.076  0.00  0.00    -0.307 OA
HETATM   31  H   UNK N   1      -1.119   4.489   0.135  0.00  0.00     0.222 HD
ENDBRANCH  26  30
ENDBRANCH  25  26
ENDBRANCH  24  25
ENDBRANCH   8  24
TORSDOF 14
