REMARK  10 active torsions:
REMARK  status: ('A' for Active; 'I' for Inactive)
REMARK    1  A    between atoms: C_17  and  N_2 
REMARK       I    between atoms: N_13  and  C_10 
REMARK    2  A    between atoms: C_14  and  C_20 
REMARK    3  A    between atoms: C_16  and  O_19 
REMARK    4  A    between atoms: O_21  and  C_20 
REMARK    5  A    between atoms: P_25  and  O_21 
REMARK    6  A    between atoms: P_23  and  O_22 
REMARK    7  A    between atoms: O_24  and  P_23 
REMARK    8  A    between atoms: O_28  and  P_23 
REMARK    9  A    between atoms: P_25  and  O_24 
REMARK   10  A    between atoms: O_29  and  P_25 
ROOT
HETATM    1  C   UNK N   1       9.913 -11.466  -0.387  0.00  0.00     0.177 C 
HETATM    2  O   UNK N   1      10.549 -10.667  -1.339  0.00  0.00    -0.356 OA
HETATM    3  C   UNK N   1      11.022 -12.217   0.289  0.00  0.00     0.153 C 
HETATM    4  C   UNK N   1      11.665 -10.172  -0.631  0.00  0.00     0.233 C 
HETATM    5  C   UNK N   1      11.886 -11.037   0.610  0.00  0.00     0.088 C 
ENDROOT
BRANCH   4   6
HETATM    6  N   UNK N   1      11.473  -8.755  -0.322  0.00  0.00    -0.299 N 
HETATM    7  C   UNK N   1      10.359  -8.106   0.060  0.00  0.00     0.159 A 
HETATM    8  C   UNK N   1      10.606  -6.782   0.090  0.00  0.00     0.147 A 
HETATM    9  N   UNK N   1       9.129  -8.621   0.325  0.00  0.00    -0.174 N 
HETATM   10  N   UNK N   1      11.888  -6.548  -0.250  0.00  0.00    -0.345 N 
HETATM   11  C   UNK N   1       9.595  -5.888   0.394  0.00  0.00     0.290 A 
HETATM   12  C   UNK N   1      12.399  -7.783  -0.513  0.00  0.00     0.188 A 
ATOM     13  HN  UNK N   1      12.367  -5.649  -0.300  1.00  0.00     0.167 HD
HETATM   14  N   UNK N   1       8.347  -6.398   0.671  0.00  0.00    -0.154 N 
HETATM   15  O   UNK N   1       9.789  -4.686   0.397  0.00  0.00    -0.265 OA
HETATM   16  C   UNK N   1       8.118  -7.750   0.642  0.00  0.00     0.680 A 
HETATM   17  H   UNK N   1       7.610  -5.784   0.894  0.00  0.00     0.187 HD
HETATM   18  N   UNK N   1       6.829  -8.238   0.928  0.00  0.00    -0.234 N 
HETATM   19  H   UNK N   1       6.082  -7.628   1.128  0.00  0.00     0.174 HD
HETATM   20  H   UNK N   1       6.670  -9.209   0.928  0.00  0.00     0.174 HD
ATOM     21  HN  UNK N   1       8.963  -9.627   0.290  1.00  0.00     0.186 HD
ENDBRANCH   4   6
BRANCH   1  22
HETATM   22  C   UNK N   1       8.822 -12.330  -0.980  0.00  0.00     0.215 C 
BRANCH  22  23
HETATM   23  O   UNK N   1       7.846 -12.537   0.001  0.00  0.00    -0.294 OA
BRANCH  23  24
HETATM   24  P   UNK N   1       6.354 -11.965  -0.691  0.00  0.00     0.401 P 
HETATM   25  O   UNK N   1       6.600 -10.922   0.430  0.00  0.00    -0.631 OA
BRANCH  24  26
HETATM   26  O   UNK N   1       4.875 -12.043   0.226  0.00  0.00    -0.195 OA
BRANCH  26  27
HETATM   27  P   UNK N   1       3.601 -11.736  -0.920  0.00  0.00     0.399 P 
HETATM   28  O   UNK N   1       3.439 -10.547   0.065  0.00  0.00    -0.631 OA
BRANCH  27  29
HETATM   29  O   UNK N   1       1.940 -11.871  -0.436  0.00  0.00    -0.307 OA
HETATM   30  H   UNK N   1       1.410 -11.105  -0.165  0.00  0.00     0.222 HD
ENDBRANCH  27  29
BRANCH  27  31
HETATM   31  O   UNK N   1       3.309 -13.232  -0.089  0.00  0.00    -0.307 OA
HETATM   32  H   UNK N   1       2.503 -13.508   0.376  0.00  0.00     0.222 HD
ENDBRANCH  27  31
ENDBRANCH  26  27
ENDBRANCH  24  26
BRANCH  24  33
HETATM   33  O   UNK N   1       6.168 -13.541   0.011  0.00  0.00    -0.307 OA
HETATM   34  H   UNK N   1       5.353 -13.892   0.403  0.00  0.00     0.222 HD
ENDBRANCH  24  33
ENDBRANCH  23  24
ENDBRANCH  22  23
ENDBRANCH   1  22
BRANCH   3  35
HETATM   35  O   UNK N   1      10.593 -12.862   1.448  0.00  0.00    -0.393 OA
HETATM   36  H   UNK N   1      10.055 -12.828   2.254  0.00  0.00     0.210 HD
ENDBRANCH   3  35
TORSDOF 10
