REMARK  11 active torsions:
REMARK  status: ('A' for Active; 'I' for Inactive)
REMARK    1  A    between atoms: C_3  and  C_1 
REMARK    2  A    between atoms: C_5  and  C_1 
REMARK    3  A    between atoms: C_4  and  C_2 
REMARK    4  A    between atoms: P_17  and  C_2 
REMARK    5  A    between atoms: C_6  and  C_3 
REMARK    6  A    between atoms: C_3  and  N_7 
REMARK    7  A    between atoms: C_4  and  O_9 
REMARK    8  A    between atoms: O_11  and  C_5 
REMARK    9  A    between atoms: O_13  and  C_6 
REMARK   10  A    between atoms: P_17  and  O_14 
REMARK   11  A    between atoms: P_17  and  O_15 
ROOT
HETATM    1  C   UNK N   1      -1.366  -0.092  -0.104  0.00  0.00     0.123 C 
HETATM    2  N   UNK N   1      -0.168  -0.172  -0.574  0.00  0.00    -0.359 N 
ATOM      3  HN  UNK N   1      -0.062  -0.492  -1.536  1.00  0.00     0.162 HD
ENDROOT
BRANCH   2   4
HETATM    4  C   UNK N   1       1.038   0.155   0.153  0.00  0.00     0.191 C 
BRANCH   4   5
HETATM    5  C   UNK N   1       2.197  -0.421  -0.669  0.00  0.00     0.145 C 
BRANCH   5   6
HETATM    6  C   UNK N   1       3.394  -0.769   0.157  0.00  0.00     0.141 C 
HETATM    7  O   UNK N   1       3.790  -1.922   0.184  0.00  0.00    -0.650 OA
BRANCH   6   8
HETATM    8  O   UNK N   1       4.039   0.178   0.862  0.00  0.00    -0.776 OA
HETATM    9  H   UNK N   1       4.835   0.119   1.353  0.00  0.00     0.167 HD
ENDBRANCH   6   8
ENDBRANCH   5   6
ENDBRANCH   4   5
BRANCH   4  10
HETATM   10  C   UNK N   1       1.179   1.650   0.366  0.00  0.00     0.164 C 
HETATM   11  O   UNK N   1       2.123   2.262  -0.108  0.00  0.00    -0.648 OA
BRANCH  10  12
HETATM   12  O   UNK N   1       0.266   2.317   1.098  0.00  0.00    -0.775 OA
HETATM   13  H   UNK N   1       0.350   3.099   1.608  0.00  0.00     0.167 HD
ENDBRANCH  10  12
ENDBRANCH   4  10
ENDBRANCH   2   4
BRANCH   1  14
HETATM   14  C   UNK N   1      -2.480  -0.605  -0.943  0.00  0.00     0.208 C 
BRANCH  14  15
HETATM   15  P   UNK N   1      -2.945  -2.299  -0.320  0.00  0.00     0.243 P 
HETATM   16  O   UNK N   1      -1.670  -3.042   0.163  0.00  0.00    -0.653 OA
BRANCH  15  17
HETATM   17  O   UNK N   1      -3.603  -3.370  -1.515  0.00  0.00    -0.329 OA
HETATM   18  H   UNK N   1      -4.306  -3.351  -2.183  0.00  0.00     0.220 HD
ENDBRANCH  15  17
BRANCH  15  19
HETATM   19  O   UNK N   1      -3.993  -2.340   1.062  0.00  0.00    -0.329 OA
HETATM   20  H   UNK N   1      -4.306  -1.845   1.835  0.00  0.00     0.220 HD
ENDBRANCH  15  19
ENDBRANCH  14  15
ENDBRANCH   1  14
BRANCH   1  21
HETATM   21  O   UNK N   1      -1.602   0.328   1.156  0.00  0.00    -0.349 OA
HETATM   22  H   UNK N   1      -1.431   0.616   2.031  0.00  0.00     0.219 HD
ENDBRANCH   1  21
TORSDOF 11
