MODEL 1
REMARK VINA RESULT:      -5.7      0.000      0.000
REMARK  6 active torsions:
REMARK  status: ('A' for Active; 'I' for Inactive)
REMARK    1  A    between atoms: C_1  and  O_7 
REMARK    2  A    between atoms: O_8  and  C_2 
REMARK    3  A    between atoms: C_3  and  O_9 
REMARK    4  A    between atoms: C_5  and  C_4 
REMARK    5  A    between atoms: O_10  and  C_5 
REMARK    6  A    between atoms: C_6  and  O_12 
ROOT
HETATM    1  C   UNK N   1      33.225  15.176   9.948  0.00  0.00     0.211 C 
HETATM    2  C   UNK N   1      33.314  16.472   9.182  0.00  0.00     0.115 C 
HETATM    3  C   UNK N   1      34.279  15.194  11.047  0.00  0.00     0.208 C 
HETATM    4  C   UNK N   1      34.540  16.993   8.915  0.00  0.00     0.177 C 
HETATM    5  C   UNK N   1      35.661  15.384  10.386  0.00  0.00     0.295 C 
HETATM    6  O   UNK N   1      35.657  16.390   9.422  0.00  0.00    -0.309 OA
ENDROOT
BRANCH   4   7
HETATM    7  C   UNK N   1      34.722  18.215   8.088  0.00  0.00     0.203 C 
HETATM    8  O   UNK N   1      34.349  18.258   6.928  0.00  0.00    -0.644 OA
BRANCH   7   9
HETATM    9  O   UNK N   1      35.345  19.284   8.620  0.00  0.00    -0.771 OA
HETATM   10  H   UNK N   1      34.849  19.939   9.071  0.00  0.00     0.167 HD
ENDBRANCH   7   9
ENDBRANCH   4   7
BRANCH   2  11
HETATM   11  O   UNK N   1      32.185  17.084   8.769  0.00  0.00    -0.359 OA
HETATM   12  H   UNK N   1      32.226  17.891   8.296  0.00  0.00     0.217 HD
ENDBRANCH   2  11
BRANCH   1  13
HETATM   13  O   UNK N   1      31.944  14.999  10.477  0.00  0.00    -0.386 OA
HETATM   14  H   UNK N   1      31.429  14.185  10.352  0.00  0.00     0.210 HD
ENDBRANCH   1  13
BRANCH   5  15
HETATM   15  O   UNK N   1      36.602  15.687  11.370  0.00  0.00    -0.368 OA
HETATM   16  H   UNK N   1      37.245  15.161  11.870  0.00  0.00     0.212 HD
ENDBRANCH   5  15
BRANCH   3  17
HETATM   17  O   UNK N   1      34.257  14.000  11.773  0.00  0.00    -0.388 OA
HETATM   18  H   UNK N   1      33.418  13.627  12.086  0.00  0.00     0.210 HD
ENDBRANCH   3  17
TORSDOF 6
ENDMDL
MODEL 2
REMARK VINA RESULT:      -5.6     15.060     16.560
REMARK  6 active torsions:
REMARK  status: ('A' for Active; 'I' for Inactive)
REMARK    1  A    between atoms: C_1  and  O_7 
REMARK    2  A    between atoms: O_8  and  C_2 
REMARK    3  A    between atoms: C_3  and  O_9 
REMARK    4  A    between atoms: C_5  and  C_4 
REMARK    5  A    between atoms: O_10  and  C_5 
REMARK    6  A    between atoms: C_6  and  O_12 
ROOT
HETATM    1  C   UNK N   1      21.124  19.444   3.256  0.00  0.00     0.211 C 
HETATM    2  C   UNK N   1      20.368  18.218   2.808  0.00  0.00     0.115 C 
HETATM    3  C   UNK N   1      20.785  20.590   2.312  0.00  0.00     0.208 C 
HETATM    4  C   UNK N   1      20.255  17.969   1.477  0.00  0.00     0.177 C 
HETATM    5  C   UNK N   1      21.169  20.162   0.879  0.00  0.00     0.295 C 
HETATM    6  O   UNK N   1      20.740  18.872   0.575  0.00  0.00    -0.309 OA
ENDROOT
BRANCH   4   7
HETATM    7  C   UNK N   1      19.608  16.737   0.952  0.00  0.00     0.203 C 
HETATM    8  O   UNK N   1      20.038  15.629   1.222  0.00  0.00    -0.644 OA
BRANCH   7   9
HETATM    9  O   UNK N   1      18.545  16.850   0.131  0.00  0.00    -0.771 OA
HETATM   10  H   UNK N   1      18.152  16.082  -0.235  0.00  0.00     0.167 HD
ENDBRANCH   7   9
ENDBRANCH   4   7
BRANCH   2  11
HETATM   11  O   UNK N   1      19.829  17.392   3.728  0.00  0.00    -0.359 OA
HETATM   12  H   UNK N   1      19.909  17.580   4.642  0.00  0.00     0.217 HD
ENDBRANCH   2  11
BRANCH   1  13
HETATM   13  O   UNK N   1      20.808  19.767   4.579  0.00  0.00    -0.386 OA
HETATM   14  H   UNK N   1      21.190  20.531   5.041  0.00  0.00     0.210 HD
ENDBRANCH   1  13
BRANCH   5  15
HETATM   15  O   UNK N   1      20.615  21.063  -0.032  0.00  0.00    -0.368 OA
HETATM   16  H   UNK N   1      20.319  20.991  -0.952  0.00  0.00     0.212 HD
ENDBRANCH   5  15
BRANCH   3  17
HETATM   17  O   UNK N   1      21.483  21.747   2.668  0.00  0.00    -0.388 OA
HETATM   18  H   UNK N   1      22.388  21.896   2.351  0.00  0.00     0.210 HD
ENDBRANCH   3  17
TORSDOF 6
ENDMDL
MODEL 3
REMARK VINA RESULT:      -5.5     13.732     15.699
REMARK  6 active torsions:
REMARK  status: ('A' for Active; 'I' for Inactive)
REMARK    1  A    between atoms: C_1  and  O_7 
REMARK    2  A    between atoms: O_8  and  C_2 
REMARK    3  A    between atoms: C_3  and  O_9 
REMARK    4  A    between atoms: C_5  and  C_4 
REMARK    5  A    between atoms: O_10  and  C_5 
REMARK    6  A    between atoms: C_6  and  O_12 
ROOT
HETATM    1  C   UNK N   1      20.243  18.830   1.458  0.00  0.00     0.211 C 
HETATM    2  C   UNK N   1      20.681  18.094   2.700  0.00  0.00     0.115 C 
HETATM    3  C   UNK N   1      21.093  20.086   1.319  0.00  0.00     0.208 C 
HETATM    4  C   UNK N   1      20.990  18.811   3.812  0.00  0.00     0.177 C 
HETATM    5  C   UNK N   1      20.907  20.936   2.594  0.00  0.00     0.295 C 
HETATM    6  O   UNK N   1      20.991  20.176   3.759  0.00  0.00    -0.309 OA
ENDROOT
BRANCH   4   7
HETATM    7  C   UNK N   1      21.341  18.163   5.103  0.00  0.00     0.203 C 
HETATM    8  O   UNK N   1      21.879  17.069   5.140  0.00  0.00    -0.644 OA
BRANCH   7   9
HETATM    9  O   UNK N   1      21.027  18.782   6.258  0.00  0.00    -0.771 OA
HETATM   10  H   UNK N   1      20.271  19.333   6.303  0.00  0.00     0.167 HD
ENDBRANCH   7   9
ENDBRANCH   4   7
BRANCH   2  11
HETATM   11  O   UNK N   1      20.749  16.747   2.690  0.00  0.00    -0.359 OA
HETATM   12  H   UNK N   1      20.624  16.257   3.479  0.00  0.00     0.217 HD
ENDBRANCH   2  11
BRANCH   1  13
HETATM   13  O   UNK N   1      20.357  18.013   0.330  0.00  0.00    -0.386 OA
HETATM   14  H   UNK N   1      19.917  17.151   0.256  0.00  0.00     0.210 HD
ENDBRANCH   1  13
BRANCH   5  15
HETATM   15  O   UNK N   1      21.878  21.938   2.622  0.00  0.00    -0.368 OA
HETATM   16  H   UNK N   1      21.855  22.891   2.801  0.00  0.00     0.212 HD
ENDBRANCH   5  15
BRANCH   3  17
HETATM   17  O   UNK N   1      20.708  20.821   0.195  0.00  0.00    -0.388 OA
HETATM   18  H   UNK N   1      19.837  21.249   0.158  0.00  0.00     0.210 HD
ENDBRANCH   3  17
TORSDOF 6
ENDMDL
MODEL 4
REMARK VINA RESULT:      -5.2     14.486     16.189
REMARK  6 active torsions:
REMARK  status: ('A' for Active; 'I' for Inactive)
REMARK    1  A    between atoms: C_1  and  O_7 
REMARK    2  A    between atoms: O_8  and  C_2 
REMARK    3  A    between atoms: C_3  and  O_9 
REMARK    4  A    between atoms: C_5  and  C_4 
REMARK    5  A    between atoms: O_10  and  C_5 
REMARK    6  A    between atoms: C_6  and  O_12 
ROOT
HETATM    1  C   UNK N   1      20.442  19.918   1.228  0.00  0.00     0.211 C 
HETATM    2  C   UNK N   1      20.382  18.426   1.010  0.00  0.00     0.115 C 
HETATM    3  C   UNK N   1      21.427  20.200   2.354  0.00  0.00     0.208 C 
HETATM    4  C   UNK N   1      20.404  17.605   2.092  0.00  0.00     0.177 C 
HETATM    5  C   UNK N   1      20.946  19.448   3.614  0.00  0.00     0.295 C 
HETATM    6  O   UNK N   1      20.574  18.133   3.340  0.00  0.00    -0.309 OA
ENDROOT
BRANCH   4   7
HETATM    7  C   UNK N   1      20.257  16.130   1.974  0.00  0.00     0.203 C 
HETATM    8  O   UNK N   1      21.078  15.369   2.456  0.00  0.00    -0.644 OA
BRANCH   7   9
HETATM    9  O   UNK N   1      19.212  15.625   1.290  0.00  0.00    -0.771 OA
HETATM   10  H   UNK N   1      18.475  16.169   1.091  0.00  0.00     0.167 HD
ENDBRANCH   7   9
ENDBRANCH   4   7
BRANCH   2  11
HETATM   11  O   UNK N   1      20.299  17.936  -0.244  0.00  0.00    -0.359 OA
HETATM   12  H   UNK N   1      19.902  18.441  -0.927  0.00  0.00     0.217 HD
ENDBRANCH   2  11
BRANCH   1  13
HETATM   13  O   UNK N   1      20.813  20.577   0.053  0.00  0.00    -0.386 OA
HETATM   14  H   UNK N   1      20.205  20.707  -0.693  0.00  0.00     0.210 HD
ENDBRANCH   1  13
BRANCH   5  15
HETATM   15  O   UNK N   1      21.965  19.455   4.568  0.00  0.00    -0.368 OA
HETATM   16  H   UNK N   1      22.856  19.837   4.597  0.00  0.00     0.212 HD
ENDBRANCH   5  15
BRANCH   3  17
HETATM   17  O   UNK N   1      21.500  21.571   2.615  0.00  0.00    -0.388 OA
HETATM   18  H   UNK N   1      20.883  21.990   3.237  0.00  0.00     0.210 HD
ENDBRANCH   3  17
TORSDOF 6
ENDMDL
MODEL 5
REMARK VINA RESULT:      -5.0      1.659      2.592
REMARK  6 active torsions:
REMARK  status: ('A' for Active; 'I' for Inactive)
REMARK    1  A    between atoms: C_1  and  O_7 
REMARK    2  A    between atoms: O_8  and  C_2 
REMARK    3  A    between atoms: C_3  and  O_9 
REMARK    4  A    between atoms: C_5  and  C_4 
REMARK    5  A    between atoms: O_10  and  C_5 
REMARK    6  A    between atoms: C_6  and  O_12 
ROOT
HETATM    1  C   UNK N   1      35.051  13.736  11.545  0.00  0.00     0.211 C 
HETATM    2  C   UNK N   1      34.234  14.709  10.732  0.00  0.00     0.115 C 
HETATM    3  C   UNK N   1      36.486  14.243  11.600  0.00  0.00     0.208 C 
HETATM    4  C   UNK N   1      34.785  15.259   9.619  0.00  0.00     0.177 C 
HETATM    5  C   UNK N   1      37.007  14.372  10.153  0.00  0.00     0.295 C 
HETATM    6  O   UNK N   1      36.090  14.997   9.309  0.00  0.00    -0.309 OA
ENDROOT
BRANCH   4   7
HETATM    7  C   UNK N   1      34.020  16.154   8.710  0.00  0.00     0.203 C 
HETATM    8  O   UNK N   1      34.024  15.986   7.503  0.00  0.00    -0.644 OA
BRANCH   7   9
HETATM    9  O   UNK N   1      33.337  17.192   9.230  0.00  0.00    -0.771 OA
HETATM   10  H   UNK N   1      33.112  17.923   8.689  0.00  0.00     0.167 HD
ENDBRANCH   7   9
ENDBRANCH   4   7
BRANCH   2  11
HETATM   11  O   UNK N   1      32.975  15.009  11.115  0.00  0.00    -0.359 OA
HETATM   12  H   UNK N   1      32.513  14.452  11.710  0.00  0.00     0.217 HD
ENDBRANCH   2  11
BRANCH   1  13
HETATM   13  O   UNK N   1      34.516  13.588  12.827  0.00  0.00    -0.386 OA
HETATM   14  H   UNK N   1      33.764  14.112  13.149  0.00  0.00     0.210 HD
ENDBRANCH   1  13
BRANCH   5  15
HETATM   15  O   UNK N   1      38.201  15.095  10.158  0.00  0.00    -0.368 OA
HETATM   16  H   UNK N   1      39.126  14.866   9.975  0.00  0.00     0.212 HD
ENDBRANCH   5  15
BRANCH   3  17
HETATM   17  O   UNK N   1      37.294  13.361  12.322  0.00  0.00    -0.388 OA
HETATM   18  H   UNK N   1      37.042  12.429  12.423  0.00  0.00     0.210 HD
ENDBRANCH   3  17
TORSDOF 6
ENDMDL
MODEL 6
REMARK VINA RESULT:      -5.0      1.362      2.720
REMARK  6 active torsions:
REMARK  status: ('A' for Active; 'I' for Inactive)
REMARK    1  A    between atoms: C_1  and  O_7 
REMARK    2  A    between atoms: O_8  and  C_2 
REMARK    3  A    between atoms: C_3  and  O_9 
REMARK    4  A    between atoms: C_5  and  C_4 
REMARK    5  A    between atoms: O_10  and  C_5 
REMARK    6  A    between atoms: C_6  and  O_12 
ROOT
HETATM    1  C   UNK N   1      34.524  15.455  10.768  0.00  0.00     0.211 C 
HETATM    2  C   UNK N   1      34.927  16.659   9.953  0.00  0.00     0.115 C 
HETATM    3  C   UNK N   1      34.251  14.299   9.815  0.00  0.00     0.208 C 
HETATM    4  C   UNK N   1      34.283  16.903   8.782  0.00  0.00     0.177 C 
HETATM    5  C   UNK N   1      33.142  14.734   8.834  0.00  0.00     0.295 C 
HETATM    6  O   UNK N   1      33.356  16.012   8.320  0.00  0.00    -0.309 OA
ENDROOT
BRANCH   4   7
HETATM    7  C   UNK N   1      34.553  18.115   7.964  0.00  0.00     0.203 C 
HETATM    8  O   UNK N   1      34.982  19.139   8.468  0.00  0.00    -0.644 OA
BRANCH   7   9
HETATM    9  O   UNK N   1      34.284  18.092   6.644  0.00  0.00    -0.771 OA
HETATM   10  H   UNK N   1      34.970  18.241   6.023  0.00  0.00     0.167 HD
ENDBRANCH   7   9
ENDBRANCH   4   7
BRANCH   2  11
HETATM   11  O   UNK N   1      35.906  17.472  10.401  0.00  0.00    -0.359 OA
HETATM   12  H   UNK N   1      36.005  17.638  11.317  0.00  0.00     0.217 HD
ENDBRANCH   2  11
BRANCH   1  13
HETATM   13  O   UNK N   1      35.518  15.126  11.693  0.00  0.00    -0.386 OA
HETATM   14  H   UNK N   1      36.395  14.803  11.432  0.00  0.00     0.210 HD
ENDBRANCH   1  13
BRANCH   5  15
HETATM   15  O   UNK N   1      33.072  13.817   7.785  0.00  0.00    -0.368 OA
HETATM   16  H   UNK N   1      33.526  13.736   6.932  0.00  0.00     0.212 HD
ENDBRANCH   5  15
BRANCH   3  17
HETATM   17  O   UNK N   1      33.846  13.162  10.520  0.00  0.00    -0.388 OA
HETATM   18  H   UNK N   1      33.666  12.330  10.054  0.00  0.00     0.210 HD
ENDBRANCH   3  17
TORSDOF 6
ENDMDL
MODEL 7
REMARK VINA RESULT:      -5.0     10.324     12.665
REMARK  6 active torsions:
REMARK  status: ('A' for Active; 'I' for Inactive)
REMARK    1  A    between atoms: C_1  and  O_7 
REMARK    2  A    between atoms: O_8  and  C_2 
REMARK    3  A    between atoms: C_3  and  O_9 
REMARK    4  A    between atoms: C_5  and  C_4 
REMARK    5  A    between atoms: O_10  and  C_5 
REMARK    6  A    between atoms: C_6  and  O_12 
ROOT
HETATM    1  C   UNK N   1      24.164  12.719   9.118  0.00  0.00     0.211 C 
HETATM    2  C   UNK N   1      24.252  12.532  10.613  0.00  0.00     0.115 C 
HETATM    3  C   UNK N   1      22.840  13.398   8.797  0.00  0.00     0.208 C 
HETATM    4  C   UNK N   1      23.136  12.164  11.294  0.00  0.00     0.177 C 
HETATM    5  C   UNK N   1      21.699  12.510   9.339  0.00  0.00     0.295 C 
HETATM    6  O   UNK N   1      21.943  12.062  10.636  0.00  0.00    -0.309 OA
ENDROOT
BRANCH   4   7
HETATM    7  C   UNK N   1      23.155  11.869  12.751  0.00  0.00     0.203 C 
HETATM    8  O   UNK N   1      24.011  12.336  13.483  0.00  0.00    -0.644 OA
BRANCH   7   9
HETATM    9  O   UNK N   1      22.228  11.039  13.268  0.00  0.00    -0.771 OA
HETATM   10  H   UNK N   1      21.329  11.129  13.021  0.00  0.00     0.167 HD
ENDBRANCH   7   9
ENDBRANCH   4   7
BRANCH   2  11
HETATM   11  O   UNK N   1      25.430  12.723  11.242  0.00  0.00    -0.359 OA
HETATM   12  H   UNK N   1      25.618  13.539  11.663  0.00  0.00     0.217 HD
ENDBRANCH   2  11
BRANCH   1  13
HETATM   13  O   UNK N   1      25.246  13.467   8.647  0.00  0.00    -0.386 OA
HETATM   14  H   UNK N   1      25.453  13.557   7.702  0.00  0.00     0.210 HD
ENDBRANCH   1  13
BRANCH   5  15
HETATM   15  O   UNK N   1      20.505  13.232   9.314  0.00  0.00    -0.368 OA
HETATM   16  H   UNK N   1      19.722  13.255   9.885  0.00  0.00     0.212 HD
ENDBRANCH   5  15
BRANCH   3  17
HETATM   17  O   UNK N   1      22.695  13.571   7.417  0.00  0.00    -0.388 OA
HETATM   18  H   UNK N   1      23.420  13.935   6.886  0.00  0.00     0.210 HD
ENDBRANCH   3  17
TORSDOF 6
ENDMDL
MODEL 8
REMARK VINA RESULT:      -5.0     14.035     15.311
REMARK  6 active torsions:
REMARK  status: ('A' for Active; 'I' for Inactive)
REMARK    1  A    between atoms: C_1  and  O_7 
REMARK    2  A    between atoms: O_8  and  C_2 
REMARK    3  A    between atoms: C_3  and  O_9 
REMARK    4  A    between atoms: C_5  and  C_4 
REMARK    5  A    between atoms: O_10  and  C_5 
REMARK    6  A    between atoms: C_6  and  O_12 
ROOT
HETATM    1  C   UNK N   1      20.214  17.489   1.821  0.00  0.00     0.211 C 
HETATM    2  C   UNK N   1      20.788  18.880   1.726  0.00  0.00     0.115 C 
HETATM    3  C   UNK N   1      19.828  17.227   3.271  0.00  0.00     0.208 C 
HETATM    4  C   UNK N   1      21.603  19.323   2.719  0.00  0.00     0.177 C 
HETATM    5  C   UNK N   1      21.090  17.396   4.144  0.00  0.00     0.295 C 
HETATM    6  O   UNK N   1      21.811  18.545   3.822  0.00  0.00    -0.309 OA
ENDROOT
BRANCH   4   7
HETATM    7  C   UNK N   1      22.283  20.644   2.659  0.00  0.00     0.203 C 
HETATM    8  O   UNK N   1      23.499  20.731   2.636  0.00  0.00    -0.644 OA
BRANCH   7   9
HETATM    9  O   UNK N   1      21.542  21.769   2.666  0.00  0.00    -0.771 OA
HETATM   10  H   UNK N   1      21.615  22.374   3.378  0.00  0.00     0.167 HD
ENDBRANCH   7   9
ENDBRANCH   4   7
BRANCH   2  11
HETATM   11  O   UNK N   1      20.493  19.653   0.660  0.00  0.00    -0.359 OA
HETATM   12  H   UNK N   1      19.688  19.536   0.195  0.00  0.00     0.217 HD
ENDBRANCH   2  11
BRANCH   1  13
HETATM   13  O   UNK N   1      19.116  17.344   0.970  0.00  0.00    -0.386 OA
HETATM   14  H   UNK N   1      19.173  16.910   0.104  0.00  0.00     0.210 HD
ENDBRANCH   1  13
BRANCH   5  15
HETATM   15  O   UNK N   1      20.716  17.444   5.487  0.00  0.00    -0.368 OA
HETATM   16  H   UNK N   1      20.179  18.057   6.014  0.00  0.00     0.212 HD
ENDBRANCH   5  15
BRANCH   3  17
HETATM   17  O   UNK N   1      19.315  15.936   3.421  0.00  0.00    -0.388 OA
HETATM   18  H   UNK N   1      18.596  15.759   4.048  0.00  0.00     0.210 HD
ENDBRANCH   3  17
TORSDOF 6
ENDMDL
MODEL 9
REMARK VINA RESULT:      -4.9     10.467     12.416
REMARK  6 active torsions:
REMARK  status: ('A' for Active; 'I' for Inactive)
REMARK    1  A    between atoms: C_1  and  O_7 
REMARK    2  A    between atoms: O_8  and  C_2 
REMARK    3  A    between atoms: C_3  and  O_9 
REMARK    4  A    between atoms: C_5  and  C_4 
REMARK    5  A    between atoms: O_10  and  C_5 
REMARK    6  A    between atoms: C_6  and  O_12 
ROOT
HETATM    1  C   UNK N   1      44.380  20.760   2.991  0.00  0.00     0.211 C 
HETATM    2  C   UNK N   1      42.924  20.471   2.721  0.00  0.00     0.115 C 
HETATM    3  C   UNK N   1      44.464  21.921   3.974  0.00  0.00     0.208 C 
HETATM    4  C   UNK N   1      42.062  21.512   2.592  0.00  0.00     0.177 C 
HETATM    5  C   UNK N   1      43.737  23.132   3.352  0.00  0.00     0.295 C 
HETATM    6  O   UNK N   1      42.504  22.788   2.800  0.00  0.00    -0.309 OA
ENDROOT
BRANCH   4   7
HETATM    7  C   UNK N   1      40.631  21.321   2.234  0.00  0.00     0.203 C 
HETATM    8  O   UNK N   1      40.166  21.785   1.208  0.00  0.00    -0.644 OA
BRANCH   7   9
HETATM    9  O   UNK N   1      39.825  20.649   3.079  0.00  0.00    -0.771 OA
HETATM   10  H   UNK N   1      38.916  20.872   3.136  0.00  0.00     0.167 HD
ENDBRANCH   7   9
ENDBRANCH   4   7
BRANCH   2  11
HETATM   11  O   UNK N   1      42.507  19.193   2.604  0.00  0.00    -0.359 OA
HETATM   12  H   UNK N   1      43.023  18.491   2.948  0.00  0.00     0.217 HD
ENDBRANCH   2  11
BRANCH   1  13
HETATM   13  O   UNK N   1      45.028  19.627   3.488  0.00  0.00    -0.386 OA
HETATM   14  H   UNK N   1      44.992  19.366   4.423  0.00  0.00     0.210 HD
ENDBRANCH   1  13
BRANCH   5  15
HETATM   15  O   UNK N   1      43.551  24.108   4.332  0.00  0.00    -0.368 OA
HETATM   16  H   UNK N   1      42.787  24.400   4.854  0.00  0.00     0.212 HD
ENDBRANCH   5  15
BRANCH   3  17
HETATM   17  O   UNK N   1      45.797  22.249   4.238  0.00  0.00    -0.388 OA
HETATM   18  H   UNK N   1      46.353  21.663   4.776  0.00  0.00     0.210 HD
ENDBRANCH   3  17
TORSDOF 6
ENDMDL
