MODEL 1
REMARK VINA RESULT:      -6.8      0.000      0.000
REMARK  14 active torsions:
REMARK  status: ('A' for Active; 'I' for Inactive)
REMARK    1  A    between atoms: C_9  and  C_5 
REMARK    2  A    between atoms: N_13  and  C_5 
REMARK    3  A    between atoms: C_10  and  C_6 
REMARK    4  A    between atoms: O_22  and  C_6 
REMARK    5  A    between atoms: C_12  and  C_7 
REMARK    6  A    between atoms: N_13  and  C_8 
REMARK    7  A    between atoms: C_11  and  C_9 
REMARK    8  A    between atoms: C_9  and  O_14 
REMARK    9  A    between atoms: C_11  and  C_10 
REMARK   10  A    between atoms: C_10  and  O_15 
REMARK   11  A    between atoms: O_18  and  C_12 
REMARK   12  A    between atoms: P_23  and  O_19 
REMARK   13  A    between atoms: P_23  and  O_20 
REMARK   14  A    between atoms: P_23  and  O_22 
ROOT
HETATM    1  C   UNK N   1      34.580  14.925  11.188  0.00  0.00     0.179 C 
HETATM    2  O   UNK N   1      33.203  15.182  11.121  0.00  0.00    -0.390 OA
HETATM    3  H   UNK N   1      32.254  15.319  10.973  0.00  0.00     0.210 HD
ENDROOT
BRANCH   1   4
HETATM    4  C   UNK N   1      34.877  13.615  10.446  0.00  0.00     0.167 C 
BRANCH   4   5
HETATM    5  C   UNK N   1      35.186  12.564  11.509  0.00  0.00     0.154 C 
BRANCH   5   6
HETATM    6  N   UNK N   1      34.556  12.858  12.759  0.00  0.00    -0.387 N 
HETATM    7  H   UNK N   1      33.839  13.534  12.753  0.00  0.00     0.159 HD
BRANCH   6   8
HETATM    8  C   UNK N   1      34.875  12.259  14.014  0.00  0.00     0.045 A 
HETATM    9  C   UNK N   1      34.164  11.089  14.312  0.00  0.00     0.030 A 
HETATM   10  C   UNK N   1      34.341  10.410  15.514  0.00  0.00     0.002 A 
HETATM   11  C   UNK N   1      35.237  10.894  16.455  0.00  0.00     0.001 A 
HETATM   12  C   UNK N   1      35.967  12.048  16.190  0.00  0.00     0.020 A 
HETATM   13  C   UNK N   1      35.825  12.759  14.982  0.00  0.00     0.064 A 
BRANCH  13  14
HETATM   14  C   UNK N   1      36.735  13.944  14.857  0.00  0.00     0.178 C 
HETATM   15  O   UNK N   1      37.335  14.408  15.811  0.00  0.00    -0.646 OA
BRANCH  14  16
HETATM   16  O   UNK N   1      36.842  14.573  13.672  0.00  0.00    -0.773 OA
HETATM   17  H   UNK N   1      36.477  15.428  13.560  0.00  0.00     0.167 HD
ENDBRANCH  14  16
ENDBRANCH  13  14
ENDBRANCH   6   8
ENDBRANCH   5   6
ENDBRANCH   4   5
BRANCH   4  18
HETATM   18  O   UNK N   1      33.766  13.200   9.708  0.00  0.00    -0.391 OA
HETATM   19  H   UNK N   1      33.840  12.793   8.830  0.00  0.00     0.210 HD
ENDBRANCH   4  18
ENDBRANCH   1   4
BRANCH   1  20
HETATM   20  C   UNK N   1      35.357  16.166  10.712  0.00  0.00     0.173 C 
BRANCH  20  21
HETATM   21  C   UNK N   1      35.226  16.163   9.196  0.00  0.00     0.214 C 
BRANCH  21  22
HETATM   22  O   UNK N   1      33.935  16.348   8.716  0.00  0.00    -0.294 OA
BRANCH  22  23
HETATM   23  P   UNK N   1      34.037  17.919   7.962  0.00  0.00     0.390 P 
HETATM   24  O   UNK N   1      32.682  18.654   8.177  0.00  0.00    -0.632 OA
BRANCH  23  25
HETATM   25  O   UNK N   1      35.250  18.914   8.700  0.00  0.00    -0.307 OA
HETATM   26  H   UNK N   1      35.290  19.361   9.560  0.00  0.00     0.222 HD
ENDBRANCH  23  25
BRANCH  23  27
HETATM   27  O   UNK N   1      34.280  17.796   6.247  0.00  0.00    -0.307 OA
HETATM   28  H   UNK N   1      34.553  17.430   5.391  0.00  0.00     0.222 HD
ENDBRANCH  23  27
ENDBRANCH  22  23
ENDBRANCH  21  22
ENDBRANCH  20  21
BRANCH  20  29
HETATM   29  O   UNK N   1      36.707  16.081  11.058  0.00  0.00    -0.391 OA
HETATM   30  H   UNK N   1      37.403  16.472  10.505  0.00  0.00     0.210 HD
ENDBRANCH  20  29
ENDBRANCH   1  20
TORSDOF 14
ENDMDL
MODEL 2
REMARK VINA RESULT:      -6.8      1.990      3.097
REMARK  14 active torsions:
REMARK  status: ('A' for Active; 'I' for Inactive)
REMARK    1  A    between atoms: C_9  and  C_5 
REMARK    2  A    between atoms: N_13  and  C_5 
REMARK    3  A    between atoms: C_10  and  C_6 
REMARK    4  A    between atoms: O_22  and  C_6 
REMARK    5  A    between atoms: C_12  and  C_7 
REMARK    6  A    between atoms: N_13  and  C_8 
REMARK    7  A    between atoms: C_11  and  C_9 
REMARK    8  A    between atoms: C_9  and  O_14 
REMARK    9  A    between atoms: C_11  and  C_10 
REMARK   10  A    between atoms: C_10  and  O_15 
REMARK   11  A    between atoms: O_18  and  C_12 
REMARK   12  A    between atoms: P_23  and  O_19 
REMARK   13  A    between atoms: P_23  and  O_20 
REMARK   14  A    between atoms: P_23  and  O_22 
ROOT
HETATM    1  C   UNK N   1      35.014  15.135  10.650  0.00  0.00     0.179 C 
HETATM    2  O   UNK N   1      34.981  16.416  11.219  0.00  0.00    -0.390 OA
HETATM    3  H   UNK N   1      34.925  17.254  11.706  0.00  0.00     0.210 HD
ENDROOT
BRANCH   1   4
HETATM    4  C   UNK N   1      35.505  14.136  11.706  0.00  0.00     0.167 C 
BRANCH   4   5
HETATM    5  C   UNK N   1      36.282  14.937  12.747  0.00  0.00     0.154 C 
BRANCH   5   6
HETATM    6  N   UNK N   1      36.792  14.109  13.796  0.00  0.00    -0.387 N 
HETATM    7  H   UNK N   1      37.411  13.387  13.538  0.00  0.00     0.159 HD
BRANCH   6   8
HETATM    8  C   UNK N   1      36.483  14.235  15.184  0.00  0.00     0.045 A 
HETATM    9  C   UNK N   1      37.059  15.342  15.822  0.00  0.00     0.030 A 
HETATM   10  C   UNK N   1      36.877  15.580  17.181  0.00  0.00     0.002 A 
HETATM   11  C   UNK N   1      36.111  14.706  17.938  0.00  0.00     0.001 A 
HETATM   12  C   UNK N   1      35.517  13.603  17.337  0.00  0.00     0.020 A 
HETATM   13  C   UNK N   1      35.668  13.331  15.963  0.00  0.00     0.064 A 
BRANCH  13  14
HETATM   14  C   UNK N   1      34.909  12.129  15.488  0.00  0.00     0.178 C 
HETATM   15  O   UNK N   1      33.932  12.220  14.766  0.00  0.00    -0.646 OA
BRANCH  14  16
HETATM   16  O   UNK N   1      35.261  10.907  15.929  0.00  0.00    -0.773 OA
HETATM   17  H   UNK N   1      34.661  10.400  16.440  0.00  0.00     0.167 HD
ENDBRANCH  14  16
ENDBRANCH  13  14
ENDBRANCH   6   8
ENDBRANCH   5   6
ENDBRANCH   4   5
BRANCH   4  18
HETATM   18  O   UNK N   1      34.427  13.505  12.331  0.00  0.00    -0.391 OA
HETATM   19  H   UNK N   1      33.503  13.744  12.154  0.00  0.00     0.210 HD
ENDBRANCH   4  18
ENDBRANCH   1   4
BRANCH   1  20
HETATM   20  C   UNK N   1      33.651  14.825  10.006  0.00  0.00     0.173 C 
BRANCH  20  21
HETATM   21  C   UNK N   1      33.545  15.771   8.818  0.00  0.00     0.214 C 
BRANCH  21  22
HETATM   22  O   UNK N   1      34.739  16.367   8.431  0.00  0.00    -0.294 OA
BRANCH  22  23
HETATM   23  P   UNK N   1      34.218  17.952   7.918  0.00  0.00     0.390 P 
HETATM   24  O   UNK N   1      34.263  18.004   6.364  0.00  0.00    -0.632 OA
BRANCH  23  25
HETATM   25  O   UNK N   1      32.573  18.270   8.365  0.00  0.00    -0.307 OA
HETATM   26  H   UNK N   1      32.152  18.438   9.222  0.00  0.00     0.222 HD
ENDBRANCH  23  25
BRANCH  23  27
HETATM   27  O   UNK N   1      35.280  19.198   8.497  0.00  0.00    -0.307 OA
HETATM   28  H   UNK N   1      35.784  20.027   8.516  0.00  0.00     0.222 HD
ENDBRANCH  23  27
ENDBRANCH  22  23
ENDBRANCH  21  22
ENDBRANCH  20  21
BRANCH  20  29
HETATM   29  O   UNK N   1      32.602  15.079  10.892  0.00  0.00    -0.391 OA
HETATM   30  H   UNK N   1      31.873  14.450  11.016  0.00  0.00     0.210 HD
ENDBRANCH  20  29
ENDBRANCH   1  20
TORSDOF 14
ENDMDL
MODEL 3
REMARK VINA RESULT:      -6.6      1.522      2.299
REMARK  14 active torsions:
REMARK  status: ('A' for Active; 'I' for Inactive)
REMARK    1  A    between atoms: C_9  and  C_5 
REMARK    2  A    between atoms: N_13  and  C_5 
REMARK    3  A    between atoms: C_10  and  C_6 
REMARK    4  A    between atoms: O_22  and  C_6 
REMARK    5  A    between atoms: C_12  and  C_7 
REMARK    6  A    between atoms: N_13  and  C_8 
REMARK    7  A    between atoms: C_11  and  C_9 
REMARK    8  A    between atoms: C_9  and  O_14 
REMARK    9  A    between atoms: C_11  and  C_10 
REMARK   10  A    between atoms: C_10  and  O_15 
REMARK   11  A    between atoms: O_18  and  C_12 
REMARK   12  A    between atoms: P_23  and  O_19 
REMARK   13  A    between atoms: P_23  and  O_20 
REMARK   14  A    between atoms: P_23  and  O_22 
ROOT
HETATM    1  C   UNK N   1      35.007  15.053  10.767  0.00  0.00     0.179 C 
HETATM    2  O   UNK N   1      34.990  16.299  11.409  0.00  0.00    -0.390 OA
HETATM    3  H   UNK N   1      34.941  17.109  11.941  0.00  0.00     0.210 HD
ENDROOT
BRANCH   1   4
HETATM    4  C   UNK N   1      35.442  13.981  11.775  0.00  0.00     0.167 C 
BRANCH   4   5
HETATM    5  C   UNK N   1      35.973  14.717  13.003  0.00  0.00     0.154 C 
BRANCH   5   6
HETATM    6  N   UNK N   1      36.701  13.852  13.879  0.00  0.00    -0.387 N 
HETATM    7  H   UNK N   1      37.628  13.632  13.626  0.00  0.00     0.159 HD
BRANCH   6   8
HETATM    8  C   UNK N   1      36.204  13.278  15.087  0.00  0.00     0.045 A 
HETATM    9  C   UNK N   1      35.619  12.013  14.947  0.00  0.00     0.030 A 
HETATM   10  C   UNK N   1      35.059  11.342  16.030  0.00  0.00     0.002 A 
HETATM   11  C   UNK N   1      35.069  11.928  17.286  0.00  0.00     0.001 A 
HETATM   12  C   UNK N   1      35.650  13.179  17.464  0.00  0.00     0.020 A 
HETATM   13  C   UNK N   1      36.235  13.888  16.398  0.00  0.00     0.064 A 
BRANCH  13  14
HETATM   14  C   UNK N   1      36.858  15.192  16.796  0.00  0.00     0.178 C 
HETATM   15  O   UNK N   1      37.701  15.746  16.113  0.00  0.00    -0.646 OA
BRANCH  14  16
HETATM   16  O   UNK N   1      36.538  15.743  17.982  0.00  0.00    -0.773 OA
HETATM   17  H   UNK N   1      37.197  15.858  18.638  0.00  0.00     0.167 HD
ENDBRANCH  14  16
ENDBRANCH  13  14
ENDBRANCH   6   8
ENDBRANCH   5   6
ENDBRANCH   4   5
BRANCH   4  18
HETATM   18  O   UNK N   1      34.356  13.189  12.156  0.00  0.00    -0.391 OA
HETATM   19  H   UNK N   1      33.448  13.365  11.864  0.00  0.00     0.210 HD
ENDBRANCH   4  18
ENDBRANCH   1   4
BRANCH   1  20
HETATM   20  C   UNK N   1      33.655  14.817  10.068  0.00  0.00     0.173 C 
BRANCH  20  21
HETATM   21  C   UNK N   1      33.615  15.820   8.924  0.00  0.00     0.214 C 
BRANCH  21  22
HETATM   22  O   UNK N   1      34.822  16.453   8.653  0.00  0.00    -0.294 OA
BRANCH  22  23
HETATM   23  P   UNK N   1      34.303  17.998   8.030  0.00  0.00     0.390 P 
HETATM   24  O   UNK N   1      34.410  17.961   6.478  0.00  0.00    -0.632 OA
BRANCH  23  25
HETATM   25  O   UNK N   1      32.637  18.317   8.392  0.00  0.00    -0.307 OA
HETATM   26  H   UNK N   1      32.203  19.038   8.874  0.00  0.00     0.222 HD
ENDBRANCH  23  25
BRANCH  23  27
HETATM   27  O   UNK N   1      35.326  19.291   8.576  0.00  0.00    -0.307 OA
HETATM   28  H   UNK N   1      35.867  20.096   8.549  0.00  0.00     0.222 HD
ENDBRANCH  23  27
ENDBRANCH  22  23
ENDBRANCH  21  22
ENDBRANCH  20  21
BRANCH  20  29
HETATM   29  O   UNK N   1      32.588  15.063  10.934  0.00  0.00    -0.391 OA
HETATM   30  H   UNK N   1      31.837  14.453  11.007  0.00  0.00     0.210 HD
ENDBRANCH  20  29
ENDBRANCH   1  20
TORSDOF 14
ENDMDL
MODEL 4
REMARK VINA RESULT:      -6.5      4.329      8.088
REMARK  14 active torsions:
REMARK  status: ('A' for Active; 'I' for Inactive)
REMARK    1  A    between atoms: C_9  and  C_5 
REMARK    2  A    between atoms: N_13  and  C_5 
REMARK    3  A    between atoms: C_10  and  C_6 
REMARK    4  A    between atoms: O_22  and  C_6 
REMARK    5  A    between atoms: C_12  and  C_7 
REMARK    6  A    between atoms: N_13  and  C_8 
REMARK    7  A    between atoms: C_11  and  C_9 
REMARK    8  A    between atoms: C_9  and  O_14 
REMARK    9  A    between atoms: C_11  and  C_10 
REMARK   10  A    between atoms: C_10  and  O_15 
REMARK   11  A    between atoms: O_18  and  C_12 
REMARK   12  A    between atoms: P_23  and  O_19 
REMARK   13  A    between atoms: P_23  and  O_20 
REMARK   14  A    between atoms: P_23  and  O_22 
ROOT
HETATM    1  C   UNK N   1      33.270  15.240   9.673  0.00  0.00     0.179 C 
HETATM    2  O   UNK N   1      33.184  15.078  11.063  0.00  0.00    -0.390 OA
HETATM    3  H   UNK N   1      33.229  14.998  12.029  0.00  0.00     0.210 HD
ENDROOT
BRANCH   1   4
HETATM    4  C   UNK N   1      34.153  16.458   9.369  0.00  0.00     0.167 C 
BRANCH   4   5
HETATM    5  C   UNK N   1      33.252  17.507   8.723  0.00  0.00     0.154 C 
BRANCH   5   6
HETATM    6  N   UNK N   1      31.866  17.167   8.826  0.00  0.00    -0.387 N 
HETATM    7  H   UNK N   1      31.566  16.755   9.668  0.00  0.00     0.159 HD
BRANCH   6   8
HETATM    8  C   UNK N   1      30.880  17.372   7.815  0.00  0.00     0.045 A 
HETATM    9  C   UNK N   1      31.271  17.006   6.521  0.00  0.00     0.030 A 
HETATM   10  C   UNK N   1      30.430  17.179   5.425  0.00  0.00     0.002 A 
HETATM   11  C   UNK N   1      29.170  17.731   5.602  0.00  0.00     0.001 A 
HETATM   12  C   UNK N   1      28.745  18.097   6.874  0.00  0.00     0.020 A 
HETATM   13  C   UNK N   1      29.561  17.931   8.010  0.00  0.00     0.064 A 
BRANCH  13  14
HETATM   14  C   UNK N   1      28.909  18.333   9.298  0.00  0.00     0.178 C 
HETATM   15  O   UNK N   1      29.546  18.756  10.246  0.00  0.00    -0.646 OA
BRANCH  14  16
HETATM   16  O   UNK N   1      27.583  18.154   9.453  0.00  0.00    -0.773 OA
HETATM   17  H   UNK N   1      27.261  17.586  10.124  0.00  0.00     0.167 HD
ENDBRANCH  14  16
ENDBRANCH  13  14
ENDBRANCH   6   8
ENDBRANCH   5   6
ENDBRANCH   4   5
BRANCH   4  18
HETATM   18  O   UNK N   1      34.692  16.985  10.544  0.00  0.00    -0.391 OA
HETATM   19  H   UNK N   1      35.100  17.865  10.588  0.00  0.00     0.210 HD
ENDBRANCH   4  18
ENDBRANCH   1   4
BRANCH   1  20
HETATM   20  C   UNK N   1      33.704  13.911   9.027  0.00  0.00     0.173 C 
BRANCH  20  21
HETATM   21  C   UNK N   1      35.173  13.749   9.392  0.00  0.00     0.214 C 
BRANCH  21  22
HETATM   22  O   UNK N   1      35.416  13.016  10.548  0.00  0.00    -0.294 OA
BRANCH  22  23
HETATM   23  P   UNK N   1      36.543  14.034  11.406  0.00  0.00     0.390 P 
HETATM   24  O   UNK N   1      35.762  14.820  12.498  0.00  0.00    -0.632 OA
BRANCH  23  25
HETATM   25  O   UNK N   1      37.746  13.108  12.244  0.00  0.00    -0.307 OA
HETATM   26  H   UNK N   1      37.907  12.953  13.187  0.00  0.00     0.222 HD
ENDBRANCH  23  25
BRANCH  23  27
HETATM   27  O   UNK N   1      37.272  15.214  10.359  0.00  0.00    -0.307 OA
HETATM   28  H   UNK N   1      37.779  15.993  10.081  0.00  0.00     0.222 HD
ENDBRANCH  23  27
ENDBRANCH  22  23
ENDBRANCH  21  22
ENDBRANCH  20  21
BRANCH  20  29
HETATM   29  O   UNK N   1      33.576  13.957   7.638  0.00  0.00    -0.391 OA
HETATM   30  H   UNK N   1      32.720  14.110   7.207  0.00  0.00     0.210 HD
ENDBRANCH  20  29
ENDBRANCH   1  20
TORSDOF 14
ENDMDL
MODEL 5
REMARK VINA RESULT:      -6.4      4.407      8.341
REMARK  14 active torsions:
REMARK  status: ('A' for Active; 'I' for Inactive)
REMARK    1  A    between atoms: C_9  and  C_5 
REMARK    2  A    between atoms: N_13  and  C_5 
REMARK    3  A    between atoms: C_10  and  C_6 
REMARK    4  A    between atoms: O_22  and  C_6 
REMARK    5  A    between atoms: C_12  and  C_7 
REMARK    6  A    between atoms: N_13  and  C_8 
REMARK    7  A    between atoms: C_11  and  C_9 
REMARK    8  A    between atoms: C_9  and  O_14 
REMARK    9  A    between atoms: C_11  and  C_10 
REMARK   10  A    between atoms: C_10  and  O_15 
REMARK   11  A    between atoms: O_18  and  C_12 
REMARK   12  A    between atoms: P_23  and  O_19 
REMARK   13  A    between atoms: P_23  and  O_20 
REMARK   14  A    between atoms: P_23  and  O_22 
ROOT
HETATM    1  C   UNK N   1      34.590  14.923  10.231  0.00  0.00     0.179 C 
HETATM    2  O   UNK N   1      33.807  14.961  11.393  0.00  0.00    -0.390 OA
HETATM    3  H   UNK N   1      33.265  15.097  12.186  0.00  0.00     0.210 HD
ENDROOT
BRANCH   1   4
HETATM    4  C   UNK N   1      34.097  16.007   9.264  0.00  0.00     0.167 C 
BRANCH   4   5
HETATM    5  C   UNK N   1      32.651  15.665   8.915  0.00  0.00     0.154 C 
BRANCH   5   6
HETATM    6  N   UNK N   1      31.822  16.829   8.843  0.00  0.00    -0.387 N 
HETATM    7  H   UNK N   1      31.942  17.510   9.544  0.00  0.00     0.159 HD
BRANCH   6   8
HETATM    8  C   UNK N   1      30.838  17.091   7.843  0.00  0.00     0.045 A 
HETATM    9  C   UNK N   1      31.301  17.031   6.523  0.00  0.00     0.030 A 
HETATM   10  C   UNK N   1      30.467  17.296   5.441  0.00  0.00     0.002 A 
HETATM   11  C   UNK N   1      29.140  17.633   5.659  0.00  0.00     0.001 A 
HETATM   12  C   UNK N   1      28.642  17.693   6.956  0.00  0.00     0.020 A 
HETATM   13  C   UNK N   1      29.450  17.423   8.078  0.00  0.00     0.064 A 
BRANCH  13  14
HETATM   14  C   UNK N   1      28.724  17.485   9.387  0.00  0.00     0.178 C 
HETATM   15  O   UNK N   1      29.181  17.005  10.409  0.00  0.00    -0.646 OA
BRANCH  14  16
HETATM   16  O   UNK N   1      27.489  18.018   9.434  0.00  0.00    -0.773 OA
HETATM   17  H   UNK N   1      27.288  18.784   8.932  0.00  0.00     0.167 HD
ENDBRANCH  14  16
ENDBRANCH  13  14
ENDBRANCH   6   8
ENDBRANCH   5   6
ENDBRANCH   4   5
BRANCH   4  18
HETATM   18  O   UNK N   1      34.131  17.265   9.870  0.00  0.00    -0.391 OA
HETATM   19  H   UNK N   1      34.727  17.973   9.578  0.00  0.00     0.210 HD
ENDBRANCH   4  18
ENDBRANCH   1   4
BRANCH   1  20
HETATM   20  C   UNK N   1      36.080  14.983  10.614  0.00  0.00     0.173 C 
BRANCH  20  21
HETATM   21  C   UNK N   1      36.191  14.207  11.919  0.00  0.00     0.214 C 
BRANCH  21  22
HETATM   22  O   UNK N   1      36.226  14.989  13.068  0.00  0.00    -0.294 OA
BRANCH  22  23
HETATM   23  P   UNK N   1      36.412  13.795  14.327  0.00  0.00     0.390 P 
HETATM   24  O   UNK N   1      37.029  12.512  13.699  0.00  0.00    -0.632 OA
BRANCH  23  25
HETATM   25  O   UNK N   1      37.521  14.314  15.555  0.00  0.00    -0.307 OA
HETATM   26  H   UNK N   1      37.944  13.844  16.289  0.00  0.00     0.222 HD
ENDBRANCH  23  25
BRANCH  23  27
HETATM   27  O   UNK N   1      34.883  13.337  15.011  0.00  0.00    -0.307 OA
HETATM   28  H   UNK N   1      34.178  12.772  15.367  0.00  0.00     0.222 HD
ENDBRANCH  23  27
ENDBRANCH  22  23
ENDBRANCH  21  22
ENDBRANCH  20  21
BRANCH  20  29
HETATM   29  O   UNK N   1      36.497  16.299  10.824  0.00  0.00    -0.391 OA
HETATM   30  H   UNK N   1      36.862  16.591  11.674  0.00  0.00     0.210 HD
ENDBRANCH  20  29
ENDBRANCH   1  20
TORSDOF 14
ENDMDL
MODEL 6
REMARK VINA RESULT:      -6.2      5.157      8.856
REMARK  14 active torsions:
REMARK  status: ('A' for Active; 'I' for Inactive)
REMARK    1  A    between atoms: C_9  and  C_5 
REMARK    2  A    between atoms: N_13  and  C_5 
REMARK    3  A    between atoms: C_10  and  C_6 
REMARK    4  A    between atoms: O_22  and  C_6 
REMARK    5  A    between atoms: C_12  and  C_7 
REMARK    6  A    between atoms: N_13  and  C_8 
REMARK    7  A    between atoms: C_11  and  C_9 
REMARK    8  A    between atoms: C_9  and  O_14 
REMARK    9  A    between atoms: C_11  and  C_10 
REMARK   10  A    between atoms: C_10  and  O_15 
REMARK   11  A    between atoms: O_18  and  C_12 
REMARK   12  A    between atoms: P_23  and  O_19 
REMARK   13  A    between atoms: P_23  and  O_20 
REMARK   14  A    between atoms: P_23  and  O_22 
ROOT
HETATM    1  C   UNK N   1      34.038  17.333   7.877  0.00  0.00     0.179 C 
HETATM    2  O   UNK N   1      34.661  18.206   6.974  0.00  0.00    -0.390 OA
HETATM    3  H   UNK N   1      35.005  18.797   6.285  0.00  0.00     0.210 HD
ENDROOT
BRANCH   1   4
HETATM    4  C   UNK N   1      32.527  17.597   7.860  0.00  0.00     0.167 C 
BRANCH   4   5
HETATM    5  C   UNK N   1      31.966  16.885   6.632  0.00  0.00     0.154 C 
BRANCH   5   6
HETATM    6  N   UNK N   1      30.564  16.625   6.751  0.00  0.00    -0.387 N 
HETATM    7  H   UNK N   1      30.299  15.747   7.111  0.00  0.00     0.159 HD
BRANCH   6   8
HETATM    8  C   UNK N   1      29.517  17.525   6.393  0.00  0.00     0.045 A 
HETATM    9  C   UNK N   1      29.432  17.825   5.027  0.00  0.00     0.030 A 
HETATM   10  C   UNK N   1      28.483  18.714   4.530  0.00  0.00     0.002 A 
HETATM   11  C   UNK N   1      27.593  19.330   5.397  0.00  0.00     0.001 A 
HETATM   12  C   UNK N   1      27.642  19.048   6.758  0.00  0.00     0.020 A 
HETATM   13  C   UNK N   1      28.579  18.149   7.300  0.00  0.00     0.064 A 
BRANCH  13  14
HETATM   14  C   UNK N   1      28.441  17.933   8.777  0.00  0.00     0.178 C 
HETATM   15  O   UNK N   1      29.260  17.305   9.423  0.00  0.00    -0.646 OA
BRANCH  14  16
HETATM   16  O   UNK N   1      27.339  18.379   9.410  0.00  0.00    -0.773 OA
HETATM   17  H   UNK N   1      26.690  17.772   9.706  0.00  0.00     0.167 HD
ENDBRANCH  14  16
ENDBRANCH  13  14
ENDBRANCH   6   8
ENDBRANCH   5   6
ENDBRANCH   4   5
BRANCH   4  18
HETATM   18  O   UNK N   1      31.919  17.073   9.004  0.00  0.00    -0.391 OA
HETATM   19  H   UNK N   1      32.367  17.028   9.863  0.00  0.00     0.210 HD
ENDBRANCH   4  18
ENDBRANCH   1   4
BRANCH   1  20
HETATM   20  C   UNK N   1      34.477  15.887   7.578  0.00  0.00     0.173 C 
BRANCH  20  21
HETATM   21  C   UNK N   1      35.390  15.499   8.732  0.00  0.00     0.214 C 
BRANCH  21  22
HETATM   22  O   UNK N   1      34.987  14.378   9.450  0.00  0.00    -0.294 OA
BRANCH  22  23
HETATM   23  P   UNK N   1      34.343  15.082  10.911  0.00  0.00     0.390 P 
HETATM   24  O   UNK N   1      34.818  14.224  12.119  0.00  0.00    -0.632 OA
BRANCH  23  25
HETATM   25  O   UNK N   1      34.954  16.682  11.185  0.00  0.00    -0.307 OA
HETATM   26  H   UNK N   1      35.814  17.089  11.004  0.00  0.00     0.222 HD
ENDBRANCH  23  25
BRANCH  23  27
HETATM   27  O   UNK N   1      32.607  15.059  10.926  0.00  0.00    -0.307 OA
HETATM   28  H   UNK N   1      31.702  14.874  11.226  0.00  0.00     0.222 HD
ENDBRANCH  23  27
ENDBRANCH  22  23
ENDBRANCH  21  22
ENDBRANCH  20  21
BRANCH  20  29
HETATM   29  O   UNK N   1      35.191  15.812   6.380  0.00  0.00    -0.391 OA
HETATM   30  H   UNK N   1      35.924  15.187   6.260  0.00  0.00     0.210 HD
ENDBRANCH  20  29
ENDBRANCH   1  20
TORSDOF 14
ENDMDL
MODEL 7
REMARK VINA RESULT:      -6.1      4.302      8.137
REMARK  14 active torsions:
REMARK  status: ('A' for Active; 'I' for Inactive)
REMARK    1  A    between atoms: C_9  and  C_5 
REMARK    2  A    between atoms: N_13  and  C_5 
REMARK    3  A    between atoms: C_10  and  C_6 
REMARK    4  A    between atoms: O_22  and  C_6 
REMARK    5  A    between atoms: C_12  and  C_7 
REMARK    6  A    between atoms: N_13  and  C_8 
REMARK    7  A    between atoms: C_11  and  C_9 
REMARK    8  A    between atoms: C_9  and  O_14 
REMARK    9  A    between atoms: C_11  and  C_10 
REMARK   10  A    between atoms: C_10  and  O_15 
REMARK   11  A    between atoms: O_18  and  C_12 
REMARK   12  A    between atoms: P_23  and  O_19 
REMARK   13  A    between atoms: P_23  and  O_20 
REMARK   14  A    between atoms: P_23  and  O_22 
ROOT
HETATM    1  C   UNK N   1      34.271  14.944  10.027  0.00  0.00     0.179 C 
HETATM    2  O   UNK N   1      33.372  14.989  11.102  0.00  0.00    -0.390 OA
HETATM    3  H   UNK N   1      32.700  15.101  11.792  0.00  0.00     0.210 HD
ENDROOT
BRANCH   1   4
HETATM    4  C   UNK N   1      33.501  15.201   8.725  0.00  0.00     0.167 C 
BRANCH   4   5
HETATM    5  C   UNK N   1      32.039  15.408   9.108  0.00  0.00     0.154 C 
BRANCH   5   6
HETATM    6  N   UNK N   1      31.681  16.793   9.148  0.00  0.00    -0.387 N 
HETATM    7  H   UNK N   1      32.300  17.404   9.609  0.00  0.00     0.159 HD
BRANCH   6   8
HETATM    8  C   UNK N   1      30.505  17.366   8.578  0.00  0.00     0.045 A 
HETATM    9  C   UNK N   1      29.591  17.890   9.502  0.00  0.00     0.030 A 
HETATM   10  C   UNK N   1      28.383  18.451   9.100  0.00  0.00     0.002 A 
HETATM   11  C   UNK N   1      28.058  18.498   7.753  0.00  0.00     0.001 A 
HETATM   12  C   UNK N   1      28.945  17.996   6.807  0.00  0.00     0.020 A 
HETATM   13  C   UNK N   1      30.181  17.429   7.170  0.00  0.00     0.064 A 
BRANCH  13  14
HETATM   14  C   UNK N   1      31.022  16.994   6.009  0.00  0.00     0.178 C 
HETATM   15  O   UNK N   1      30.580  16.308   5.104  0.00  0.00    -0.646 OA
BRANCH  14  16
HETATM   16  O   UNK N   1      32.333  17.301   5.990  0.00  0.00    -0.773 OA
HETATM   17  H   UNK N   1      32.684  17.818   5.291  0.00  0.00     0.167 HD
ENDBRANCH  14  16
ENDBRANCH  13  14
ENDBRANCH   6   8
ENDBRANCH   5   6
ENDBRANCH   4   5
BRANCH   4  18
HETATM   18  O   UNK N   1      33.971  16.355   8.091  0.00  0.00    -0.391 OA
HETATM   19  H   UNK N   1      34.497  17.029   8.549  0.00  0.00     0.210 HD
ENDBRANCH   4  18
ENDBRANCH   1   4
BRANCH   1  20
HETATM   20  C   UNK N   1      35.457  15.884  10.310  0.00  0.00     0.173 C 
BRANCH  20  21
HETATM   21  C   UNK N   1      36.311  15.154  11.337  0.00  0.00     0.214 C 
BRANCH  21  22
HETATM   22  O   UNK N   1      35.980  15.406  12.664  0.00  0.00    -0.294 OA
BRANCH  22  23
HETATM   23  P   UNK N   1      35.990  13.806  13.362  0.00  0.00     0.390 P 
HETATM   24  O   UNK N   1      37.035  12.943  12.596  0.00  0.00    -0.632 OA
BRANCH  23  25
HETATM   25  O   UNK N   1      36.501  13.825  15.019  0.00  0.00    -0.307 OA
HETATM   26  H   UNK N   1      37.312  13.518  15.454  0.00  0.00     0.222 HD
ENDBRANCH  23  25
BRANCH  23  27
HETATM   27  O   UNK N   1      34.454  13.016  13.185  0.00  0.00    -0.307 OA
HETATM   28  H   UNK N   1      33.566  12.820  12.848  0.00  0.00     0.222 HD
ENDBRANCH  23  27
ENDBRANCH  22  23
ENDBRANCH  21  22
ENDBRANCH  20  21
BRANCH  20  29
HETATM   29  O   UNK N   1      35.025  17.097  10.849  0.00  0.00    -0.391 OA
HETATM   30  H   UNK N   1      34.086  17.340  10.875  0.00  0.00     0.210 HD
ENDBRANCH  20  29
ENDBRANCH   1  20
TORSDOF 14
ENDMDL
MODEL 8
REMARK VINA RESULT:      -6.0      3.562      7.913
REMARK  14 active torsions:
REMARK  status: ('A' for Active; 'I' for Inactive)
REMARK    1  A    between atoms: C_9  and  C_5 
REMARK    2  A    between atoms: N_13  and  C_5 
REMARK    3  A    between atoms: C_10  and  C_6 
REMARK    4  A    between atoms: O_22  and  C_6 
REMARK    5  A    between atoms: C_12  and  C_7 
REMARK    6  A    between atoms: N_13  and  C_8 
REMARK    7  A    between atoms: C_11  and  C_9 
REMARK    8  A    between atoms: C_9  and  O_14 
REMARK    9  A    between atoms: C_11  and  C_10 
REMARK   10  A    between atoms: C_10  and  O_15 
REMARK   11  A    between atoms: O_18  and  C_12 
REMARK   12  A    between atoms: P_23  and  O_19 
REMARK   13  A    between atoms: P_23  and  O_20 
REMARK   14  A    between atoms: P_23  and  O_22 
ROOT
HETATM    1  C   UNK N   1      35.663  15.371  10.903  0.00  0.00     0.179 C 
HETATM    2  O   UNK N   1      36.671  16.154  11.485  0.00  0.00    -0.390 OA
HETATM    3  H   UNK N   1      37.399  16.720  11.785  0.00  0.00     0.210 HD
ENDROOT
BRANCH   1   4
HETATM    4  C   UNK N   1      35.158  16.073   9.636  0.00  0.00     0.167 C 
BRANCH   4   5
HETATM    5  C   UNK N   1      33.681  15.719   9.492  0.00  0.00     0.154 C 
BRANCH   5   6
HETATM    6  N   UNK N   1      32.869  16.872   9.249  0.00  0.00    -0.387 N 
HETATM    7  H   UNK N   1      32.954  17.622   9.882  0.00  0.00     0.159 HD
BRANCH   6   8
HETATM    8  C   UNK N   1      31.947  17.030   8.172  0.00  0.00     0.045 A 
HETATM    9  C   UNK N   1      30.596  17.037   8.542  0.00  0.00     0.030 A 
HETATM   10  C   UNK N   1      29.579  17.149   7.599  0.00  0.00     0.002 A 
HETATM   11  C   UNK N   1      29.894  17.254   6.253  0.00  0.00     0.001 A 
HETATM   12  C   UNK N   1      31.224  17.261   5.849  0.00  0.00     0.020 A 
HETATM   13  C   UNK N   1      32.284  17.159   6.771  0.00  0.00     0.064 A 
BRANCH  13  14
HETATM   14  C   UNK N   1      33.647  17.239   6.152  0.00  0.00     0.178 C 
HETATM   15  O   UNK N   1      34.567  17.839   6.680  0.00  0.00    -0.646 OA
BRANCH  14  16
HETATM   16  O   UNK N   1      33.854  16.700   4.937  0.00  0.00    -0.773 OA
HETATM   17  H   UNK N   1      34.634  16.903   4.459  0.00  0.00     0.167 HD
ENDBRANCH  14  16
ENDBRANCH  13  14
ENDBRANCH   6   8
ENDBRANCH   5   6
ENDBRANCH   4   5
BRANCH   4  18
HETATM   18  O   UNK N   1      35.282  17.460   9.754  0.00  0.00    -0.391 OA
HETATM   19  H   UNK N   1      36.002  17.961   9.340  0.00  0.00     0.210 HD
ENDBRANCH   4  18
ENDBRANCH   1   4
BRANCH   1  20
HETATM   20  C   UNK N   1      36.174  13.930  10.722  0.00  0.00     0.173 C 
BRANCH  20  21
HETATM   21  C   UNK N   1      35.498  13.124  11.822  0.00  0.00     0.214 C 
BRANCH  21  22
HETATM   22  O   UNK N   1      34.942  13.879  12.848  0.00  0.00    -0.294 OA
BRANCH  22  23
HETATM   23  P   UNK N   1      36.087  13.648  14.145  0.00  0.00     0.390 P 
HETATM   24  O   UNK N   1      36.780  15.010  14.436  0.00  0.00    -0.632 OA
BRANCH  23  25
HETATM   25  O   UNK N   1      35.309  13.177  15.622  0.00  0.00    -0.307 OA
HETATM   26  H   UNK N   1      35.659  12.894  16.480  0.00  0.00     0.222 HD
ENDBRANCH  23  25
BRANCH  23  27
HETATM   27  O   UNK N   1      37.339  12.527  13.708  0.00  0.00    -0.307 OA
HETATM   28  H   UNK N   1      38.207  12.094  13.692  0.00  0.00     0.222 HD
ENDBRANCH  23  27
ENDBRANCH  22  23
ENDBRANCH  21  22
ENDBRANCH  20  21
BRANCH  20  29
HETATM   29  O   UNK N   1      37.559  13.859  10.883  0.00  0.00    -0.391 OA
HETATM   30  H   UNK N   1      37.978  13.160  11.410  0.00  0.00     0.210 HD
ENDBRANCH  20  29
ENDBRANCH   1  20
TORSDOF 14
ENDMDL
MODEL 9
REMARK VINA RESULT:      -6.0      2.288      3.069
REMARK  14 active torsions:
REMARK  status: ('A' for Active; 'I' for Inactive)
REMARK    1  A    between atoms: C_9  and  C_5 
REMARK    2  A    between atoms: N_13  and  C_5 
REMARK    3  A    between atoms: C_10  and  C_6 
REMARK    4  A    between atoms: O_22  and  C_6 
REMARK    5  A    between atoms: C_12  and  C_7 
REMARK    6  A    between atoms: N_13  and  C_8 
REMARK    7  A    between atoms: C_11  and  C_9 
REMARK    8  A    between atoms: C_9  and  O_14 
REMARK    9  A    between atoms: C_11  and  C_10 
REMARK   10  A    between atoms: C_10  and  O_15 
REMARK   11  A    between atoms: O_18  and  C_12 
REMARK   12  A    between atoms: P_23  and  O_19 
REMARK   13  A    between atoms: P_23  and  O_20 
REMARK   14  A    between atoms: P_23  and  O_22 
ROOT
HETATM    1  C   UNK N   1      35.482  14.593  12.354  0.00  0.00     0.179 C 
HETATM    2  O   UNK N   1      34.343  13.962  11.835  0.00  0.00    -0.390 OA
HETATM    3  H   UNK N   1      33.620  13.443  11.448  0.00  0.00     0.210 HD
ENDROOT
BRANCH   1   4
HETATM    4  C   UNK N   1      36.393  13.532  12.986  0.00  0.00     0.167 C 
BRANCH   4   5
HETATM    5  C   UNK N   1      35.613  12.220  12.982  0.00  0.00     0.154 C 
BRANCH   5   6
HETATM    6  N   UNK N   1      34.612  12.182  14.004  0.00  0.00    -0.387 N 
HETATM    7  H   UNK N   1      33.676  12.298  13.721  0.00  0.00     0.159 HD
BRANCH   6   8
HETATM    8  C   UNK N   1      34.851  11.994  15.398  0.00  0.00     0.045 A 
HETATM    9  C   UNK N   1      34.762  13.153  16.179  0.00  0.00     0.030 A 
HETATM   10  C   UNK N   1      35.003  13.134  17.549  0.00  0.00     0.002 A 
HETATM   11  C   UNK N   1      35.345  11.944  18.173  0.00  0.00     0.001 A 
HETATM   12  C   UNK N   1      35.434  10.771  17.432  0.00  0.00     0.020 A 
HETATM   13  C   UNK N   1      35.189  10.745  16.045  0.00  0.00     0.064 A 
BRANCH  13  14
HETATM   14  C   UNK N   1      35.280   9.381  15.431  0.00  0.00     0.178 C 
HETATM   15  O   UNK N   1      35.042   9.180  14.253  0.00  0.00    -0.646 OA
BRANCH  14  16
HETATM   16  O   UNK N   1      35.559   8.321  16.213  0.00  0.00    -0.773 OA
HETATM   17  H   UNK N   1      34.931   7.633  16.312  0.00  0.00     0.167 HD
ENDBRANCH  14  16
ENDBRANCH  13  14
ENDBRANCH   6   8
ENDBRANCH   5   6
ENDBRANCH   4   5
BRANCH   4  18
HETATM   18  O   UNK N   1      37.559  13.368  12.235  0.00  0.00    -0.391 OA
HETATM   19  H   UNK N   1      38.423  13.699  12.526  0.00  0.00     0.210 HD
ENDBRANCH   4  18
ENDBRANCH   1   4
BRANCH   1  20
HETATM   20  C   UNK N   1      36.122  15.473  11.265  0.00  0.00     0.173 C 
BRANCH  20  21
HETATM   21  C   UNK N   1      35.058  16.499  10.902  0.00  0.00     0.214 C 
BRANCH  21  22
HETATM   22  O   UNK N   1      35.470  17.487  10.015  0.00  0.00    -0.294 OA
BRANCH  22  23
HETATM   23  P   UNK N   1      34.383  17.259   8.669  0.00  0.00     0.390 P 
HETATM   24  O   UNK N   1      34.627  15.842   8.076  0.00  0.00    -0.632 OA
BRANCH  23  25
HETATM   25  O   UNK N   1      32.721  17.297   9.163  0.00  0.00    -0.307 OA
HETATM   26  H   UNK N   1      32.018  17.951   9.031  0.00  0.00     0.222 HD
ENDBRANCH  23  25
BRANCH  23  27
HETATM   27  O   UNK N   1      34.687  18.400   7.395  0.00  0.00    -0.307 OA
HETATM   28  H   UNK N   1      34.534  19.122   6.765  0.00  0.00     0.222 HD
ENDBRANCH  23  27
ENDBRANCH  22  23
ENDBRANCH  21  22
ENDBRANCH  20  21
BRANCH  20  29
HETATM   29  O   UNK N   1      36.445  14.723  10.132  0.00  0.00    -0.391 OA
HETATM   30  H   UNK N   1      36.153  14.985   9.245  0.00  0.00     0.210 HD
ENDBRANCH  20  29
ENDBRANCH   1  20
TORSDOF 14
ENDMDL
