MODEL 1
REMARK VINA RESULT:      -4.4      0.000      0.000
REMARK  5 active torsions:
REMARK  status: ('A' for Active; 'I' for Inactive)
REMARK    1  A    between atoms: C_2  and  C_4 
REMARK    2  A    between atoms: C_2  and  C_6 
REMARK    3  A    between atoms: C_4  and  O_5 
REMARK    4  A    between atoms: C_6  and  C_8 
REMARK    5  A    between atoms: C_8  and  O_9 
ROOT
HETATM    1  C   UNK N   1      32.520  15.548   7.524  0.00  0.00     0.026 C 
HETATM    2  C   UNK N   1      32.420  17.031   7.196  0.00  0.00     0.045 C 
HETATM    3  C   UNK N   1      31.754  17.161   5.830  0.00  0.00     0.026 C 
ENDROOT
BRANCH   2   4
HETATM    4  C   UNK N   1      31.554  17.738   8.238  0.00  0.00     0.181 C 
BRANCH   4   5
HETATM    5  O   UNK N   1      31.310  16.914   9.341  0.00  0.00    -0.400 OA
HETATM    6  H   UNK N   1      31.969  16.819  10.046  0.00  0.00     0.209 HD
ENDBRANCH   4   5
ENDBRANCH   2   4
BRANCH   2   7
HETATM    7  C   UNK N   1      33.812  17.649   7.180  0.00  0.00     0.232 C 
HETATM    8  O   UNK N   1      34.424  17.739   6.125  0.00  0.00    -0.285 OA
BRANCH   7   9
HETATM    9  C   UNK N   1      34.461  18.143   8.420  0.00  0.00     0.214 C 
HETATM   10  O   UNK N   1      35.068  19.200   8.429  0.00  0.00    -0.644 OA
BRANCH   9  11
HETATM   11  O   UNK N   1      34.358  17.428   9.559  0.00  0.00    -0.771 OA
HETATM   12  H   UNK N   1      34.684  16.550   9.612  0.00  0.00     0.167 HD
ENDBRANCH   9  11
ENDBRANCH   7   9
ENDBRANCH   2   7
TORSDOF 5
ENDMDL
MODEL 2
REMARK VINA RESULT:      -4.4      1.739      3.078
REMARK  5 active torsions:
REMARK  status: ('A' for Active; 'I' for Inactive)
REMARK    1  A    between atoms: C_2  and  C_4 
REMARK    2  A    between atoms: C_2  and  C_6 
REMARK    3  A    between atoms: C_4  and  O_5 
REMARK    4  A    between atoms: C_6  and  C_8 
REMARK    5  A    between atoms: C_8  and  O_9 
ROOT
HETATM    1  C   UNK N   1      34.707  15.082   7.876  0.00  0.00     0.026 C 
HETATM    2  C   UNK N   1      34.158  15.840   9.075  0.00  0.00     0.045 C 
HETATM    3  C   UNK N   1      33.067  14.983   9.709  0.00  0.00     0.026 C 
ENDROOT
BRANCH   2   4
HETATM    4  C   UNK N   1      35.268  16.066  10.103  0.00  0.00     0.181 C 
BRANCH   4   5
HETATM    5  O   UNK N   1      34.975  17.149  10.938  0.00  0.00    -0.400 OA
HETATM    6  H   UNK N   1      35.627  17.850  11.089  0.00  0.00     0.209 HD
ENDBRANCH   4   5
ENDBRANCH   2   4
BRANCH   2   7
HETATM    7  C   UNK N   1      33.597  17.182   8.623  0.00  0.00     0.232 C 
HETATM    8  O   UNK N   1      32.451  17.491   8.915  0.00  0.00    -0.285 OA
BRANCH   7   9
HETATM    9  C   UNK N   1      34.404  18.134   7.819  0.00  0.00     0.214 C 
HETATM   10  O   UNK N   1      34.361  18.116   6.601  0.00  0.00    -0.644 OA
BRANCH   9  11
HETATM   11  O   UNK N   1      35.175  19.048   8.442  0.00  0.00    -0.771 OA
HETATM   12  H   UNK N   1      34.862  19.916   8.608  0.00  0.00     0.167 HD
ENDBRANCH   9  11
ENDBRANCH   7   9
ENDBRANCH   2   7
TORSDOF 5
ENDMDL
MODEL 3
REMARK VINA RESULT:      -4.4      1.836      2.866
REMARK  5 active torsions:
REMARK  status: ('A' for Active; 'I' for Inactive)
REMARK    1  A    between atoms: C_2  and  C_4 
REMARK    2  A    between atoms: C_2  and  C_6 
REMARK    3  A    between atoms: C_4  and  O_5 
REMARK    4  A    between atoms: C_6  and  C_8 
REMARK    5  A    between atoms: C_8  and  O_9 
ROOT
HETATM    1  C   UNK N   1      34.575  15.254   7.590  0.00  0.00     0.026 C 
HETATM    2  C   UNK N   1      33.945  15.796   8.865  0.00  0.00     0.045 C 
HETATM    3  C   UNK N   1      32.451  15.968   8.609  0.00  0.00     0.026 C 
ENDROOT
BRANCH   2   4
HETATM    4  C   UNK N   1      34.139  14.798  10.007  0.00  0.00     0.181 C 
BRANCH   4   5
HETATM    5  O   UNK N   1      33.287  15.081  11.079  0.00  0.00    -0.400 OA
HETATM    6  H   UNK N   1      32.671  15.828  11.041  0.00  0.00     0.209 HD
ENDBRANCH   4   5
ENDBRANCH   2   4
BRANCH   2   7
HETATM    7  C   UNK N   1      34.589  17.127   9.231  0.00  0.00     0.232 C 
HETATM    8  O   UNK N   1      35.068  17.283  10.345  0.00  0.00    -0.285 OA
BRANCH   7   9
HETATM    9  C   UNK N   1      34.645  18.257   8.271  0.00  0.00     0.214 C 
HETATM   10  O   UNK N   1      34.016  18.222   7.227  0.00  0.00    -0.644 OA
BRANCH   9  11
HETATM   11  O   UNK N   1      35.379  19.349   8.565  0.00  0.00    -0.771 OA
HETATM   12  H   UNK N   1      35.032  20.213   8.455  0.00  0.00     0.167 HD
ENDBRANCH   9  11
ENDBRANCH   7   9
ENDBRANCH   2   7
TORSDOF 5
ENDMDL
MODEL 4
REMARK VINA RESULT:      -4.2      3.166      4.050
REMARK  5 active torsions:
REMARK  status: ('A' for Active; 'I' for Inactive)
REMARK    1  A    between atoms: C_2  and  C_4 
REMARK    2  A    between atoms: C_2  and  C_6 
REMARK    3  A    between atoms: C_4  and  O_5 
REMARK    4  A    between atoms: C_6  and  C_8 
REMARK    5  A    between atoms: C_8  and  O_9 
ROOT
HETATM    1  C   UNK N   1      34.224  12.853   9.618  0.00  0.00     0.026 C 
HETATM    2  C   UNK N   1      34.229  14.371   9.506  0.00  0.00     0.045 C 
HETATM    3  C   UNK N   1      35.108  14.748   8.318  0.00  0.00     0.026 C 
ENDROOT
BRANCH   2   4
HETATM    4  C   UNK N   1      32.810  14.880   9.252  0.00  0.00     0.181 C 
BRANCH   4   5
HETATM    5  O   UNK N   1      32.161  15.196  10.450  0.00  0.00    -0.400 OA
HETATM    6  H   UNK N   1      31.878  16.104  10.637  0.00  0.00     0.209 HD
ENDBRANCH   4   5
ENDBRANCH   2   4
BRANCH   2   7
HETATM    7  C   UNK N   1      34.770  14.979  10.794  0.00  0.00     0.232 C 
HETATM    8  O   UNK N   1      34.482  14.476  11.870  0.00  0.00    -0.285 OA
BRANCH   7   9
HETATM    9  C   UNK N   1      35.638  16.183  10.784  0.00  0.00     0.214 C 
HETATM   10  O   UNK N   1      35.159  17.298  10.660  0.00  0.00    -0.644 OA
BRANCH   9  11
HETATM   11  O   UNK N   1      36.970  16.048  10.939  0.00  0.00    -0.771 OA
HETATM   12  H   UNK N   1      37.387  15.213  10.856  0.00  0.00     0.167 HD
ENDBRANCH   9  11
ENDBRANCH   7   9
ENDBRANCH   2   7
TORSDOF 5
ENDMDL
MODEL 5
REMARK VINA RESULT:      -4.2      1.972      3.634
REMARK  5 active torsions:
REMARK  status: ('A' for Active; 'I' for Inactive)
REMARK    1  A    between atoms: C_2  and  C_4 
REMARK    2  A    between atoms: C_2  and  C_6 
REMARK    3  A    between atoms: C_4  and  O_5 
REMARK    4  A    between atoms: C_6  and  C_8 
REMARK    5  A    between atoms: C_8  and  O_9 
ROOT
HETATM    1  C   UNK N   1      34.645  18.702   8.260  0.00  0.00     0.026 C 
HETATM    2  C   UNK N   1      34.088  17.298   8.440  0.00  0.00     0.045 C 
HETATM    3  C   UNK N   1      32.572  17.410   8.565  0.00  0.00     0.026 C 
ENDROOT
BRANCH   2   4
HETATM    4  C   UNK N   1      34.421  16.444   7.216  0.00  0.00     0.181 C 
BRANCH   4   5
HETATM    5  O   UNK N   1      34.539  17.230   6.065  0.00  0.00    -0.400 OA
HETATM    6  H   UNK N   1      33.801  17.779   5.760  0.00  0.00     0.209 HD
ENDBRANCH   4   5
ENDBRANCH   2   4
BRANCH   2   7
HETATM    7  C   UNK N   1      34.688  16.662   9.687  0.00  0.00     0.232 C 
HETATM    8  O   UNK N   1      35.526  17.271  10.336  0.00  0.00    -0.285 OA
BRANCH   7   9
HETATM    9  C   UNK N   1      34.289  15.306  10.141  0.00  0.00     0.214 C 
HETATM   10  O   UNK N   1      34.864  14.314   9.727  0.00  0.00    -0.644 OA
BRANCH   9  11
HETATM   11  O   UNK N   1      33.296  15.168  11.043  0.00  0.00    -0.771 OA
HETATM   12  H   UNK N   1      32.523  14.677  10.844  0.00  0.00     0.167 HD
ENDBRANCH   9  11
ENDBRANCH   7   9
ENDBRANCH   2   7
TORSDOF 5
ENDMDL
MODEL 6
REMARK VINA RESULT:      -4.2     12.016     13.334
REMARK  5 active torsions:
REMARK  status: ('A' for Active; 'I' for Inactive)
REMARK    1  A    between atoms: C_2  and  C_4 
REMARK    2  A    between atoms: C_2  and  C_6 
REMARK    3  A    between atoms: C_4  and  O_5 
REMARK    4  A    between atoms: C_6  and  C_8 
REMARK    5  A    between atoms: C_8  and  O_9 
ROOT
HETATM    1  C   UNK N   1      21.128  18.437   5.339  0.00  0.00     0.026 C 
HETATM    2  C   UNK N   1      20.972  18.518   3.827  0.00  0.00     0.045 C 
HETATM    3  C   UNK N   1      22.158  17.795   3.197  0.00  0.00     0.026 C 
ENDROOT
BRANCH   2   4
HETATM    4  C   UNK N   1      19.682  17.818   3.398  0.00  0.00     0.181 C 
BRANCH   4   5
HETATM    5  O   UNK N   1      19.033  18.526   2.382  0.00  0.00    -0.400 OA
HETATM    6  H   UNK N   1      18.077  18.438   2.247  0.00  0.00     0.209 HD
ENDBRANCH   4   5
ENDBRANCH   2   4
BRANCH   2   7
HETATM    7  C   UNK N   1      20.934  19.977   3.392  0.00  0.00     0.232 C 
HETATM    8  O   UNK N   1      20.083  20.725   3.851  0.00  0.00    -0.285 OA
BRANCH   7   9
HETATM    9  C   UNK N   1      21.902  20.524   2.409  0.00  0.00     0.214 C 
HETATM   10  O   UNK N   1      21.680  20.461   1.212  0.00  0.00    -0.644 OA
BRANCH   9  11
HETATM   11  O   UNK N   1      23.030  21.121   2.843  0.00  0.00    -0.771 OA
HETATM   12  H   UNK N   1      23.688  21.413   2.242  0.00  0.00     0.167 HD
ENDBRANCH   9  11
ENDBRANCH   7   9
ENDBRANCH   2   7
TORSDOF 5
ENDMDL
MODEL 7
REMARK VINA RESULT:      -4.1      1.093      2.017
REMARK  5 active torsions:
REMARK  status: ('A' for Active; 'I' for Inactive)
REMARK    1  A    between atoms: C_2  and  C_4 
REMARK    2  A    between atoms: C_2  and  C_6 
REMARK    3  A    between atoms: C_4  and  O_5 
REMARK    4  A    between atoms: C_6  and  C_8 
REMARK    5  A    between atoms: C_8  and  O_9 
ROOT
HETATM    1  C   UNK N   1      31.716  17.873   8.387  0.00  0.00     0.026 C 
HETATM    2  C   UNK N   1      32.499  17.046   7.378  0.00  0.00     0.045 C 
HETATM    3  C   UNK N   1      32.459  15.591   7.836  0.00  0.00     0.026 C 
ENDROOT
BRANCH   2   4
HETATM    4  C   UNK N   1      31.843  17.148   6.000  0.00  0.00     0.181 C 
BRANCH   4   5
HETATM    5  O   UNK N   1      30.462  17.342   6.107  0.00  0.00    -0.400 OA
HETATM    6  H   UNK N   1      29.882  16.628   6.413  0.00  0.00     0.209 HD
ENDBRANCH   4   5
ENDBRANCH   2   4
BRANCH   2   7
HETATM    7  C   UNK N   1      33.934  17.550   7.302  0.00  0.00     0.232 C 
HETATM    8  O   UNK N   1      34.539  17.502   6.241  0.00  0.00    -0.285 OA
BRANCH   7   9
HETATM    9  C   UNK N   1      34.633  18.096   8.492  0.00  0.00     0.214 C 
HETATM   10  O   UNK N   1      34.759  17.429   9.504  0.00  0.00    -0.644 OA
BRANCH   9  11
HETATM   11  O   UNK N   1      35.160  19.337   8.447  0.00  0.00    -0.771 OA
HETATM   12  H   UNK N   1      36.014  19.489   8.093  0.00  0.00     0.167 HD
ENDBRANCH   9  11
ENDBRANCH   7   9
ENDBRANCH   2   7
TORSDOF 5
ENDMDL
MODEL 8
REMARK VINA RESULT:      -4.1      5.333      6.656
REMARK  5 active torsions:
REMARK  status: ('A' for Active; 'I' for Inactive)
REMARK    1  A    between atoms: C_2  and  C_4 
REMARK    2  A    between atoms: C_2  and  C_6 
REMARK    3  A    between atoms: C_4  and  O_5 
REMARK    4  A    between atoms: C_6  and  C_8 
REMARK    5  A    between atoms: C_8  and  O_9 
ROOT
HETATM    1  C   UNK N   1      35.520  12.711  10.012  0.00  0.00     0.026 C 
HETATM    2  C   UNK N   1      36.317  13.622  10.934  0.00  0.00     0.045 C 
HETATM    3  C   UNK N   1      37.422  12.787  11.573  0.00  0.00     0.026 C 
ENDROOT
BRANCH   2   4
HETATM    4  C   UNK N   1      36.956  14.752  10.125  0.00  0.00     0.181 C 
BRANCH   4   5
HETATM    5  O   UNK N   1      37.033  15.931  10.873  0.00  0.00    -0.400 OA
HETATM    6  H   UNK N   1      37.741  16.574  10.716  0.00  0.00     0.209 HD
ENDBRANCH   4   5
ENDBRANCH   2   4
BRANCH   2   7
HETATM    7  C   UNK N   1      35.398  14.208  11.997  0.00  0.00     0.232 C 
HETATM    8  O   UNK N   1      34.338  14.721  11.669  0.00  0.00    -0.285 OA
BRANCH   7   9
HETATM    9  C   UNK N   1      35.756  14.185  13.438  0.00  0.00     0.214 C 
HETATM   10  O   UNK N   1      35.139  13.487  14.224  0.00  0.00    -0.644 OA
BRANCH   9  11
HETATM   11  O   UNK N   1      36.793  14.924  13.881  0.00  0.00    -0.771 OA
HETATM   12  H   UNK N   1      37.029  14.936  14.788  0.00  0.00     0.167 HD
ENDBRANCH   9  11
ENDBRANCH   7   9
ENDBRANCH   2   7
TORSDOF 5
ENDMDL
MODEL 9
REMARK VINA RESULT:      -4.0     16.229     17.233
REMARK  5 active torsions:
REMARK  status: ('A' for Active; 'I' for Inactive)
REMARK    1  A    between atoms: C_2  and  C_4 
REMARK    2  A    between atoms: C_2  and  C_6 
REMARK    3  A    between atoms: C_4  and  O_5 
REMARK    4  A    between atoms: C_6  and  C_8 
REMARK    5  A    between atoms: C_8  and  O_9 
ROOT
HETATM    1  C   UNK N   1      26.954  27.603  -6.263  0.00  0.00     0.026 C 
HETATM    2  C   UNK N   1      26.045  26.723  -5.417  0.00  0.00     0.045 C 
HETATM    3  C   UNK N   1      24.604  27.135  -5.699  0.00  0.00     0.026 C 
ENDROOT
BRANCH   2   4
HETATM    4  C   UNK N   1      26.226  25.256  -5.810  0.00  0.00     0.181 C 
BRANCH   4   5
HETATM    5  O   UNK N   1      25.100  24.498  -5.475  0.00  0.00    -0.400 OA
HETATM    6  H   UNK N   1      24.801  23.772  -6.045  0.00  0.00     0.209 HD
ENDBRANCH   4   5
ENDBRANCH   2   4
BRANCH   2   7
HETATM    7  C   UNK N   1      26.381  26.905  -3.942  0.00  0.00     0.232 C 
HETATM    8  O   UNK N   1      26.319  25.948  -3.183  0.00  0.00    -0.285 OA
BRANCH   7   9
HETATM    9  C   UNK N   1      26.778  28.223  -3.389  0.00  0.00     0.214 C 
HETATM   10  O   UNK N   1      27.925  28.431  -3.031  0.00  0.00    -0.644 OA
BRANCH   9  11
HETATM   11  O   UNK N   1      25.868  29.214  -3.303  0.00  0.00    -0.771 OA
HETATM   12  H   UNK N   1      25.064  29.178  -3.784  0.00  0.00     0.167 HD
ENDBRANCH   9  11
ENDBRANCH   7   9
ENDBRANCH   2   7
TORSDOF 5
ENDMDL
