MODEL 1
REMARK VINA RESULT:      -7.0      0.000      0.000
REMARK WARNING: 32 MAX_TORS EXCEEDED!!!
REMARK  34 active torsions:
REMARK  status: ('A' for Active; 'I' for Inactive)
REMARK    1  A    between atoms: C_8  and  C_7 
REMARK    2  A    between atoms: C_20  and  C_7 
REMARK    3  A    between atoms: N_33  and  C_8 
REMARK    4  A    between atoms: C_10  and  C_9 
REMARK    5  A    between atoms: N_31  and  C_9 
REMARK    6  A    between atoms: S_63  and  C_10 
REMARK    7  A    between atoms: C_19  and  C_11 
REMARK    8  A    between atoms: O_55  and  C_11 
REMARK    9  A    between atoms: C_18  and  C_12 
REMARK   10  A    between atoms: S_63  and  C_12 
REMARK   11  A    between atoms: C_29  and  C_13 
REMARK   12  A    between atoms: O_56  and  C_13 
REMARK   13  A    between atoms: C_18  and  C_16 
REMARK   14  A    between atoms: O_42  and  C_17 
REMARK   15  A    between atoms: N_31  and  C_20 
REMARK   16  A    between atoms: O_44  and  C_20 
REMARK   17  A    between atoms: C_22  and  O_45 
REMARK   18  A    between atoms: C_23  and  O_58 
REMARK   19  A    between atoms: C_27  and  C_24 
REMARK   20  A    between atoms: C_29  and  C_24 
REMARK   21  A    between atoms: C_24  and  O_46 
REMARK   22  A    between atoms: N_30  and  C_25 
REMARK   23  A    between atoms: N_33  and  C_27 
REMARK   24  A    between atoms: O_47  and  C_27 
REMARK   25  A    between atoms: C_28  and  N_41 
REMARK   26  A    between atoms: P_60  and  O_48 
REMARK   27  A    between atoms: P_60  and  O_49 
REMARK   28  A    between atoms: P_61  and  O_51 
REMARK   29  A    between atoms: P_62  and  O_53 
REMARK   30  A    between atoms: P_61  and  O_55 
REMARK   31  A    between atoms: P_62  and  O_56 
REMARK   32  A    between atoms: P_60  and  O_58 
REMARK   33  A    between atoms: P_61  and  O_59 
REMARK   34  A    between atoms: P_62  and  O_59 
ROOT
HETATM    1  O   UNK N   1      29.463  11.862   3.359  0.00  0.00    -0.631 OA
HETATM    2  P   UNK N   1      29.420  13.414   3.346  0.00  0.00     0.401 P 
ENDROOT
BRANCH   2   3
HETATM    3  O   UNK N   1      29.296  13.878   5.014  0.00  0.00    -0.307 OA
HETATM    4  H   UNK N   1      29.634  14.547   5.631  0.00  0.00     0.222 HD
ENDBRANCH   2   3
BRANCH   2   5
HETATM    5  O   UNK N   1      27.977  13.847   2.478  0.00  0.00    -0.296 OA
BRANCH   5   6
HETATM    6  C   UNK N   1      26.959  13.940   3.429  0.00  0.00     0.192 C 
BRANCH   6   7
HETATM    7  C   UNK N   1      26.051  15.133   3.125  0.00  0.00     0.008 C 
HETATM    8  C   UNK N   1      25.912  15.341   1.624  0.00  0.00     0.020 C 
HETATM    9  C   UNK N   1      24.657  14.831   3.651  0.00  0.00     0.020 C 
BRANCH   7  10
HETATM   10  C   UNK N   1      26.620  16.418   3.749  0.00  0.00     0.202 C 
BRANCH  10  11
HETATM   11  C   UNK N   1      25.570  17.376   4.254  0.00  0.00     0.141 C 
BRANCH  11  12
HETATM   12  N   UNK N   1      25.121  18.293   3.470  0.00  0.00    -0.372 N 
ATOM     13  HN  UNK N   1      25.408  18.296   2.491  1.00  0.00     0.161 HD
BRANCH  12  14
HETATM   14  C   UNK N   1      24.226  19.315   3.944  0.00  0.00     0.129 C 
BRANCH  14  15
HETATM   15  C   UNK N   1      22.804  19.031   3.444  0.00  0.00     0.103 C 
BRANCH  15  16
HETATM   16  C   UNK N   1      21.806  18.909   4.567  0.00  0.00     0.112 C 
BRANCH  16  17
HETATM   17  N   UNK N   1      21.966  18.000   5.470  0.00  0.00    -0.374 N 
ATOM     18  HN  UNK N   1      22.850  17.493   5.506  1.00  0.00     0.161 HD
BRANCH  17  19
HETATM   19  C   UNK N   1      20.942  17.679   6.431  0.00  0.00     0.131 C 
BRANCH  19  20
HETATM   20  C   UNK N   1      21.389  16.520   7.304  0.00  0.00     0.094 C 
BRANCH  20  21
HETATM   21  S   UNK N   1      21.881  15.131   6.254  0.00  0.00    -0.160 SA
BRANCH  21  22
HETATM   22  C   UNK N   1      20.686  13.969   7.002  0.00  0.00     0.157 C 
BRANCH  22  23
HETATM   23  C   UNK N   1      21.299  12.664   7.441  0.00  0.00     0.168 C 
HETATM   24  O   UNK N   1      20.954  11.641   6.868  0.00  0.00    -0.291 OA
BRANCH  23  25
HETATM   25  C   UNK N   1      22.288  12.587   8.545  0.00  0.00     0.011 A 
HETATM   26  C   UNK N   1      21.851  12.405   9.866  0.00  0.00     0.018 A 
HETATM   27  C   UNK N   1      22.776  12.322  10.911  0.00  0.00     0.037 A 
HETATM   28  C   UNK N   1      24.145  12.407  10.641  0.00  0.00     0.065 A 
HETATM   29  C   UNK N   1      24.589  12.584   9.329  0.00  0.00     0.037 A 
HETATM   30  C   UNK N   1      23.664  12.679   8.287  0.00  0.00     0.018 A 
BRANCH  28  31
HETATM   31  O   UNK N   1      25.034  12.322  11.644  0.00  0.00    -0.361 OA
HETATM   32  H   UNK N   1      25.231  13.057  12.191  0.00  0.00     0.217 HD
ENDBRANCH  28  31
ENDBRANCH  23  25
ENDBRANCH  22  23
ENDBRANCH  21  22
ENDBRANCH  20  21
ENDBRANCH  19  20
ENDBRANCH  17  19
ENDBRANCH  16  17
BRANCH  16  33
HETATM   33  O   UNK N   1      20.748  19.744   4.611  0.00  0.00    -0.350 OA
HETATM   34  H   UNK N   1      20.394  20.492   4.172  0.00  0.00     0.219 HD
ENDBRANCH  16  33
ENDBRANCH  15  16
ENDBRANCH  14  15
ENDBRANCH  12  14
ENDBRANCH  11  12
BRANCH  11  35
HETATM   35  O   UNK N   1      25.182  17.331   5.549  0.00  0.00    -0.348 OA
HETATM   36  H   UNK N   1      24.749  16.984   6.304  0.00  0.00     0.219 HD
ENDBRANCH  11  35
ENDBRANCH  10  11
BRANCH  10  37
HETATM   37  O   UNK N   1      27.502  16.105   4.791  0.00  0.00    -0.387 OA
HETATM   38  H   UNK N   1      28.156  16.301   5.481  0.00  0.00     0.210 HD
ENDBRANCH  10  37
ENDBRANCH   7  10
ENDBRANCH   6   7
ENDBRANCH   5   6
ENDBRANCH   2   5
BRANCH   2  39
HETATM   39  O   UNK N   1      30.936  13.944   2.652  0.00  0.00    -0.195 OA
BRANCH  39  40
HETATM   40  P   UNK N   1      31.540  15.325   3.542  0.00  0.00     0.401 P 
HETATM   41  O   UNK N   1      32.631  15.976   2.654  0.00  0.00    -0.631 OA
BRANCH  40  42
HETATM   42  O   UNK N   1      30.316  16.547   3.672  0.00  0.00    -0.307 OA
HETATM   43  H   UNK N   1      29.454  16.825   3.326  0.00  0.00     0.222 HD
ENDBRANCH  40  42
BRANCH  40  44
HETATM   44  O   UNK N   1      32.258  15.005   5.105  0.00  0.00    -0.294 OA
BRANCH  44  45
HETATM   45  C   UNK N   1      33.109  16.075   5.364  0.00  0.00     0.215 C 
BRANCH  45  46
HETATM   46  C   UNK N   1      32.550  16.975   6.460  0.00  0.00     0.180 C 
HETATM   47  C   UNK N   1      32.489  16.175   7.757  0.00  0.00     0.197 C 
HETATM   48  C   UNK N   1      31.444  16.960   8.503  0.00  0.00     0.199 C 
HETATM   49  C   UNK N   1      30.455  17.052   7.326  0.00  0.00     0.262 C 
HETATM   50  O   UNK N   1      31.224  17.431   6.191  0.00  0.00    -0.353 OA
BRANCH  47  51
HETATM   51  O   UNK N   1      33.711  15.813   8.375  0.00  0.00    -0.286 OA
BRANCH  51  52
HETATM   52  P   UNK N   1      33.675  14.393   9.398  0.00  0.00     0.391 P 
HETATM   53  O   UNK N   1      32.463  13.561   8.897  0.00  0.00    -0.632 OA
BRANCH  52  54
HETATM   54  O   UNK N   1      35.044  13.329   9.332  0.00  0.00    -0.307 OA
HETATM   55  H   UNK N   1      36.001  13.194   9.422  0.00  0.00     0.222 HD
ENDBRANCH  52  54
BRANCH  52  56
HETATM   56  O   UNK N   1      33.280  14.817  11.031  0.00  0.00    -0.307 OA
HETATM   57  H   UNK N   1      32.367  14.748  11.351  0.00  0.00     0.222 HD
ENDBRANCH  52  56
ENDBRANCH  51  52
ENDBRANCH  47  51
BRANCH  48  58
HETATM   58  O   UNK N   1      30.940  16.251   9.595  0.00  0.00    -0.388 OA
HETATM   59  H   UNK N   1      30.117  15.788   9.811  0.00  0.00     0.210 HD
ENDBRANCH  48  58
BRANCH  49  60
HETATM   60  N   UNK N   1      29.248  17.872   7.512  0.00  0.00    -0.297 N 
HETATM   61  C   UNK N   1      28.664  18.094   8.719  0.00  0.00     0.188 A 
HETATM   62  N   UNK N   1      27.674  19.026   8.638  0.00  0.00    -0.346 N 
HETATM   63  C   UNK N   1      27.669  19.392   7.346  0.00  0.00     0.122 A 
ATOM     64  HN  UNK N   1      27.072  19.366   9.387  1.00  0.00     0.167 HD
HETATM   65  C   UNK N   1      26.924  20.373   6.711  0.00  0.00     0.131 A 
HETATM   66  C   UNK N   1      28.598  18.689   6.662  0.00  0.00     0.142 A 
HETATM   67  N   UNK N   1      27.152  20.588   5.381  0.00  0.00    -0.337 N 
HETATM   68  C   UNK N   1      28.093  19.854   4.698  0.00  0.00     0.183 A 
ATOM     69  HN  UNK N   1      26.616  21.303   4.888  1.00  0.00     0.168 HD
HETATM   70  N   UNK N   1      28.836  18.902   5.346  0.00  0.00    -0.336 N 
ATOM     71  HN  UNK N   1      29.548  18.367   4.850  1.00  0.00     0.168 HD
BRANCH  65  72
HETATM   72  N   UNK N   1      25.991  21.160   7.417  0.00  0.00    -0.383 N 
HETATM   73  H   UNK N   1      25.735  22.048   7.078  0.00  0.00     0.157 HD
HETATM   74  H   UNK N   1      25.595  20.819   8.252  0.00  0.00     0.157 HD
ENDBRANCH  65  72
ENDBRANCH  49  60
ENDBRANCH  45  46
ENDBRANCH  44  45
ENDBRANCH  40  44
ENDBRANCH  39  40
ENDBRANCH   2  39
TORSDOF 34
ENDMDL
MODEL 2
REMARK VINA RESULT:      -6.9      5.054     10.803
REMARK WARNING: 32 MAX_TORS EXCEEDED!!!
REMARK  34 active torsions:
REMARK  status: ('A' for Active; 'I' for Inactive)
REMARK    1  A    between atoms: C_8  and  C_7 
REMARK    2  A    between atoms: C_20  and  C_7 
REMARK    3  A    between atoms: N_33  and  C_8 
REMARK    4  A    between atoms: C_10  and  C_9 
REMARK    5  A    between atoms: N_31  and  C_9 
REMARK    6  A    between atoms: S_63  and  C_10 
REMARK    7  A    between atoms: C_19  and  C_11 
REMARK    8  A    between atoms: O_55  and  C_11 
REMARK    9  A    between atoms: C_18  and  C_12 
REMARK   10  A    between atoms: S_63  and  C_12 
REMARK   11  A    between atoms: C_29  and  C_13 
REMARK   12  A    between atoms: O_56  and  C_13 
REMARK   13  A    between atoms: C_18  and  C_16 
REMARK   14  A    between atoms: O_42  and  C_17 
REMARK   15  A    between atoms: N_31  and  C_20 
REMARK   16  A    between atoms: O_44  and  C_20 
REMARK   17  A    between atoms: C_22  and  O_45 
REMARK   18  A    between atoms: C_23  and  O_58 
REMARK   19  A    between atoms: C_27  and  C_24 
REMARK   20  A    between atoms: C_29  and  C_24 
REMARK   21  A    between atoms: C_24  and  O_46 
REMARK   22  A    between atoms: N_30  and  C_25 
REMARK   23  A    between atoms: N_33  and  C_27 
REMARK   24  A    between atoms: O_47  and  C_27 
REMARK   25  A    between atoms: C_28  and  N_41 
REMARK   26  A    between atoms: P_60  and  O_48 
REMARK   27  A    between atoms: P_60  and  O_49 
REMARK   28  A    between atoms: P_61  and  O_51 
REMARK   29  A    between atoms: P_62  and  O_53 
REMARK   30  A    between atoms: P_61  and  O_55 
REMARK   31  A    between atoms: P_62  and  O_56 
REMARK   32  A    between atoms: P_60  and  O_58 
REMARK   33  A    between atoms: P_61  and  O_59 
REMARK   34  A    between atoms: P_62  and  O_59 
ROOT
HETATM    1  O   UNK N   1      18.965  14.572   9.814  0.00  0.00    -0.631 OA
HETATM    2  P   UNK N   1      20.308  14.752   9.057  0.00  0.00     0.401 P 
ENDROOT
BRANCH   2   3
HETATM    3  O   UNK N   1      20.034  14.078   7.480  0.00  0.00    -0.307 OA
HETATM    4  H   UNK N   1      20.321  14.190   6.560  0.00  0.00     0.222 HD
ENDBRANCH   2   3
BRANCH   2   5
HETATM    5  O   UNK N   1      21.480  13.811   9.932  0.00  0.00    -0.296 OA
BRANCH   5   6
HETATM    6  C   UNK N   1      22.634  13.788   9.145  0.00  0.00     0.192 C 
BRANCH   6   7
HETATM    7  C   UNK N   1      23.265  12.394   9.163  0.00  0.00     0.008 C 
HETATM    8  C   UNK N   1      24.777  12.484   9.309  0.00  0.00     0.020 C 
HETATM    9  C   UNK N   1      22.754  11.645  10.383  0.00  0.00     0.020 C 
BRANCH   7  10
HETATM   10  C   UNK N   1      22.940  11.637   7.863  0.00  0.00     0.202 C 
BRANCH  10  11
HETATM   11  C   UNK N   1      23.190  12.434   6.607  0.00  0.00     0.141 C 
BRANCH  11  12
HETATM   12  N   UNK N   1      24.352  12.391   6.052  0.00  0.00    -0.372 N 
ATOM     13  HN  UNK N   1      25.142  12.018   6.579  1.00  0.00     0.161 HD
BRANCH  12  14
HETATM   14  C   UNK N   1      24.560  12.860   4.708  0.00  0.00     0.129 C 
BRANCH  14  15
HETATM   15  C   UNK N   1      25.122  14.287   4.739  0.00  0.00     0.103 C 
BRANCH  15  16
HETATM   16  C   UNK N   1      25.794  14.676   3.447  0.00  0.00     0.112 C 
BRANCH  16  17
HETATM   17  N   UNK N   1      27.001  14.283   3.210  0.00  0.00    -0.374 N 
ATOM     18  HN  UNK N   1      27.173  13.680   2.405  1.00  0.00     0.161 HD
BRANCH  17  19
HETATM   19  C   UNK N   1      28.114  14.667   4.040  0.00  0.00     0.131 C 
BRANCH  19  20
HETATM   20  C   UNK N   1      28.035  16.148   4.369  0.00  0.00     0.094 C 
BRANCH  20  21
HETATM   21  S   UNK N   1      27.953  16.362   6.163  0.00  0.00    -0.160 SA
BRANCH  21  22
HETATM   22  C   UNK N   1      28.743  18.009   6.136  0.00  0.00     0.157 C 
BRANCH  22  23
HETATM   23  C   UNK N   1      27.774  19.152   6.292  0.00  0.00     0.168 C 
HETATM   24  O   UNK N   1      27.729  19.731   7.368  0.00  0.00    -0.291 OA
BRANCH  23  25
HETATM   25  C   UNK N   1      26.874  19.581   5.192  0.00  0.00     0.011 A 
HETATM   26  C   UNK N   1      27.404  20.231   4.067  0.00  0.00     0.018 A 
HETATM   27  C   UNK N   1      26.566  20.630   3.021  0.00  0.00     0.037 A 
HETATM   28  C   UNK N   1      25.194  20.371   3.088  0.00  0.00     0.065 A 
HETATM   29  C   UNK N   1      24.659  19.721   4.202  0.00  0.00     0.037 A 
HETATM   30  C   UNK N   1      25.494  19.334   5.251  0.00  0.00     0.018 A 
BRANCH  28  31
HETATM   31  O   UNK N   1      24.389  20.749   2.082  0.00  0.00    -0.361 OA
HETATM   32  H   UNK N   1      24.617  20.598   1.186  0.00  0.00     0.217 HD
ENDBRANCH  28  31
ENDBRANCH  23  25
ENDBRANCH  22  23
ENDBRANCH  21  22
ENDBRANCH  20  21
ENDBRANCH  19  20
ENDBRANCH  17  19
ENDBRANCH  16  17
BRANCH  16  33
HETATM   33  O   UNK N   1      25.131  15.440   2.555  0.00  0.00    -0.350 OA
HETATM   34  H   UNK N   1      24.760  16.295   2.465  0.00  0.00     0.219 HD
ENDBRANCH  16  33
ENDBRANCH  15  16
ENDBRANCH  14  15
ENDBRANCH  12  14
ENDBRANCH  11  12
BRANCH  11  35
HETATM   35  O   UNK N   1      22.233  13.261   6.130  0.00  0.00    -0.348 OA
HETATM   36  H   UNK N   1      21.716  14.041   6.086  0.00  0.00     0.219 HD
ENDBRANCH  11  35
ENDBRANCH  10  11
BRANCH  10  37
HETATM   37  O   UNK N   1      23.661  10.438   7.804  0.00  0.00    -0.387 OA
HETATM   38  H   UNK N   1      23.945   9.564   8.116  0.00  0.00     0.210 HD
ENDBRANCH  10  37
ENDBRANCH   7  10
ENDBRANCH   6   7
ENDBRANCH   5   6
ENDBRANCH   2   5
BRANCH   2  39
HETATM   39  O   UNK N   1      20.600  16.474   8.969  0.00  0.00    -0.195 OA
BRANCH  39  40
HETATM   40  P   UNK N   1      20.819  16.950   7.299  0.00  0.00     0.401 P 
HETATM   41  O   UNK N   1      19.492  16.618   6.570  0.00  0.00    -0.631 OA
BRANCH  40  42
HETATM   42  O   UNK N   1      20.952  18.674   7.172  0.00  0.00    -0.307 OA
HETATM   43  H   UNK N   1      21.359  19.456   7.577  0.00  0.00     0.222 HD
ENDBRANCH  40  42
BRANCH  40  44
HETATM   44  O   UNK N   1      22.112  16.166   6.417  0.00  0.00    -0.294 OA
BRANCH  44  45
HETATM   45  C   UNK N   1      22.451  17.032   5.382  0.00  0.00     0.215 C 
BRANCH  45  46
HETATM   46  C   UNK N   1      22.122  16.428   4.023  0.00  0.00     0.180 C 
HETATM   47  C   UNK N   1      21.318  17.446   3.223  0.00  0.00     0.197 C 
HETATM   48  C   UNK N   1      20.629  16.533   2.246  0.00  0.00     0.199 C 
HETATM   49  C   UNK N   1      20.185  15.497   3.296  0.00  0.00     0.262 C 
HETATM   50  O   UNK N   1      21.324  15.247   4.112  0.00  0.00    -0.353 OA
BRANCH  47  51
HETATM   51  O   UNK N   1      21.979  18.620   2.784  0.00  0.00    -0.286 OA
BRANCH  51  52
HETATM   52  P   UNK N   1      20.953  19.949   2.283  0.00  0.00     0.391 P 
HETATM   53  O   UNK N   1      19.615  19.738   3.041  0.00  0.00    -0.632 OA
BRANCH  52  54
HETATM   54  O   UNK N   1      21.480  21.554   2.678  0.00  0.00    -0.307 OA
HETATM   55  H   UNK N   1      22.017  22.332   2.462  0.00  0.00     0.222 HD
ENDBRANCH  52  54
BRANCH  52  56
HETATM   56  O   UNK N   1      20.541  19.812   0.605  0.00  0.00    -0.307 OA
HETATM   57  H   UNK N   1      19.853  20.376   0.219  0.00  0.00     0.222 HD
ENDBRANCH  52  56
ENDBRANCH  51  52
ENDBRANCH  47  51
BRANCH  48  58
HETATM   58  O   UNK N   1      19.560  17.163   1.607  0.00  0.00    -0.388 OA
HETATM   59  H   UNK N   1      19.410  18.009   1.159  0.00  0.00     0.210 HD
ENDBRANCH  48  58
BRANCH  49  60
HETATM   60  N   UNK N   1      19.536  14.269   2.811  0.00  0.00    -0.297 N 
HETATM   61  C   UNK N   1      19.127  14.088   1.528  0.00  0.00     0.188 A 
HETATM   62  N   UNK N   1      18.723  12.806   1.302  0.00  0.00    -0.346 N 
HETATM   63  C   UNK N   1      18.910  12.188   2.479  0.00  0.00     0.122 A 
ATOM     64  HN  UNK N   1      18.361  12.408   0.437  1.00  0.00     0.167 HD
HETATM   65  C   UNK N   1      18.747  10.852   2.809  0.00  0.00     0.131 A 
HETATM   66  C   UNK N   1      19.378  13.066   3.394  0.00  0.00     0.142 A 
HETATM   67  N   UNK N   1      19.062  10.465   4.081  0.00  0.00    -0.337 N 
HETATM   68  C   UNK N   1      19.526  11.374   5.002  0.00  0.00     0.183 A 
ATOM     69  HN  UNK N   1      18.951   9.487   4.351  1.00  0.00     0.168 HD
HETATM   70  N   UNK N   1      19.700  12.689   4.654  0.00  0.00    -0.336 N 
ATOM     71  HN  UNK N   1      20.061  13.365   5.327  1.00  0.00     0.168 HD
BRANCH  65  72
HETATM   72  N   UNK N   1      18.316   9.907   1.856  0.00  0.00    -0.383 N 
HETATM   73  H   UNK N   1      17.703  10.177   1.134  0.00  0.00     0.157 HD
HETATM   74  H   UNK N   1      18.630   8.975   1.913  0.00  0.00     0.157 HD
ENDBRANCH  65  72
ENDBRANCH  49  60
ENDBRANCH  45  46
ENDBRANCH  44  45
ENDBRANCH  40  44
ENDBRANCH  39  40
ENDBRANCH   2  39
TORSDOF 34
ENDMDL
MODEL 3
REMARK VINA RESULT:      -6.9      5.601     11.637
REMARK WARNING: 32 MAX_TORS EXCEEDED!!!
REMARK  34 active torsions:
REMARK  status: ('A' for Active; 'I' for Inactive)
REMARK    1  A    between atoms: C_8  and  C_7 
REMARK    2  A    between atoms: C_20  and  C_7 
REMARK    3  A    between atoms: N_33  and  C_8 
REMARK    4  A    between atoms: C_10  and  C_9 
REMARK    5  A    between atoms: N_31  and  C_9 
REMARK    6  A    between atoms: S_63  and  C_10 
REMARK    7  A    between atoms: C_19  and  C_11 
REMARK    8  A    between atoms: O_55  and  C_11 
REMARK    9  A    between atoms: C_18  and  C_12 
REMARK   10  A    between atoms: S_63  and  C_12 
REMARK   11  A    between atoms: C_29  and  C_13 
REMARK   12  A    between atoms: O_56  and  C_13 
REMARK   13  A    between atoms: C_18  and  C_16 
REMARK   14  A    between atoms: O_42  and  C_17 
REMARK   15  A    between atoms: N_31  and  C_20 
REMARK   16  A    between atoms: O_44  and  C_20 
REMARK   17  A    between atoms: C_22  and  O_45 
REMARK   18  A    between atoms: C_23  and  O_58 
REMARK   19  A    between atoms: C_27  and  C_24 
REMARK   20  A    between atoms: C_29  and  C_24 
REMARK   21  A    between atoms: C_24  and  O_46 
REMARK   22  A    between atoms: N_30  and  C_25 
REMARK   23  A    between atoms: N_33  and  C_27 
REMARK   24  A    between atoms: O_47  and  C_27 
REMARK   25  A    between atoms: C_28  and  N_41 
REMARK   26  A    between atoms: P_60  and  O_48 
REMARK   27  A    between atoms: P_60  and  O_49 
REMARK   28  A    between atoms: P_61  and  O_51 
REMARK   29  A    between atoms: P_62  and  O_53 
REMARK   30  A    between atoms: P_61  and  O_55 
REMARK   31  A    between atoms: P_62  and  O_56 
REMARK   32  A    between atoms: P_60  and  O_58 
REMARK   33  A    between atoms: P_61  and  O_59 
REMARK   34  A    between atoms: P_62  and  O_59 
ROOT
HETATM    1  O   UNK N   1      28.189  17.735   8.707  0.00  0.00    -0.631 OA
HETATM    2  P   UNK N   1      28.183  17.475   7.176  0.00  0.00     0.401 P 
ENDROOT
BRANCH   2   3
HETATM    3  O   UNK N   1      26.682  16.661   6.859  0.00  0.00    -0.307 OA
HETATM    4  H   UNK N   1      25.825  16.816   6.433  0.00  0.00     0.222 HD
ENDBRANCH   2   3
BRANCH   2   5
HETATM    5  O   UNK N   1      29.531  16.421   6.864  0.00  0.00    -0.296 OA
BRANCH   5   6
HETATM    6  C   UNK N   1      30.631  17.248   6.625  0.00  0.00     0.192 C 
BRANCH   6   7
HETATM    7  C   UNK N   1      31.923  16.557   7.063  0.00  0.00     0.008 C 
HETATM    8  C   UNK N   1      31.795  15.044   6.954  0.00  0.00     0.020 C 
HETATM    9  C   UNK N   1      33.039  16.967   6.116  0.00  0.00     0.020 C 
BRANCH   7  10
HETATM   10  C   UNK N   1      32.262  16.918   8.520  0.00  0.00     0.202 C 
BRANCH  10  11
HETATM   11  C   UNK N   1      33.599  17.593   8.692  0.00  0.00     0.141 C 
BRANCH  11  12
HETATM   12  N   UNK N   1      34.552  16.966   9.289  0.00  0.00    -0.372 N 
ATOM     13  HN  UNK N   1      35.452  17.430   9.416  1.00  0.00     0.161 HD
BRANCH  12  14
HETATM   14  C   UNK N   1      34.378  15.623   9.777  0.00  0.00     0.129 C 
BRANCH  14  15
HETATM   15  C   UNK N   1      35.570  14.757   9.349  0.00  0.00     0.103 C 
BRANCH  15  16
HETATM   16  C   UNK N   1      36.794  14.993  10.196  0.00  0.00     0.112 C 
BRANCH  16  17
HETATM   17  N   UNK N   1      37.810  14.203  10.086  0.00  0.00    -0.374 N 
ATOM     18  HN  UNK N   1      38.525  14.416   9.391  1.00  0.00     0.161 HD
BRANCH  17  19
HETATM   19  C   UNK N   1      37.970  13.034  10.912  0.00  0.00     0.131 C 
BRANCH  19  20
HETATM   20  C   UNK N   1      36.882  12.021  10.601  0.00  0.00     0.094 C 
BRANCH  20  21
HETATM   21  S   UNK N   1      36.453  11.118  12.109  0.00  0.00    -0.160 SA
BRANCH  21  22
HETATM   22  C   UNK N   1      35.327  12.418  12.726  0.00  0.00     0.157 C 
BRANCH  22  23
HETATM   23  C   UNK N   1      35.861  13.170  13.918  0.00  0.00     0.168 C 
HETATM   24  O   UNK N   1      36.447  14.224  13.722  0.00  0.00    -0.291 OA
BRANCH  23  25
HETATM   25  C   UNK N   1      35.705  12.666  15.305  0.00  0.00     0.011 A 
HETATM   26  C   UNK N   1      36.205  11.400  15.650  0.00  0.00     0.018 A 
HETATM   27  C   UNK N   1      36.073  10.921  16.957  0.00  0.00     0.037 A 
HETATM   28  C   UNK N   1      35.450  11.708  17.930  0.00  0.00     0.065 A 
HETATM   29  C   UNK N   1      34.954  12.969  17.596  0.00  0.00     0.037 A 
HETATM   30  C   UNK N   1      35.076  13.443  16.289  0.00  0.00     0.018 A 
BRANCH  28  31
HETATM   31  O   UNK N   1      35.327  11.249  19.186  0.00  0.00    -0.361 OA
HETATM   32  H   UNK N   1      34.580  11.453  19.714  0.00  0.00     0.217 HD
ENDBRANCH  28  31
ENDBRANCH  23  25
ENDBRANCH  22  23
ENDBRANCH  21  22
ENDBRANCH  20  21
ENDBRANCH  19  20
ENDBRANCH  17  19
ENDBRANCH  16  17
BRANCH  16  33
HETATM   33  O   UNK N   1      36.812  16.020  11.069  0.00  0.00    -0.350 OA
HETATM   34  H   UNK N   1      36.284  16.420  11.732  0.00  0.00     0.219 HD
ENDBRANCH  16  33
ENDBRANCH  15  16
ENDBRANCH  14  15
ENDBRANCH  12  14
ENDBRANCH  11  12
BRANCH  11  35
HETATM   35  O   UNK N   1      33.759  18.882   8.314  0.00  0.00    -0.348 OA
HETATM   36  H   UNK N   1      33.538  19.790   8.243  0.00  0.00     0.219 HD
ENDBRANCH  11  35
ENDBRANCH  10  11
BRANCH  10  37
HETATM   37  O   UNK N   1      31.259  17.727   9.068  0.00  0.00    -0.387 OA
HETATM   38  H   UNK N   1      30.356  17.940   9.353  0.00  0.00     0.210 HD
ENDBRANCH  10  37
ENDBRANCH   7  10
ENDBRANCH   6   7
ENDBRANCH   5   6
ENDBRANCH   2   5
BRANCH   2  39
HETATM   39  O   UNK N   1      28.228  19.045   6.408  0.00  0.00    -0.195 OA
BRANCH  39  40
HETATM   40  P   UNK N   1      27.161  19.053   5.020  0.00  0.00     0.401 P 
HETATM   41  O   UNK N   1      27.631  20.218   4.112  0.00  0.00    -0.631 OA
BRANCH  40  42
HETATM   42  O   UNK N   1      27.413  17.635   4.053  0.00  0.00    -0.307 OA
HETATM   43  H   UNK N   1      27.501  17.321   3.140  0.00  0.00     0.222 HD
ENDBRANCH  40  42
BRANCH  40  44
HETATM   44  O   UNK N   1      25.456  19.288   5.335  0.00  0.00    -0.294 OA
BRANCH  44  45
HETATM   45  C   UNK N   1      24.815  19.145   4.108  0.00  0.00     0.215 C 
BRANCH  45  46
HETATM   46  C   UNK N   1      23.912  17.919   4.094  0.00  0.00     0.180 C 
HETATM   47  C   UNK N   1      22.478  18.377   3.854  0.00  0.00     0.197 C 
HETATM   48  C   UNK N   1      21.725  17.207   4.426  0.00  0.00     0.199 C 
HETATM   49  C   UNK N   1      22.552  17.117   5.723  0.00  0.00     0.262 C 
HETATM   50  O   UNK N   1      23.916  17.203   5.330  0.00  0.00    -0.353 OA
BRANCH  47  51
HETATM   51  O   UNK N   1      22.151  18.902   2.579  0.00  0.00    -0.286 OA
BRANCH  51  52
HETATM   52  P   UNK N   1      21.266  20.413   2.564  0.00  0.00     0.391 P 
HETATM   53  O   UNK N   1      22.339  21.516   2.777  0.00  0.00    -0.632 OA
BRANCH  52  54
HETATM   54  O   UNK N   1      20.433  20.834   1.101  0.00  0.00    -0.307 OA
HETATM   55  H   UNK N   1      19.999  21.505   0.552  0.00  0.00     0.222 HD
ENDBRANCH  52  54
BRANCH  52  56
HETATM   56  O   UNK N   1      20.224  20.533   3.944  0.00  0.00    -0.307 OA
HETATM   57  H   UNK N   1      19.421  19.991   4.003  0.00  0.00     0.222 HD
ENDBRANCH  52  56
ENDBRANCH  51  52
ENDBRANCH  47  51
BRANCH  48  58
HETATM   58  O   UNK N   1      20.381  17.509   4.649  0.00  0.00    -0.388 OA
HETATM   59  H   UNK N   1      19.801  18.274   4.514  0.00  0.00     0.210 HD
ENDBRANCH  48  58
BRANCH  49  60
HETATM   60  N   UNK N   1      22.278  15.991   6.630  0.00  0.00    -0.297 N 
HETATM   61  C   UNK N   1      23.152  14.976   6.859  0.00  0.00     0.188 A 
HETATM   62  N   UNK N   1      22.730  14.163   7.868  0.00  0.00    -0.346 N 
HETATM   63  C   UNK N   1      21.574  14.712   8.273  0.00  0.00     0.122 A 
ATOM     64  HN  UNK N   1      23.188  13.328   8.231  1.00  0.00     0.167 HD
HETATM   65  C   UNK N   1      20.750  14.354   9.328  0.00  0.00     0.131 A 
HETATM   66  C   UNK N   1      21.288  15.797   7.521  0.00  0.00     0.142 A 
HETATM   67  N   UNK N   1      19.645  15.121   9.566  0.00  0.00    -0.337 N 
HETATM   68  C   UNK N   1      19.363  16.215   8.782  0.00  0.00     0.183 A 
ATOM     69  HN  UNK N   1      19.020  14.879  10.335  1.00  0.00     0.168 HD
HETATM   70  N   UNK N   1      20.199  16.568   7.754  0.00  0.00    -0.336 N 
ATOM     71  HN  UNK N   1      20.005  17.388   7.181  1.00  0.00     0.168 HD
BRANCH  65  72
HETATM   72  N   UNK N   1      21.060  13.261  10.164  0.00  0.00    -0.383 N 
HETATM   73  H   UNK N   1      20.657  13.193  11.060  0.00  0.00     0.157 HD
HETATM   74  H   UNK N   1      21.682  12.564   9.850  0.00  0.00     0.157 HD
ENDBRANCH  65  72
ENDBRANCH  49  60
ENDBRANCH  45  46
ENDBRANCH  44  45
ENDBRANCH  40  44
ENDBRANCH  39  40
ENDBRANCH   2  39
TORSDOF 34
ENDMDL
MODEL 4
REMARK VINA RESULT:      -6.7      5.925     11.611
REMARK WARNING: 32 MAX_TORS EXCEEDED!!!
REMARK  34 active torsions:
REMARK  status: ('A' for Active; 'I' for Inactive)
REMARK    1  A    between atoms: C_8  and  C_7 
REMARK    2  A    between atoms: C_20  and  C_7 
REMARK    3  A    between atoms: N_33  and  C_8 
REMARK    4  A    between atoms: C_10  and  C_9 
REMARK    5  A    between atoms: N_31  and  C_9 
REMARK    6  A    between atoms: S_63  and  C_10 
REMARK    7  A    between atoms: C_19  and  C_11 
REMARK    8  A    between atoms: O_55  and  C_11 
REMARK    9  A    between atoms: C_18  and  C_12 
REMARK   10  A    between atoms: S_63  and  C_12 
REMARK   11  A    between atoms: C_29  and  C_13 
REMARK   12  A    between atoms: O_56  and  C_13 
REMARK   13  A    between atoms: C_18  and  C_16 
REMARK   14  A    between atoms: O_42  and  C_17 
REMARK   15  A    between atoms: N_31  and  C_20 
REMARK   16  A    between atoms: O_44  and  C_20 
REMARK   17  A    between atoms: C_22  and  O_45 
REMARK   18  A    between atoms: C_23  and  O_58 
REMARK   19  A    between atoms: C_27  and  C_24 
REMARK   20  A    between atoms: C_29  and  C_24 
REMARK   21  A    between atoms: C_24  and  O_46 
REMARK   22  A    between atoms: N_30  and  C_25 
REMARK   23  A    between atoms: N_33  and  C_27 
REMARK   24  A    between atoms: O_47  and  C_27 
REMARK   25  A    between atoms: C_28  and  N_41 
REMARK   26  A    between atoms: P_60  and  O_48 
REMARK   27  A    between atoms: P_60  and  O_49 
REMARK   28  A    between atoms: P_61  and  O_51 
REMARK   29  A    between atoms: P_62  and  O_53 
REMARK   30  A    between atoms: P_61  and  O_55 
REMARK   31  A    between atoms: P_62  and  O_56 
REMARK   32  A    between atoms: P_60  and  O_58 
REMARK   33  A    between atoms: P_61  and  O_59 
REMARK   34  A    between atoms: P_62  and  O_59 
ROOT
HETATM    1  O   UNK N   1      28.023  17.908   8.170  0.00  0.00    -0.631 OA
HETATM    2  P   UNK N   1      27.887  17.279   6.757  0.00  0.00     0.401 P 
ENDROOT
BRANCH   2   3
HETATM    3  O   UNK N   1      26.457  16.297   6.834  0.00  0.00    -0.307 OA
HETATM    4  H   UNK N   1      25.582  16.283   7.253  0.00  0.00     0.222 HD
ENDBRANCH   2   3
BRANCH   2   5
HETATM    5  O   UNK N   1      29.300  16.291   6.535  0.00  0.00    -0.296 OA
BRANCH   5   6
HETATM    6  C   UNK N   1      30.382  17.168   6.433  0.00  0.00     0.192 C 
BRANCH   6   7
HETATM    7  C   UNK N   1      31.660  16.501   6.947  0.00  0.00     0.008 C 
HETATM    8  C   UNK N   1      31.569  14.987   6.825  0.00  0.00     0.020 C 
HETATM    9  C   UNK N   1      32.823  16.938   6.071  0.00  0.00     0.020 C 
BRANCH   7  10
HETATM   10  C   UNK N   1      31.902  16.862   8.422  0.00  0.00     0.202 C 
BRANCH  10  11
HETATM   11  C   UNK N   1      33.257  17.466   8.695  0.00  0.00     0.141 C 
BRANCH  11  12
HETATM   12  N   UNK N   1      34.088  16.839   9.452  0.00  0.00    -0.372 N 
ATOM     13  HN  UNK N   1      34.744  17.373  10.021  1.00  0.00     0.161 HD
BRANCH  12  14
HETATM   14  C   UNK N   1      34.114  15.401   9.510  0.00  0.00     0.129 C 
BRANCH  14  15
HETATM   15  C   UNK N   1      35.538  14.898   9.240  0.00  0.00     0.103 C 
BRANCH  15  16
HETATM   16  C   UNK N   1      36.472  15.148  10.397  0.00  0.00     0.112 C 
BRANCH  16  17
HETATM   17  N   UNK N   1      37.175  14.176  10.874  0.00  0.00    -0.374 N 
ATOM     18  HN  UNK N   1      37.904  14.384  11.556  1.00  0.00     0.161 HD
BRANCH  17  19
HETATM   19  C   UNK N   1      36.966  12.806  10.478  0.00  0.00     0.131 C 
BRANCH  19  20
HETATM   20  C   UNK N   1      36.184  12.066  11.549  0.00  0.00     0.094 C 
BRANCH  20  21
HETATM   21  S   UNK N   1      36.812  12.532  13.181  0.00  0.00    -0.160 SA
BRANCH  21  22
HETATM   22  C   UNK N   1      35.160  12.949  13.843  0.00  0.00     0.157 C 
BRANCH  22  23
HETATM   23  C   UNK N   1      34.664  11.988  14.892  0.00  0.00     0.168 C 
HETATM   24  O   UNK N   1      34.012  11.020  14.528  0.00  0.00    -0.291 OA
BRANCH  23  25
HETATM   25  C   UNK N   1      34.931  12.189  16.338  0.00  0.00     0.011 A 
HETATM   26  C   UNK N   1      34.976  13.488  16.867  0.00  0.00     0.018 A 
HETATM   27  C   UNK N   1      35.217  13.688  18.230  0.00  0.00     0.037 A 
HETATM   28  C   UNK N   1      35.403  12.589  19.075  0.00  0.00     0.065 A 
HETATM   29  C   UNK N   1      35.355  11.294  18.557  0.00  0.00     0.037 A 
HETATM   30  C   UNK N   1      35.126  11.095  17.194  0.00  0.00     0.018 A 
BRANCH  28  31
HETATM   31  O   UNK N   1      35.629  12.780  20.384  0.00  0.00    -0.361 OA
HETATM   32  H   UNK N   1      36.192  12.213  20.875  0.00  0.00     0.217 HD
ENDBRANCH  28  31
ENDBRANCH  23  25
ENDBRANCH  22  23
ENDBRANCH  21  22
ENDBRANCH  20  21
ENDBRANCH  19  20
ENDBRANCH  17  19
ENDBRANCH  16  17
BRANCH  16  33
HETATM   33  O   UNK N   1      36.556  16.384  10.930  0.00  0.00    -0.350 OA
HETATM   34  H   UNK N   1      36.015  17.110  11.171  0.00  0.00     0.219 HD
ENDBRANCH  16  33
ENDBRANCH  15  16
ENDBRANCH  14  15
ENDBRANCH  12  14
ENDBRANCH  11  12
BRANCH  11  35
HETATM   35  O   UNK N   1      33.551  18.701   8.230  0.00  0.00    -0.348 OA
HETATM   36  H   UNK N   1      34.103  19.402   7.941  0.00  0.00     0.219 HD
ENDBRANCH  11  35
ENDBRANCH  10  11
BRANCH  10  37
HETATM   37  O   UNK N   1      30.905  17.731   8.882  0.00  0.00    -0.387 OA
HETATM   38  H   UNK N   1      30.267  18.458   8.808  0.00  0.00     0.210 HD
ENDBRANCH  10  37
ENDBRANCH   7  10
ENDBRANCH   6   7
ENDBRANCH   5   6
ENDBRANCH   2   5
BRANCH   2  39
HETATM   39  O   UNK N   1      27.683  18.610   5.641  0.00  0.00    -0.195 OA
BRANCH  39  40
HETATM   40  P   UNK N   1      26.368  18.260   4.540  0.00  0.00     0.401 P 
HETATM   41  O   UNK N   1      26.414  19.351   3.440  0.00  0.00    -0.631 OA
BRANCH  40  42
HETATM   42  O   UNK N   1      26.671  16.782   3.684  0.00  0.00    -0.307 OA
HETATM   43  H   UNK N   1      27.063  15.899   3.768  0.00  0.00     0.222 HD
ENDBRANCH  40  42
BRANCH  40  44
HETATM   44  O   UNK N   1      24.753  18.260   5.213  0.00  0.00    -0.294 OA
BRANCH  44  45
HETATM   45  C   UNK N   1      23.921  17.758   4.217  0.00  0.00     0.215 C 
BRANCH  45  46
HETATM   46  C   UNK N   1      23.289  16.437   4.636  0.00  0.00     0.180 C 
HETATM   47  C   UNK N   1      21.804  16.481   4.295  0.00  0.00     0.197 C 
HETATM   48  C   UNK N   1      21.282  15.437   5.245  0.00  0.00     0.199 C 
HETATM   49  C   UNK N   1      22.051  15.955   6.474  0.00  0.00     0.262 C 
HETATM   50  O   UNK N   1      23.385  16.187   6.039  0.00  0.00    -0.353 OA
BRANCH  47  51
HETATM   51  O   UNK N   1      21.434  16.476   2.928  0.00  0.00    -0.286 OA
BRANCH  51  52
HETATM   52  P   UNK N   1      20.281  17.696   2.429  0.00  0.00     0.391 P 
HETATM   53  O   UNK N   1      19.241  17.768   3.580  0.00  0.00    -0.632 OA
BRANCH  52  54
HETATM   54  O   UNK N   1      20.873  19.313   2.217  0.00  0.00    -0.307 OA
HETATM   55  H   UNK N   1      20.727  20.221   1.911  0.00  0.00     0.222 HD
ENDBRANCH  52  54
BRANCH  52  56
HETATM   56  O   UNK N   1      19.379  17.166   1.047  0.00  0.00    -0.307 OA
HETATM   57  H   UNK N   1      19.054  17.807   0.395  0.00  0.00     0.222 HD
ENDBRANCH  52  56
ENDBRANCH  51  52
ENDBRANCH  47  51
BRANCH  48  58
HETATM   58  O   UNK N   1      19.896  15.510   5.390  0.00  0.00    -0.388 OA
HETATM   59  H   UNK N   1      19.233  15.149   5.998  0.00  0.00     0.210 HD
ENDBRANCH  48  58
BRANCH  49  60
HETATM   60  N   UNK N   1      21.974  15.161   7.711  0.00  0.00    -0.297 N 
HETATM   61  C   UNK N   1      20.993  15.308   8.641  0.00  0.00     0.188 A 
HETATM   62  N   UNK N   1      21.053  14.337   9.595  0.00  0.00    -0.346 N 
HETATM   63  C   UNK N   1      22.089  13.569   9.222  0.00  0.00     0.122 A 
ATOM     64  HN  UNK N   1      20.449  14.221  10.408  1.00  0.00     0.167 HD
HETATM   65  C   UNK N   1      22.556  12.388   9.776  0.00  0.00     0.131 A 
HETATM   66  C   UNK N   1      22.658  14.071   8.104  0.00  0.00     0.142 A 
HETATM   67  N   UNK N   1      23.608  11.766   9.164  0.00  0.00    -0.337 N 
HETATM   68  C   UNK N   1      24.181  12.298   8.033  0.00  0.00     0.183 A 
ATOM     69  HN  UNK N   1      23.972  10.896   9.552  1.00  0.00     0.168 HD
HETATM   70  N   UNK N   1      23.695  13.457   7.486  0.00  0.00    -0.336 N 
ATOM     71  HN  UNK N   1      24.104  13.846   6.637  1.00  0.00     0.168 HD
BRANCH  65  72
HETATM   72  N   UNK N   1      21.942  11.815  10.909  0.00  0.00    -0.383 N 
HETATM   73  H   UNK N   1      21.220  12.294  11.376  0.00  0.00     0.157 HD
HETATM   74  H   UNK N   1      22.237  10.932  11.233  0.00  0.00     0.157 HD
ENDBRANCH  65  72
ENDBRANCH  49  60
ENDBRANCH  45  46
ENDBRANCH  44  45
ENDBRANCH  40  44
ENDBRANCH  39  40
ENDBRANCH   2  39
TORSDOF 34
ENDMDL
MODEL 5
REMARK VINA RESULT:      -6.7      3.501      5.382
REMARK WARNING: 32 MAX_TORS EXCEEDED!!!
REMARK  34 active torsions:
REMARK  status: ('A' for Active; 'I' for Inactive)
REMARK    1  A    between atoms: C_8  and  C_7 
REMARK    2  A    between atoms: C_20  and  C_7 
REMARK    3  A    between atoms: N_33  and  C_8 
REMARK    4  A    between atoms: C_10  and  C_9 
REMARK    5  A    between atoms: N_31  and  C_9 
REMARK    6  A    between atoms: S_63  and  C_10 
REMARK    7  A    between atoms: C_19  and  C_11 
REMARK    8  A    between atoms: O_55  and  C_11 
REMARK    9  A    between atoms: C_18  and  C_12 
REMARK   10  A    between atoms: S_63  and  C_12 
REMARK   11  A    between atoms: C_29  and  C_13 
REMARK   12  A    between atoms: O_56  and  C_13 
REMARK   13  A    between atoms: C_18  and  C_16 
REMARK   14  A    between atoms: O_42  and  C_17 
REMARK   15  A    between atoms: N_31  and  C_20 
REMARK   16  A    between atoms: O_44  and  C_20 
REMARK   17  A    between atoms: C_22  and  O_45 
REMARK   18  A    between atoms: C_23  and  O_58 
REMARK   19  A    between atoms: C_27  and  C_24 
REMARK   20  A    between atoms: C_29  and  C_24 
REMARK   21  A    between atoms: C_24  and  O_46 
REMARK   22  A    between atoms: N_30  and  C_25 
REMARK   23  A    between atoms: N_33  and  C_27 
REMARK   24  A    between atoms: O_47  and  C_27 
REMARK   25  A    between atoms: C_28  and  N_41 
REMARK   26  A    between atoms: P_60  and  O_48 
REMARK   27  A    between atoms: P_60  and  O_49 
REMARK   28  A    between atoms: P_61  and  O_51 
REMARK   29  A    between atoms: P_62  and  O_53 
REMARK   30  A    between atoms: P_61  and  O_55 
REMARK   31  A    between atoms: P_62  and  O_56 
REMARK   32  A    between atoms: P_60  and  O_58 
REMARK   33  A    between atoms: P_61  and  O_59 
REMARK   34  A    between atoms: P_62  and  O_59 
ROOT
HETATM    1  O   UNK N   1      30.389  12.849   3.080  0.00  0.00    -0.631 OA
HETATM    2  P   UNK N   1      30.397  14.184   3.874  0.00  0.00     0.401 P 
ENDROOT
BRANCH   2   3
HETATM    3  O   UNK N   1      30.062  13.737   5.518  0.00  0.00    -0.307 OA
HETATM    4  H   UNK N   1      30.032  14.125   6.406  0.00  0.00     0.222 HD
ENDBRANCH   2   3
BRANCH   2   5
HETATM    5  O   UNK N   1      29.099  15.138   3.220  0.00  0.00    -0.296 OA
BRANCH   5   6
HETATM    6  C   UNK N   1      28.224  15.391   4.279  0.00  0.00     0.192 C 
BRANCH   6   7
HETATM    7  C   UNK N   1      26.993  16.151   3.783  0.00  0.00     0.008 C 
HETATM    8  C   UNK N   1      26.640  15.747   2.359  0.00  0.00     0.020 C 
HETATM    9  C   UNK N   1      25.804  15.768   4.650  0.00  0.00     0.020 C 
BRANCH   7  10
HETATM   10  C   UNK N   1      27.245  17.669   3.815  0.00  0.00     0.202 C 
BRANCH  10  11
HETATM   11  C   UNK N   1      26.602  18.376   4.983  0.00  0.00     0.141 C 
BRANCH  11  12
HETATM   12  N   UNK N   1      25.688  19.255   4.763  0.00  0.00    -0.372 N 
ATOM     13  HN  UNK N   1      25.409  19.883   5.517  1.00  0.00     0.161 HD
BRANCH  12  14
HETATM   14  C   UNK N   1      25.049  19.371   3.479  0.00  0.00     0.129 C 
BRANCH  14  15
HETATM   15  C   UNK N   1      23.528  19.451   3.663  0.00  0.00     0.103 C 
BRANCH  15  16
HETATM   16  C   UNK N   1      22.971  18.273   4.422  0.00  0.00     0.112 C 
BRANCH  16  17
HETATM   17  N   UNK N   1      22.233  17.408   3.810  0.00  0.00    -0.374 N 
ATOM     18  HN  UNK N   1      22.482  16.421   3.866  1.00  0.00     0.161 HD
BRANCH  17  19
HETATM   19  C   UNK N   1      21.069  17.788   3.051  0.00  0.00     0.131 C 
BRANCH  19  20
HETATM   20  C   UNK N   1      19.817  17.214   3.691  0.00  0.00     0.094 C 
BRANCH  20  21
HETATM   21  S   UNK N   1      20.214  15.633   4.475  0.00  0.00    -0.160 SA
BRANCH  21  22
HETATM   22  C   UNK N   1      19.539  16.118   6.102  0.00  0.00     0.157 C 
BRANCH  22  23
HETATM   23  C   UNK N   1      20.594  16.391   7.143  0.00  0.00     0.168 C 
HETATM   24  O   UNK N   1      20.915  17.551   7.352  0.00  0.00    -0.291 OA
BRANCH  23  25
HETATM   25  C   UNK N   1      21.256  15.300   7.902  0.00  0.00     0.011 A 
HETATM   26  C   UNK N   1      22.425  14.708   7.401  0.00  0.00     0.018 A 
HETATM   27  C   UNK N   1      23.061  13.686   8.113  0.00  0.00     0.037 A 
HETATM   28  C   UNK N   1      22.539  13.259   9.338  0.00  0.00     0.065 A 
HETATM   29  C   UNK N   1      21.378  13.846   9.845  0.00  0.00     0.037 A 
HETATM   30  C   UNK N   1      20.737  14.857   9.128  0.00  0.00     0.018 A 
BRANCH  28  31
HETATM   31  O   UNK N   1      23.152  12.282  10.025  0.00  0.00    -0.361 OA
HETATM   32  H   UNK N   1      24.068  12.317  10.220  0.00  0.00     0.217 HD
ENDBRANCH  28  31
ENDBRANCH  23  25
ENDBRANCH  22  23
ENDBRANCH  21  22
ENDBRANCH  20  21
ENDBRANCH  19  20
ENDBRANCH  17  19
ENDBRANCH  16  17
BRANCH  16  33
HETATM   33  O   UNK N   1      23.241  18.139   5.736  0.00  0.00    -0.350 OA
HETATM   34  H   UNK N   1      23.124  18.586   6.551  0.00  0.00     0.219 HD
ENDBRANCH  16  33
ENDBRANCH  15  16
ENDBRANCH  14  15
ENDBRANCH  12  14
ENDBRANCH  11  12
BRANCH  11  35
HETATM   35  O   UNK N   1      27.057  18.158   6.237  0.00  0.00    -0.348 OA
HETATM   36  H   UNK N   1      27.462  18.376   7.054  0.00  0.00     0.219 HD
ENDBRANCH  11  35
ENDBRANCH  10  11
BRANCH  10  37
HETATM   37  O   UNK N   1      28.619  17.935   3.811  0.00  0.00    -0.387 OA
HETATM   38  H   UNK N   1      29.422  18.423   3.567  0.00  0.00     0.210 HD
ENDBRANCH  10  37
ENDBRANCH   7  10
ENDBRANCH   6   7
ENDBRANCH   5   6
ENDBRANCH   2   5
BRANCH   2  39
HETATM   39  O   UNK N   1      32.008  14.845   3.713  0.00  0.00    -0.195 OA
BRANCH  39  40
HETATM   40  P   UNK N   1      31.933  16.594   3.731  0.00  0.00     0.401 P 
HETATM   41  O   UNK N   1      33.393  17.098   3.606  0.00  0.00    -0.631 OA
BRANCH  40  42
HETATM   42  O   UNK N   1      31.156  17.183   2.297  0.00  0.00    -0.307 OA
HETATM   43  H   UNK N   1      31.323  17.494   1.393  0.00  0.00     0.222 HD
ENDBRANCH  40  42
BRANCH  40  44
HETATM   44  O   UNK N   1      31.241  17.339   5.155  0.00  0.00    -0.294 OA
BRANCH  44  45
HETATM   45  C   UNK N   1      32.258  17.373   6.105  0.00  0.00     0.215 C 
BRANCH  45  46
HETATM   46  C   UNK N   1      32.329  16.068   6.887  0.00  0.00     0.180 C 
HETATM   47  C   UNK N   1      31.584  16.252   8.204  0.00  0.00     0.197 C 
HETATM   48  C   UNK N   1      32.222  15.165   9.026  0.00  0.00     0.199 C 
HETATM   49  C   UNK N   1      33.671  15.509   8.629  0.00  0.00     0.262 C 
HETATM   50  O   UNK N   1      33.664  15.682   7.217  0.00  0.00    -0.353 OA
BRANCH  47  51
HETATM   51  O   UNK N   1      30.176  16.400   8.157  0.00  0.00    -0.286 OA
BRANCH  51  52
HETATM   52  P   UNK N   1      29.477  17.551   9.277  0.00  0.00     0.391 P 
HETATM   53  O   UNK N   1      30.370  18.817   9.170  0.00  0.00    -0.632 OA
BRANCH  52  54
HETATM   54  O   UNK N   1      27.855  18.082   8.965  0.00  0.00    -0.307 OA
HETATM   55  H   UNK N   1      27.013  18.431   9.298  0.00  0.00     0.222 HD
ENDBRANCH  52  54
BRANCH  52  56
HETATM   56  O   UNK N   1      29.663  17.012  10.914  0.00  0.00    -0.307 OA
HETATM   57  H   UNK N   1      30.092  16.163  11.107  0.00  0.00     0.222 HD
ENDBRANCH  52  56
ENDBRANCH  51  52
ENDBRANCH  47  51
BRANCH  48  58
HETATM   58  O   UNK N   1      31.971  15.325  10.389  0.00  0.00    -0.388 OA
HETATM   59  H   UNK N   1      31.369  15.853  10.935  0.00  0.00     0.210 HD
ENDBRANCH  48  58
BRANCH  49  60
HETATM   60  N   UNK N   1      34.738  14.611   9.100  0.00  0.00    -0.297 N 
HETATM   61  C   UNK N   1      35.506  13.854   8.273  0.00  0.00     0.188 A 
HETATM   62  N   UNK N   1      36.530  13.255   8.944  0.00  0.00    -0.346 N 
HETATM   63  C   UNK N   1      36.387  13.676  10.210  0.00  0.00     0.122 A 
ATOM     64  HN  UNK N   1      37.241  12.628   8.568  1.00  0.00     0.167 HD
HETATM   65  C   UNK N   1      37.199  13.450  11.311  0.00  0.00     0.131 A 
HETATM   66  C   UNK N   1      35.302  14.474  10.314  0.00  0.00     0.142 A 
HETATM   67  N   UNK N   1      36.856  14.047  12.491  0.00  0.00    -0.337 N 
HETATM   68  C   UNK N   1      35.741  14.846  12.580  0.00  0.00     0.183 A 
ATOM     69  HN  UNK N   1      37.435  13.897  13.318  1.00  0.00     0.168 HD
HETATM   70  N   UNK N   1      34.960  15.075  11.478  0.00  0.00    -0.336 N 
ATOM     71  HN  UNK N   1      34.142  15.682  11.533  1.00  0.00     0.168 HD
BRANCH  65  72
HETATM   72  N   UNK N   1      38.369  12.669  11.213  0.00  0.00    -0.383 N 
HETATM   73  H   UNK N   1      39.254  13.090  11.308  0.00  0.00     0.157 HD
HETATM   74  H   UNK N   1      38.299  11.700  11.049  0.00  0.00     0.157 HD
ENDBRANCH  65  72
ENDBRANCH  49  60
ENDBRANCH  45  46
ENDBRANCH  44  45
ENDBRANCH  40  44
ENDBRANCH  39  40
ENDBRANCH   2  39
TORSDOF 34
ENDMDL
MODEL 6
REMARK VINA RESULT:      -6.7      6.829     11.351
REMARK WARNING: 32 MAX_TORS EXCEEDED!!!
REMARK  34 active torsions:
REMARK  status: ('A' for Active; 'I' for Inactive)
REMARK    1  A    between atoms: C_8  and  C_7 
REMARK    2  A    between atoms: C_20  and  C_7 
REMARK    3  A    between atoms: N_33  and  C_8 
REMARK    4  A    between atoms: C_10  and  C_9 
REMARK    5  A    between atoms: N_31  and  C_9 
REMARK    6  A    between atoms: S_63  and  C_10 
REMARK    7  A    between atoms: C_19  and  C_11 
REMARK    8  A    between atoms: O_55  and  C_11 
REMARK    9  A    between atoms: C_18  and  C_12 
REMARK   10  A    between atoms: S_63  and  C_12 
REMARK   11  A    between atoms: C_29  and  C_13 
REMARK   12  A    between atoms: O_56  and  C_13 
REMARK   13  A    between atoms: C_18  and  C_16 
REMARK   14  A    between atoms: O_42  and  C_17 
REMARK   15  A    between atoms: N_31  and  C_20 
REMARK   16  A    between atoms: O_44  and  C_20 
REMARK   17  A    between atoms: C_22  and  O_45 
REMARK   18  A    between atoms: C_23  and  O_58 
REMARK   19  A    between atoms: C_27  and  C_24 
REMARK   20  A    between atoms: C_29  and  C_24 
REMARK   21  A    between atoms: C_24  and  O_46 
REMARK   22  A    between atoms: N_30  and  C_25 
REMARK   23  A    between atoms: N_33  and  C_27 
REMARK   24  A    between atoms: O_47  and  C_27 
REMARK   25  A    between atoms: C_28  and  N_41 
REMARK   26  A    between atoms: P_60  and  O_48 
REMARK   27  A    between atoms: P_60  and  O_49 
REMARK   28  A    between atoms: P_61  and  O_51 
REMARK   29  A    between atoms: P_62  and  O_53 
REMARK   30  A    between atoms: P_61  and  O_55 
REMARK   31  A    between atoms: P_62  and  O_56 
REMARK   32  A    between atoms: P_60  and  O_58 
REMARK   33  A    between atoms: P_61  and  O_59 
REMARK   34  A    between atoms: P_62  and  O_59 
ROOT
HETATM    1  O   UNK N   1      35.979  15.139  11.579  0.00  0.00    -0.631 OA
HETATM    2  P   UNK N   1      35.045  15.388  10.364  0.00  0.00     0.401 P 
ENDROOT
BRANCH   2   3
HETATM    3  O   UNK N   1      33.445  15.041  10.943  0.00  0.00    -0.307 OA
HETATM    4  H   UNK N   1      32.589  15.477  11.077  0.00  0.00     0.222 HD
ENDBRANCH   2   3
BRANCH   2   5
HETATM    5  O   UNK N   1      35.521  14.238   9.150  0.00  0.00    -0.296 OA
BRANCH   5   6
HETATM    6  C   UNK N   1      36.383  13.336   9.777  0.00  0.00     0.192 C 
BRANCH   6   7
HETATM    7  C   UNK N   1      36.638  12.126   8.876  0.00  0.00     0.008 C 
HETATM    8  C   UNK N   1      36.923  12.563   7.447  0.00  0.00     0.020 C 
HETATM    9  C   UNK N   1      37.885  11.409   9.368  0.00  0.00     0.020 C 
BRANCH   7  10
HETATM   10  C   UNK N   1      35.417  11.190   8.871  0.00  0.00     0.202 C 
BRANCH  10  11
HETATM   11  C   UNK N   1      34.551  11.299  10.100  0.00  0.00     0.141 C 
BRANCH  11  12
HETATM   12  N   UNK N   1      34.815  10.569  11.127  0.00  0.00    -0.372 N 
ATOM     13  HN  UNK N   1      35.773  10.253  11.280  1.00  0.00     0.161 HD
BRANCH  12  14
HETATM   14  C   UNK N   1      33.790  10.186  12.061  0.00  0.00     0.129 C 
BRANCH  14  15
HETATM   15  C   UNK N   1      34.181  10.641  13.473  0.00  0.00     0.103 C 
BRANCH  15  16
HETATM   16  C   UNK N   1      34.916  11.957  13.477  0.00  0.00     0.112 C 
BRANCH  16  17
HETATM   17  N   UNK N   1      36.084  12.036  14.022  0.00  0.00    -0.374 N 
ATOM     18  HN  UNK N   1      36.206  12.632  14.840  1.00  0.00     0.161 HD
BRANCH  17  19
HETATM   19  C   UNK N   1      37.221  11.310  13.515  0.00  0.00     0.131 C 
BRANCH  19  20
HETATM   20  C   UNK N   1      37.878  10.520  14.634  0.00  0.00     0.094 C 
BRANCH  20  21
HETATM   21  S   UNK N   1      37.428   8.775  14.481  0.00  0.00    -0.160 SA
BRANCH  21  22
HETATM   22  C   UNK N   1      36.151   8.852  15.786  0.00  0.00     0.157 C 
BRANCH  22  23
HETATM   23  C   UNK N   1      36.702   9.125  17.162  0.00  0.00     0.168 C 
HETATM   24  O   UNK N   1      37.586   8.395  17.587  0.00  0.00    -0.291 OA
BRANCH  23  25
HETATM   25  C   UNK N   1      36.198  10.234  18.009  0.00  0.00     0.011 A 
HETATM   26  C   UNK N   1      36.280  10.140  19.408  0.00  0.00     0.018 A 
HETATM   27  C   UNK N   1      35.816  11.184  20.214  0.00  0.00     0.037 A 
HETATM   28  C   UNK N   1      35.279  12.334  19.628  0.00  0.00     0.065 A 
HETATM   29  C   UNK N   1      35.198  12.437  18.238  0.00  0.00     0.037 A 
HETATM   30  C   UNK N   1      35.649  11.390  17.433  0.00  0.00     0.018 A 
BRANCH  28  31
HETATM   31  O   UNK N   1      34.838  13.339  20.402  0.00  0.00    -0.361 OA
HETATM   32  H   UNK N   1      34.263  13.187  21.126  0.00  0.00     0.217 HD
ENDBRANCH  28  31
ENDBRANCH  23  25
ENDBRANCH  22  23
ENDBRANCH  21  22
ENDBRANCH  20  21
ENDBRANCH  19  20
ENDBRANCH  17  19
ENDBRANCH  16  17
BRANCH  16  33
HETATM   33  O   UNK N   1      34.342  13.042  12.921  0.00  0.00    -0.350 OA
HETATM   34  H   UNK N   1      34.462  13.969  12.843  0.00  0.00     0.219 HD
ENDBRANCH  16  33
ENDBRANCH  15  16
ENDBRANCH  14  15
ENDBRANCH  12  14
ENDBRANCH  11  12
BRANCH  11  35
HETATM   35  O   UNK N   1      33.449  12.083  10.082  0.00  0.00    -0.348 OA
HETATM   36  H   UNK N   1      32.947  12.862  10.219  0.00  0.00     0.219 HD
ENDBRANCH  11  35
ENDBRANCH  10  11
BRANCH  10  37
HETATM   37  O   UNK N   1      34.636  11.415   7.731  0.00  0.00    -0.387 OA
HETATM   38  H   UNK N   1      34.073  11.157   6.982  0.00  0.00     0.210 HD
ENDBRANCH  10  37
ENDBRANCH   7  10
ENDBRANCH   6   7
ENDBRANCH   5   6
ENDBRANCH   2   5
BRANCH   2  39
HETATM   39  O   UNK N   1      35.215  17.078   9.947  0.00  0.00    -0.195 OA
BRANCH  39  40
HETATM   40  P   UNK N   1      34.272  17.430   8.515  0.00  0.00     0.401 P 
HETATM   41  O   UNK N   1      34.455  18.943   8.230  0.00  0.00    -0.631 OA
BRANCH  40  42
HETATM   42  O   UNK N   1      34.961  16.651   7.127  0.00  0.00    -0.307 OA
HETATM   43  H   UNK N   1      35.735  16.155   6.816  0.00  0.00     0.222 HD
ENDBRANCH  40  42
BRANCH  40  44
HETATM   44  O   UNK N   1      32.553  17.117   8.605  0.00  0.00    -0.294 OA
BRANCH  44  45
HETATM   45  C   UNK N   1      31.974  17.844   7.570  0.00  0.00     0.215 C 
BRANCH  45  46
HETATM   46  C   UNK N   1      31.019  16.983   6.753  0.00  0.00     0.180 C 
HETATM   47  C   UNK N   1      31.726  16.560   5.470  0.00  0.00     0.197 C 
HETATM   48  C   UNK N   1      30.537  16.258   4.599  0.00  0.00     0.199 C 
HETATM   49  C   UNK N   1      29.764  17.543   4.949  0.00  0.00     0.262 C 
HETATM   50  O   UNK N   1      29.832  17.674   6.364  0.00  0.00    -0.353 OA
BRANCH  47  51
HETATM   51  O   UNK N   1      32.806  15.649   5.574  0.00  0.00    -0.286 OA
BRANCH  51  52
HETATM   52  P   UNK N   1      32.466  14.126   6.367  0.00  0.00     0.391 P 
HETATM   53  O   UNK N   1      33.626  13.182   5.949  0.00  0.00    -0.632 OA
BRANCH  52  54
HETATM   54  O   UNK N   1      32.443  14.118   8.101  0.00  0.00    -0.307 OA
HETATM   55  H   UNK N   1      32.755  14.490   8.941  0.00  0.00     0.222 HD
ENDBRANCH  52  54
BRANCH  52  56
HETATM   56  O   UNK N   1      31.038  13.394   5.711  0.00  0.00    -0.307 OA
HETATM   57  H   UNK N   1      30.614  13.762   4.920  0.00  0.00     0.222 HD
ENDBRANCH  52  56
ENDBRANCH  51  52
ENDBRANCH  47  51
BRANCH  48  58
HETATM   58  O   UNK N   1      30.886  16.174   3.250  0.00  0.00    -0.388 OA
HETATM   59  H   UNK N   1      30.417  16.164   2.402  0.00  0.00     0.210 HD
ENDBRANCH  48  58
BRANCH  49  60
HETATM   60  N   UNK N   1      28.399  17.685   4.417  0.00  0.00    -0.297 N 
HETATM   61  C   UNK N   1      27.683  16.656   3.892  0.00  0.00     0.188 A 
HETATM   62  N   UNK N   1      26.394  17.015   3.637  0.00  0.00    -0.346 N 
HETATM   63  C   UNK N   1      26.322  18.295   4.036  0.00  0.00     0.122 A 
ATOM     64  HN  UNK N   1      25.653  16.443   3.234  1.00  0.00     0.167 HD
HETATM   65  C   UNK N   1      25.227  19.142   4.091  0.00  0.00     0.131 A 
HETATM   66  C   UNK N   1      27.527  18.708   4.486  0.00  0.00     0.142 A 
HETATM   67  N   UNK N   1      25.413  20.397   4.597  0.00  0.00    -0.337 N 
HETATM   68  C   UNK N   1      26.649  20.804   5.038  0.00  0.00     0.183 A 
ATOM     69  HN  UNK N   1      24.623  21.041   4.646  1.00  0.00     0.168 HD
HETATM   70  N   UNK N   1      27.719  19.948   4.996  0.00  0.00    -0.336 N 
ATOM     71  HN  UNK N   1      28.634  20.237   5.340  1.00  0.00     0.168 HD
BRANCH  65  72
HETATM   72  N   UNK N   1      23.947  18.713   3.682  0.00  0.00    -0.383 N 
HETATM   73  H   UNK N   1      23.835  17.843   3.234  0.00  0.00     0.157 HD
HETATM   74  H   UNK N   1      23.162  19.287   3.844  0.00  0.00     0.157 HD
ENDBRANCH  65  72
ENDBRANCH  49  60
ENDBRANCH  45  46
ENDBRANCH  44  45
ENDBRANCH  40  44
ENDBRANCH  39  40
ENDBRANCH   2  39
TORSDOF 34
ENDMDL
MODEL 7
REMARK VINA RESULT:      -6.7      4.780     10.757
REMARK WARNING: 32 MAX_TORS EXCEEDED!!!
REMARK  34 active torsions:
REMARK  status: ('A' for Active; 'I' for Inactive)
REMARK    1  A    between atoms: C_8  and  C_7 
REMARK    2  A    between atoms: C_20  and  C_7 
REMARK    3  A    between atoms: N_33  and  C_8 
REMARK    4  A    between atoms: C_10  and  C_9 
REMARK    5  A    between atoms: N_31  and  C_9 
REMARK    6  A    between atoms: S_63  and  C_10 
REMARK    7  A    between atoms: C_19  and  C_11 
REMARK    8  A    between atoms: O_55  and  C_11 
REMARK    9  A    between atoms: C_18  and  C_12 
REMARK   10  A    between atoms: S_63  and  C_12 
REMARK   11  A    between atoms: C_29  and  C_13 
REMARK   12  A    between atoms: O_56  and  C_13 
REMARK   13  A    between atoms: C_18  and  C_16 
REMARK   14  A    between atoms: O_42  and  C_17 
REMARK   15  A    between atoms: N_31  and  C_20 
REMARK   16  A    between atoms: O_44  and  C_20 
REMARK   17  A    between atoms: C_22  and  O_45 
REMARK   18  A    between atoms: C_23  and  O_58 
REMARK   19  A    between atoms: C_27  and  C_24 
REMARK   20  A    between atoms: C_29  and  C_24 
REMARK   21  A    between atoms: C_24  and  O_46 
REMARK   22  A    between atoms: N_30  and  C_25 
REMARK   23  A    between atoms: N_33  and  C_27 
REMARK   24  A    between atoms: O_47  and  C_27 
REMARK   25  A    between atoms: C_28  and  N_41 
REMARK   26  A    between atoms: P_60  and  O_48 
REMARK   27  A    between atoms: P_60  and  O_49 
REMARK   28  A    between atoms: P_61  and  O_51 
REMARK   29  A    between atoms: P_62  and  O_53 
REMARK   30  A    between atoms: P_61  and  O_55 
REMARK   31  A    between atoms: P_62  and  O_56 
REMARK   32  A    between atoms: P_60  and  O_58 
REMARK   33  A    between atoms: P_61  and  O_59 
REMARK   34  A    between atoms: P_62  and  O_59 
ROOT
HETATM    1  O   UNK N   1      20.229  13.513   9.016  0.00  0.00    -0.631 OA
HETATM    2  P   UNK N   1      21.033  14.113   7.831  0.00  0.00     0.401 P 
ENDROOT
BRANCH   2   3
HETATM    3  O   UNK N   1      19.948  14.065   6.476  0.00  0.00    -0.307 OA
HETATM    4  H   UNK N   1      19.077  14.393   6.205  0.00  0.00     0.222 HD
ENDBRANCH   2   3
BRANCH   2   5
HETATM    5  O   UNK N   1      22.381  13.045   7.577  0.00  0.00    -0.296 OA
BRANCH   5   6
HETATM    6  C   UNK N   1      23.418  13.832   7.071  0.00  0.00     0.192 C 
BRANCH   6   7
HETATM    7  C   UNK N   1      24.117  13.115   5.915  0.00  0.00     0.008 C 
HETATM    8  C   UNK N   1      25.603  13.442   5.892  0.00  0.00     0.020 C 
HETATM    9  C   UNK N   1      24.006  11.615   6.136  0.00  0.00     0.020 C 
BRANCH   7  10
HETATM   10  C   UNK N   1      23.501  13.531   4.568  0.00  0.00     0.202 C 
BRANCH  10  11
HETATM   11  C   UNK N   1      24.246  13.013   3.363  0.00  0.00     0.141 C 
BRANCH  11  12
HETATM   12  N   UNK N   1      24.715  13.848   2.503  0.00  0.00    -0.372 N 
ATOM     13  HN  UNK N   1      24.737  13.588   1.517  1.00  0.00     0.161 HD
BRANCH  12  14
HETATM   14  C   UNK N   1      25.210  15.139   2.902  0.00  0.00     0.129 C 
BRANCH  14  15
HETATM   15  C   UNK N   1      26.419  15.519   2.037  0.00  0.00     0.103 C 
BRANCH  15  16
HETATM   16  C   UNK N   1      27.667  14.764   2.418  0.00  0.00     0.112 C 
BRANCH  16  17
HETATM   17  N   UNK N   1      28.821  15.332   2.299  0.00  0.00    -0.374 N 
ATOM     18  HN  UNK N   1      29.446  15.023   1.554  1.00  0.00     0.161 HD
BRANCH  17  19
HETATM   19  C   UNK N   1      29.255  16.386   3.179  0.00  0.00     0.131 C 
BRANCH  19  20
HETATM   20  C   UNK N   1      30.375  15.890   4.077  0.00  0.00     0.094 C 
BRANCH  20  21
HETATM   21  S   UNK N   1      30.149  16.557   5.743  0.00  0.00    -0.160 SA
BRANCH  21  22
HETATM   22  C   UNK N   1      28.326  16.597   5.625  0.00  0.00     0.157 C 
BRANCH  22  23
HETATM   23  C   UNK N   1      27.723  17.938   5.952  0.00  0.00     0.168 C 
HETATM   24  O   UNK N   1      27.887  18.388   7.077  0.00  0.00    -0.291 OA
BRANCH  23  25
HETATM   25  C   UNK N   1      26.935  18.713   4.961  0.00  0.00     0.011 A 
HETATM   26  C   UNK N   1      27.524  19.799   4.294  0.00  0.00     0.018 A 
HETATM   27  C   UNK N   1      26.793  20.529   3.351  0.00  0.00     0.037 A 
HETATM   28  C   UNK N   1      25.473  20.171   3.061  0.00  0.00     0.065 A 
HETATM   29  C   UNK N   1      24.882  19.090   3.718  0.00  0.00     0.037 A 
HETATM   30  C   UNK N   1      25.608  18.369   4.667  0.00  0.00     0.018 A 
BRANCH  28  31
HETATM   31  O   UNK N   1      24.772  20.869   2.153  0.00  0.00    -0.361 OA
HETATM   32  H   UNK N   1      24.519  20.494   1.332  0.00  0.00     0.217 HD
ENDBRANCH  28  31
ENDBRANCH  23  25
ENDBRANCH  22  23
ENDBRANCH  21  22
ENDBRANCH  20  21
ENDBRANCH  19  20
ENDBRANCH  17  19
ENDBRANCH  16  17
BRANCH  16  33
HETATM   33  O   UNK N   1      27.567  13.497   2.869  0.00  0.00    -0.350 OA
HETATM   34  H   UNK N   1      27.651  12.612   2.575  0.00  0.00     0.219 HD
ENDBRANCH  16  33
ENDBRANCH  15  16
ENDBRANCH  14  15
ENDBRANCH  12  14
ENDBRANCH  11  12
BRANCH  11  35
HETATM   35  O   UNK N   1      24.329  11.682   3.142  0.00  0.00    -0.348 OA
HETATM   36  H   UNK N   1      24.306  10.892   2.638  0.00  0.00     0.219 HD
ENDBRANCH  11  35
ENDBRANCH  10  11
BRANCH  10  37
HETATM   37  O   UNK N   1      22.163  13.124   4.497  0.00  0.00    -0.387 OA
HETATM   38  H   UNK N   1      21.233  13.197   4.231  0.00  0.00     0.210 HD
ENDBRANCH  10  37
ENDBRANCH   7  10
ENDBRANCH   6   7
ENDBRANCH   5   6
ENDBRANCH   2   5
BRANCH   2  39
HETATM   39  O   UNK N   1      21.416  15.760   8.277  0.00  0.00    -0.195 OA
BRANCH  39  40
HETATM   40  P   UNK N   1      20.144  16.831   7.730  0.00  0.00     0.401 P 
HETATM   41  O   UNK N   1      18.806  16.192   8.185  0.00  0.00    -0.631 OA
BRANCH  40  42
HETATM   42  O   UNK N   1      20.207  18.337   8.587  0.00  0.00    -0.307 OA
HETATM   43  H   UNK N   1      20.151  18.733   9.471  0.00  0.00     0.222 HD
ENDBRANCH  40  42
BRANCH  40  44
HETATM   44  O   UNK N   1      20.033  17.109   6.006  0.00  0.00    -0.294 OA
BRANCH  44  45
HETATM   45  C   UNK N   1      21.343  17.199   5.546  0.00  0.00     0.215 C 
BRANCH  45  46
HETATM   46  C   UNK N   1      21.485  16.595   4.154  0.00  0.00     0.180 C 
HETATM   47  C   UNK N   1      21.070  17.644   3.128  0.00  0.00     0.197 C 
HETATM   48  C   UNK N   1      20.724  16.754   1.964  0.00  0.00     0.199 C 
HETATM   49  C   UNK N   1      19.885  15.755   2.783  0.00  0.00     0.262 C 
HETATM   50  O   UNK N   1      20.646  15.458   3.947  0.00  0.00    -0.353 OA
BRANCH  47  51
HETATM   51  O   UNK N   1      21.903  18.777   2.959  0.00  0.00    -0.286 OA
BRANCH  51  52
HETATM   52  P   UNK N   1      21.092  20.316   2.758  0.00  0.00     0.391 P 
HETATM   53  O   UNK N   1      20.171  20.456   4.000  0.00  0.00    -0.632 OA
BRANCH  52  54
HETATM   54  O   UNK N   1      22.082  21.741   2.733  0.00  0.00    -0.307 OA
HETATM   55  H   UNK N   1      22.257  22.640   3.051  0.00  0.00     0.222 HD
ENDBRANCH  52  54
BRANCH  52  56
HETATM   56  O   UNK N   1      20.011  20.272   1.404  0.00  0.00    -0.307 OA
HETATM   57  H   UNK N   1      19.809  21.081   0.908  0.00  0.00     0.222 HD
ENDBRANCH  52  56
ENDBRANCH  51  52
ENDBRANCH  47  51
BRANCH  48  58
HETATM   58  O   UNK N   1      19.985  17.431   0.992  0.00  0.00    -0.388 OA
HETATM   59  H   UNK N   1      20.032  18.289   0.545  0.00  0.00     0.210 HD
ENDBRANCH  48  58
BRANCH  49  60
HETATM   60  N   UNK N   1      19.386  14.556   2.091  0.00  0.00    -0.297 N 
HETATM   61  C   UNK N   1      19.303  14.444   0.739  0.00  0.00     0.188 A 
HETATM   62  N   UNK N   1      18.980  13.177   0.356  0.00  0.00    -0.346 N 
HETATM   63  C   UNK N   1      18.881  12.498   1.510  0.00  0.00     0.122 A 
ATOM     64  HN  UNK N   1      18.843  12.826  -0.591  1.00  0.00     0.167 HD
HETATM   65  C   UNK N   1      18.658  11.146   1.721  0.00  0.00     0.131 A 
HETATM   66  C   UNK N   1      19.104  13.324   2.555  0.00  0.00     0.142 A 
HETATM   67  N   UNK N   1      18.659  10.691   3.009  0.00  0.00    -0.337 N 
HETATM   68  C   UNK N   1      18.876  11.549   4.060  0.00  0.00     0.183 A 
ATOM     69  HN  UNK N   1      18.496   9.701   3.193  1.00  0.00     0.168 HD
HETATM   70  N   UNK N   1      19.115  12.880   3.834  0.00  0.00    -0.336 N 
ATOM     71  HN  UNK N   1      19.294  13.519   4.608  1.00  0.00     0.168 HD
BRANCH  65  72
HETATM   72  N   UNK N   1      18.482  10.254   0.643  0.00  0.00    -0.383 N 
HETATM   73  H   UNK N   1      18.867  10.461  -0.239  0.00  0.00     0.157 HD
HETATM   74  H   UNK N   1      17.971   9.422   0.774  0.00  0.00     0.157 HD
ENDBRANCH  65  72
ENDBRANCH  49  60
ENDBRANCH  45  46
ENDBRANCH  44  45
ENDBRANCH  40  44
ENDBRANCH  39  40
ENDBRANCH   2  39
TORSDOF 34
ENDMDL
MODEL 8
REMARK VINA RESULT:      -6.4      4.038     11.068
REMARK WARNING: 32 MAX_TORS EXCEEDED!!!
REMARK  34 active torsions:
REMARK  status: ('A' for Active; 'I' for Inactive)
REMARK    1  A    between atoms: C_8  and  C_7 
REMARK    2  A    between atoms: C_20  and  C_7 
REMARK    3  A    between atoms: N_33  and  C_8 
REMARK    4  A    between atoms: C_10  and  C_9 
REMARK    5  A    between atoms: N_31  and  C_9 
REMARK    6  A    between atoms: S_63  and  C_10 
REMARK    7  A    between atoms: C_19  and  C_11 
REMARK    8  A    between atoms: O_55  and  C_11 
REMARK    9  A    between atoms: C_18  and  C_12 
REMARK   10  A    between atoms: S_63  and  C_12 
REMARK   11  A    between atoms: C_29  and  C_13 
REMARK   12  A    between atoms: O_56  and  C_13 
REMARK   13  A    between atoms: C_18  and  C_16 
REMARK   14  A    between atoms: O_42  and  C_17 
REMARK   15  A    between atoms: N_31  and  C_20 
REMARK   16  A    between atoms: O_44  and  C_20 
REMARK   17  A    between atoms: C_22  and  O_45 
REMARK   18  A    between atoms: C_23  and  O_58 
REMARK   19  A    between atoms: C_27  and  C_24 
REMARK   20  A    between atoms: C_29  and  C_24 
REMARK   21  A    between atoms: C_24  and  O_46 
REMARK   22  A    between atoms: N_30  and  C_25 
REMARK   23  A    between atoms: N_33  and  C_27 
REMARK   24  A    between atoms: O_47  and  C_27 
REMARK   25  A    between atoms: C_28  and  N_41 
REMARK   26  A    between atoms: P_60  and  O_48 
REMARK   27  A    between atoms: P_60  and  O_49 
REMARK   28  A    between atoms: P_61  and  O_51 
REMARK   29  A    between atoms: P_62  and  O_53 
REMARK   30  A    between atoms: P_61  and  O_55 
REMARK   31  A    between atoms: P_62  and  O_56 
REMARK   32  A    between atoms: P_60  and  O_58 
REMARK   33  A    between atoms: P_61  and  O_59 
REMARK   34  A    between atoms: P_62  and  O_59 
ROOT
HETATM    1  O   UNK N   1      28.052  18.573   8.189  0.00  0.00    -0.631 OA
HETATM    2  P   UNK N   1      28.113  17.978   6.756  0.00  0.00     0.401 P 
ENDROOT
BRANCH   2   3
HETATM    3  O   UNK N   1      26.677  17.015   6.603  0.00  0.00    -0.307 OA
HETATM    4  H   UNK N   1      26.025  16.553   7.153  0.00  0.00     0.222 HD
ENDBRANCH   2   3
BRANCH   2   5
HETATM    5  O   UNK N   1      29.533  16.976   6.715  0.00  0.00    -0.296 OA
BRANCH   5   6
HETATM    6  C   UNK N   1      30.355  17.412   7.756  0.00  0.00     0.192 C 
BRANCH   6   7
HETATM    7  C   UNK N   1      31.783  16.901   7.560  0.00  0.00     0.008 C 
HETATM    8  C   UNK N   1      31.825  15.380   7.590  0.00  0.00     0.020 C 
HETATM    9  C   UNK N   1      32.265  17.321   6.180  0.00  0.00     0.020 C 
BRANCH   7  10
HETATM   10  C   UNK N   1      32.707  17.441   8.665  0.00  0.00     0.202 C 
BRANCH  10  11
HETATM   11  C   UNK N   1      33.911  16.574   8.941  0.00  0.00     0.141 C 
BRANCH  11  12
HETATM   12  N   UNK N   1      34.068  16.066  10.113  0.00  0.00    -0.372 N 
ATOM     13  HN  UNK N   1      33.294  15.560  10.544  1.00  0.00     0.161 HD
BRANCH  12  14
HETATM   14  C   UNK N   1      35.310  16.197  10.829  0.00  0.00     0.129 C 
BRANCH  14  15
HETATM   15  C   UNK N   1      35.995  14.828  10.932  0.00  0.00     0.103 C 
BRANCH  15  16
HETATM   16  C   UNK N   1      37.051  14.625   9.875  0.00  0.00     0.112 C 
BRANCH  16  17
HETATM   17  N   UNK N   1      36.714  14.182   8.710  0.00  0.00    -0.374 N 
ATOM     18  HN  UNK N   1      36.896  14.761   7.891  1.00  0.00     0.161 HD
BRANCH  17  19
HETATM   19  C   UNK N   1      36.090  12.896   8.526  0.00  0.00     0.131 C 
BRANCH  19  20
HETATM   20  C   UNK N   1      36.038  12.547   7.049  0.00  0.00     0.094 C 
BRANCH  20  21
HETATM   21  S   UNK N   1      34.430  13.029   6.374  0.00  0.00    -0.160 SA
BRANCH  21  22
HETATM   22  C   UNK N   1      35.140  14.203   5.166  0.00  0.00     0.157 C 
BRANCH  22  23
HETATM   23  C   UNK N   1      34.474  14.165   3.815  0.00  0.00     0.168 C 
HETATM   24  O   UNK N   1      34.998  13.506   2.929  0.00  0.00    -0.291 OA
BRANCH  23  25
HETATM   25  C   UNK N   1      33.220  14.907   3.531  0.00  0.00     0.011 A 
HETATM   26  C   UNK N   1      31.980  14.339   3.864  0.00  0.00     0.018 A 
HETATM   27  C   UNK N   1      30.794  15.035   3.609  0.00  0.00     0.037 A 
HETATM   28  C   UNK N   1      30.840  16.307   3.032  0.00  0.00     0.065 A 
HETATM   29  C   UNK N   1      32.070  16.881   2.703  0.00  0.00     0.037 A 
HETATM   30  C   UNK N   1      33.253  16.181   2.946  0.00  0.00     0.018 A 
BRANCH  28  31
HETATM   31  O   UNK N   1      29.702  16.978   2.792  0.00  0.00    -0.361 OA
HETATM   32  H   UNK N   1      29.017  16.614   2.266  0.00  0.00     0.217 HD
ENDBRANCH  28  31
ENDBRANCH  23  25
ENDBRANCH  22  23
ENDBRANCH  21  22
ENDBRANCH  20  21
ENDBRANCH  19  20
ENDBRANCH  17  19
ENDBRANCH  16  17
BRANCH  16  33
HETATM   33  O   UNK N   1      38.340  14.900  10.160  0.00  0.00    -0.350 OA
HETATM   34  H   UNK N   1      39.122  15.218   9.754  0.00  0.00     0.219 HD
ENDBRANCH  16  33
ENDBRANCH  15  16
ENDBRANCH  14  15
ENDBRANCH  12  14
ENDBRANCH  11  12
BRANCH  11  35
HETATM   35  O   UNK N   1      34.863  16.419   7.993  0.00  0.00    -0.348 OA
HETATM   36  H   UNK N   1      35.733  16.335   7.655  0.00  0.00     0.219 HD
ENDBRANCH  11  35
ENDBRANCH  10  11
BRANCH  10  37
HETATM   37  O   UNK N   1      33.132  18.739   8.355  0.00  0.00    -0.387 OA
HETATM   38  H   UNK N   1      33.758  19.480   8.334  0.00  0.00     0.210 HD
ENDBRANCH  10  37
ENDBRANCH   7  10
ENDBRANCH   6   7
ENDBRANCH   5   6
ENDBRANCH   2   5
BRANCH   2  39
HETATM   39  O   UNK N   1      28.086  19.337   5.656  0.00  0.00    -0.195 OA
BRANCH  39  40
HETATM   40  P   UNK N   1      26.785  19.135   4.502  0.00  0.00     0.401 P 
HETATM   41  O   UNK N   1      26.980  20.231   3.423  0.00  0.00    -0.631 OA
BRANCH  40  42
HETATM   42  O   UNK N   1      26.970  17.646   3.632  0.00  0.00    -0.307 OA
HETATM   43  H   UNK N   1      27.350  17.255   2.829  0.00  0.00     0.222 HD
ENDBRANCH  40  42
BRANCH  40  44
HETATM   44  O   UNK N   1      25.154  19.288   5.117  0.00  0.00    -0.294 OA
BRANCH  44  45
HETATM   45  C   UNK N   1      24.311  19.085   4.028  0.00  0.00     0.215 C 
BRANCH  45  46
HETATM   46  C   UNK N   1      23.594  17.744   4.125  0.00  0.00     0.180 C 
HETATM   47  C   UNK N   1      22.100  17.981   3.936  0.00  0.00     0.197 C 
HETATM   48  C   UNK N   1      21.548  16.753   4.608  0.00  0.00     0.199 C 
HETATM   49  C   UNK N   1      22.436  16.857   5.863  0.00  0.00     0.262 C 
HETATM   50  O   UNK N   1      23.755  17.111   5.395  0.00  0.00    -0.353 OA
BRANCH  47  51
HETATM   51  O   UNK N   1      21.645  18.379   2.654  0.00  0.00    -0.286 OA
BRANCH  51  52
HETATM   52  P   UNK N   1      20.358  19.565   2.618  0.00  0.00     0.391 P 
HETATM   53  O   UNK N   1      19.044  18.744   2.723  0.00  0.00    -0.632 OA
BRANCH  52  54
HETATM   54  O   UNK N   1      20.304  20.721   3.911  0.00  0.00    -0.307 OA
HETATM   55  H   UNK N   1      20.770  21.250   4.577  0.00  0.00     0.222 HD
ENDBRANCH  52  54
BRANCH  52  56
HETATM   56  O   UNK N   1      20.276  20.341   1.071  0.00  0.00    -0.307 OA
HETATM   57  H   UNK N   1      19.713  19.981   0.368  0.00  0.00     0.222 HD
ENDBRANCH  52  56
ENDBRANCH  51  52
ENDBRANCH  47  51
BRANCH  48  58
HETATM   58  O   UNK N   1      20.186  16.876   4.884  0.00  0.00    -0.388 OA
HETATM   59  H   UNK N   1      19.565  17.602   5.047  0.00  0.00     0.210 HD
ENDBRANCH  48  58
BRANCH  49  60
HETATM   60  N   UNK N   1      22.366  15.760   6.841  0.00  0.00    -0.297 N 
HETATM   61  C   UNK N   1      21.219  15.368   7.455  0.00  0.00     0.188 A 
HETATM   62  N   UNK N   1      21.396  14.224   8.173  0.00  0.00    -0.346 N 
HETATM   63  C   UNK N   1      22.684  13.904   7.974  0.00  0.00     0.122 A 
ATOM     64  HN  UNK N   1      20.707  13.726   8.735  1.00  0.00     0.167 HD
HETATM   65  C   UNK N   1      23.391  12.789   8.395  0.00  0.00     0.131 A 
HETATM   66  C   UNK N   1      23.277  14.833   7.192  0.00  0.00     0.142 A 
HETATM   67  N   UNK N   1      24.696  12.674   8.006  0.00  0.00    -0.337 N 
HETATM   68  C   UNK N   1      25.285  13.635   7.220  0.00  0.00     0.183 A 
ATOM     69  HN  UNK N   1      25.240  11.864   8.303  1.00  0.00     0.168 HD
HETATM   70  N   UNK N   1      24.567  14.723   6.795  0.00  0.00    -0.336 N 
ATOM     71  HN  UNK N   1      24.993  15.430   6.196  1.00  0.00     0.168 HD
BRANCH  65  72
HETATM   72  N   UNK N   1      22.778  11.777   9.163  0.00  0.00    -0.383 N 
HETATM   73  H   UNK N   1      22.945  10.830   8.956  0.00  0.00     0.157 HD
HETATM   74  H   UNK N   1      22.180  12.021   9.907  0.00  0.00     0.157 HD
ENDBRANCH  65  72
ENDBRANCH  49  60
ENDBRANCH  45  46
ENDBRANCH  44  45
ENDBRANCH  40  44
ENDBRANCH  39  40
ENDBRANCH   2  39
TORSDOF 34
ENDMDL
MODEL 9
REMARK VINA RESULT:      -6.3      2.002      4.437
REMARK WARNING: 32 MAX_TORS EXCEEDED!!!
REMARK  34 active torsions:
REMARK  status: ('A' for Active; 'I' for Inactive)
REMARK    1  A    between atoms: C_8  and  C_7 
REMARK    2  A    between atoms: C_20  and  C_7 
REMARK    3  A    between atoms: N_33  and  C_8 
REMARK    4  A    between atoms: C_10  and  C_9 
REMARK    5  A    between atoms: N_31  and  C_9 
REMARK    6  A    between atoms: S_63  and  C_10 
REMARK    7  A    between atoms: C_19  and  C_11 
REMARK    8  A    between atoms: O_55  and  C_11 
REMARK    9  A    between atoms: C_18  and  C_12 
REMARK   10  A    between atoms: S_63  and  C_12 
REMARK   11  A    between atoms: C_29  and  C_13 
REMARK   12  A    between atoms: O_56  and  C_13 
REMARK   13  A    between atoms: C_18  and  C_16 
REMARK   14  A    between atoms: O_42  and  C_17 
REMARK   15  A    between atoms: N_31  and  C_20 
REMARK   16  A    between atoms: O_44  and  C_20 
REMARK   17  A    between atoms: C_22  and  O_45 
REMARK   18  A    between atoms: C_23  and  O_58 
REMARK   19  A    between atoms: C_27  and  C_24 
REMARK   20  A    between atoms: C_29  and  C_24 
REMARK   21  A    between atoms: C_24  and  O_46 
REMARK   22  A    between atoms: N_30  and  C_25 
REMARK   23  A    between atoms: N_33  and  C_27 
REMARK   24  A    between atoms: O_47  and  C_27 
REMARK   25  A    between atoms: C_28  and  N_41 
REMARK   26  A    between atoms: P_60  and  O_48 
REMARK   27  A    between atoms: P_60  and  O_49 
REMARK   28  A    between atoms: P_61  and  O_51 
REMARK   29  A    between atoms: P_62  and  O_53 
REMARK   30  A    between atoms: P_61  and  O_55 
REMARK   31  A    between atoms: P_62  and  O_56 
REMARK   32  A    between atoms: P_60  and  O_58 
REMARK   33  A    between atoms: P_61  and  O_59 
REMARK   34  A    between atoms: P_62  and  O_59 
ROOT
HETATM    1  O   UNK N   1      30.037  14.030   2.535  0.00  0.00    -0.631 OA
HETATM    2  P   UNK N   1      29.987  14.384   4.046  0.00  0.00     0.401 P 
ENDROOT
BRANCH   2   3
HETATM    3  O   UNK N   1      29.313  12.984   4.819  0.00  0.00    -0.307 OA
HETATM    4  H   UNK N   1      28.453  12.606   5.061  0.00  0.00     0.222 HD
ENDBRANCH   2   3
BRANCH   2   5
HETATM    5  O   UNK N   1      28.909  15.741   4.184  0.00  0.00    -0.296 OA
BRANCH   5   6
HETATM    6  C   UNK N   1      27.974  15.609   3.155  0.00  0.00     0.192 C 
BRANCH   6   7
HETATM    7  C   UNK N   1      26.568  15.432   3.731  0.00  0.00     0.008 C 
HETATM    8  C   UNK N   1      25.591  16.407   3.088  0.00  0.00     0.020 C 
HETATM    9  C   UNK N   1      26.075  14.035   3.390  0.00  0.00     0.020 C 
BRANCH   7  10
HETATM   10  C   UNK N   1      26.572  15.671   5.250  0.00  0.00     0.202 C 
BRANCH  10  11
HETATM   11  C   UNK N   1      25.272  16.209   5.793  0.00  0.00     0.141 C 
BRANCH  11  12
HETATM   12  N   UNK N   1      24.383  15.389   6.233  0.00  0.00    -0.372 N 
ATOM     13  HN  UNK N   1      24.667  14.450   6.513  1.00  0.00     0.161 HD
BRANCH  12  14
HETATM   14  C   UNK N   1      22.997  15.765   6.336  0.00  0.00     0.129 C 
BRANCH  14  15
HETATM   15  C   UNK N   1      22.293  14.873   7.366  0.00  0.00     0.103 C 
BRANCH  15  16
HETATM   16  C   UNK N   1      22.014  13.487   6.841  0.00  0.00     0.112 C 
BRANCH  16  17
HETATM   17  N   UNK N   1      21.404  13.341   5.712  0.00  0.00    -0.374 N 
ATOM     18  HN  UNK N   1      21.635  13.970   4.944  1.00  0.00     0.161 HD
BRANCH  17  19
HETATM   19  C   UNK N   1      20.410  12.321   5.500  0.00  0.00     0.131 C 
BRANCH  19  20
HETATM   20  C   UNK N   1      19.293  12.854   4.620  0.00  0.00     0.094 C 
BRANCH  20  21
HETATM   21  S   UNK N   1      19.903  13.050   2.928  0.00  0.00    -0.160 SA
BRANCH  21  22
HETATM   22  C   UNK N   1      19.661  14.861   2.909  0.00  0.00     0.157 C 
BRANCH  22  23
HETATM   23  C   UNK N   1      20.938  15.648   3.052  0.00  0.00     0.168 C 
HETATM   24  O   UNK N   1      21.988  15.033   3.161  0.00  0.00    -0.291 OA
BRANCH  23  25
HETATM   25  C   UNK N   1      20.953  17.132   3.077  0.00  0.00     0.011 A 
HETATM   26  C   UNK N   1      19.835  17.852   2.625  0.00  0.00     0.018 A 
HETATM   27  C   UNK N   1      19.836  19.250   2.654  0.00  0.00     0.037 A 
HETATM   28  C   UNK N   1      20.949  19.938   3.145  0.00  0.00     0.065 A 
HETATM   29  C   UNK N   1      22.063  19.230   3.600  0.00  0.00     0.037 A 
HETATM   30  C   UNK N   1      22.067  17.834   3.560  0.00  0.00     0.018 A 
BRANCH  28  31
HETATM   31  O   UNK N   1      20.948  21.280   3.178  0.00  0.00    -0.361 OA
HETATM   32  H   UNK N   1      21.366  21.789   2.511  0.00  0.00     0.217 HD
ENDBRANCH  28  31
ENDBRANCH  23  25
ENDBRANCH  22  23
ENDBRANCH  21  22
ENDBRANCH  20  21
ENDBRANCH  19  20
ENDBRANCH  17  19
ENDBRANCH  16  17
BRANCH  16  33
HETATM   33  O   UNK N   1      22.396  12.413   7.561  0.00  0.00    -0.350 OA
HETATM   34  H   UNK N   1      23.114  11.819   7.655  0.00  0.00     0.219 HD
ENDBRANCH  16  33
ENDBRANCH  15  16
ENDBRANCH  14  15
ENDBRANCH  12  14
ENDBRANCH  11  12
BRANCH  11  35
HETATM   35  O   UNK N   1      25.007  17.534   5.723  0.00  0.00    -0.348 OA
HETATM   36  H   UNK N   1      24.930  18.412   6.041  0.00  0.00     0.219 HD
ENDBRANCH  11  35
ENDBRANCH  10  11
BRANCH  10  37
HETATM   37  O   UNK N   1      26.905  14.492   5.928  0.00  0.00    -0.387 OA
HETATM   38  H   UNK N   1      26.837  13.835   6.639  0.00  0.00     0.210 HD
ENDBRANCH  10  37
ENDBRANCH   7  10
ENDBRANCH   6   7
ENDBRANCH   5   6
ENDBRANCH   2   5
BRANCH   2  39
HETATM   39  O   UNK N   1      31.642  14.649   4.546  0.00  0.00    -0.195 OA
BRANCH  39  40
HETATM   40  P   UNK N   1      32.369  15.888   3.545  0.00  0.00     0.401 P 
HETATM   41  O   UNK N   1      33.155  15.147   2.432  0.00  0.00    -0.631 OA
BRANCH  40  42
HETATM   42  O   UNK N   1      31.147  16.769   2.686  0.00  0.00    -0.307 OA
HETATM   43  H   UNK N   1      30.913  17.648   2.349  0.00  0.00     0.222 HD
ENDBRANCH  40  42
BRANCH  40  44
HETATM   44  O   UNK N   1      33.482  16.986   4.331  0.00  0.00    -0.294 OA
BRANCH  44  45
HETATM   45  C   UNK N   1      33.929  16.328   5.473  0.00  0.00     0.215 C 
BRANCH  45  46
HETATM   46  C   UNK N   1      33.321  16.931   6.733  0.00  0.00     0.180 C 
HETATM   47  C   UNK N   1      33.209  15.835   7.787  0.00  0.00     0.197 C 
HETATM   48  C   UNK N   1      32.131  16.417   8.661  0.00  0.00     0.199 C 
HETATM   49  C   UNK N   1      31.191  16.803   7.503  0.00  0.00     0.262 C 
HETATM   50  O   UNK N   1      32.005  17.448   6.531  0.00  0.00    -0.353 OA
BRANCH  47  51
HETATM   51  O   UNK N   1      34.406  15.324   8.347  0.00  0.00    -0.286 OA
BRANCH  51  52
HETATM   52  P   UNK N   1      34.854  15.941   9.923  0.00  0.00     0.391 P 
HETATM   53  O   UNK N   1      34.714  17.484   9.810  0.00  0.00    -0.632 OA
BRANCH  52  54
HETATM   54  O   UNK N   1      33.871  15.469  11.272  0.00  0.00    -0.307 OA
HETATM   55  H   UNK N   1      33.002  15.220  11.624  0.00  0.00     0.222 HD
ENDBRANCH  52  54
BRANCH  52  56
HETATM   56  O   UNK N   1      36.536  15.668  10.238  0.00  0.00    -0.307 OA
HETATM   57  H   UNK N   1      37.215  16.099   9.696  0.00  0.00     0.222 HD
ENDBRANCH  52  56
ENDBRANCH  51  52
ENDBRANCH  47  51
BRANCH  48  58
HETATM   58  O   UNK N   1      31.584  15.462   9.520  0.00  0.00    -0.388 OA
HETATM   59  H   UNK N   1      31.762  14.537   9.746  0.00  0.00     0.210 HD
ENDBRANCH  48  58
BRANCH  49  60
HETATM   60  N   UNK N   1      29.974  17.560   7.836  0.00  0.00    -0.297 N 
HETATM   61  C   UNK N   1      29.633  17.923   9.101  0.00  0.00     0.188 A 
HETATM   62  N   UNK N   1      28.560  18.762   9.114  0.00  0.00    -0.346 N 
HETATM   63  C   UNK N   1      28.253  18.927   7.818  0.00  0.00     0.122 A 
ATOM     64  HN  UNK N   1      28.096  19.172   9.924  1.00  0.00     0.167 HD
HETATM   65  C   UNK N   1      27.299  19.746   7.234  0.00  0.00     0.131 A 
HETATM   66  C   UNK N   1      29.084  18.191   7.048  0.00  0.00     0.142 A 
HETATM   67  N   UNK N   1      27.225  19.770   5.870  0.00  0.00    -0.337 N 
HETATM   68  C   UNK N   1      28.072  19.006   5.104  0.00  0.00     0.183 A 
ATOM     69  HN  UNK N   1      26.531  20.363   5.415  1.00  0.00     0.168 HD
HETATM   70  N   UNK N   1      29.023  18.216   5.695  0.00  0.00    -0.336 N 
ATOM     71  HN  UNK N   1      29.667  17.661   5.132  1.00  0.00     0.168 HD
BRANCH  65  72
HETATM   72  N   UNK N   1      26.459  20.567   8.015  0.00  0.00    -0.383 N 
HETATM   73  H   UNK N   1      26.080  20.227   8.858  0.00  0.00     0.157 HD
HETATM   74  H   UNK N   1      26.252  21.482   7.715  0.00  0.00     0.157 HD
ENDBRANCH  65  72
ENDBRANCH  49  60
ENDBRANCH  45  46
ENDBRANCH  44  45
ENDBRANCH  40  44
ENDBRANCH  39  40
ENDBRANCH   2  39
TORSDOF 34
ENDMDL
