MODEL 1
REMARK VINA RESULT:      -5.8      0.000      0.000
REMARK WARNING: 32 MAX_TORS EXCEEDED!!!
REMARK  41 active torsions:
REMARK  status: ('A' for Active; 'I' for Inactive)
REMARK    1  A    between atoms: C_5  and  C_4 
REMARK    2  A    between atoms: C_6  and  C_5 
REMARK    3  A    between atoms: C_8  and  C_6 
REMARK    4  A    between atoms: C_9  and  C_7 
REMARK    5  A    between atoms: C_10  and  C_7 
REMARK    6  A    between atoms: C_21  and  C_8 
REMARK    7  A    between atoms: C_21  and  C_9 
REMARK    8  A    between atoms: C_24  and  C_10 
REMARK    9  A    between atoms: C_12  and  C_11 
REMARK   10  A    between atoms: C_23  and  C_11 
REMARK   11  A    between atoms: N_37  and  C_12 
REMARK   12  A    between atoms: C_15  and  C_13 
REMARK   13  A    between atoms: N_35  and  C_13 
REMARK   14  A    between atoms: C_16  and  C_14 
REMARK   15  A    between atoms: S_66  and  C_15 
REMARK   16  A    between atoms: S_65  and  C_16 
REMARK   17  A    between atoms: C_22  and  C_17 
REMARK   18  A    between atoms: O_57  and  C_17 
REMARK   19  A    between atoms: C_33  and  C_18 
REMARK   20  A    between atoms: O_58  and  C_18 
REMARK   21  A    between atoms: C_21  and  S_65 
REMARK   22  A    between atoms: N_35  and  C_23 
REMARK   23  A    between atoms: O_45  and  C_23 
REMARK   24  A    between atoms: S_66  and  C_24 
REMARK   25  A    between atoms: C_26  and  O_47 
REMARK   26  A    between atoms: C_27  and  O_60 
REMARK   27  A    between atoms: C_31  and  C_28 
REMARK   28  A    between atoms: C_33  and  C_28 
REMARK   29  A    between atoms: N_34  and  C_29 
REMARK   30  A    between atoms: N_37  and  C_31 
REMARK   31  A    between atoms: C_31  and  O_49 
REMARK   32  A    between atoms: C_32  and  N_43 
REMARK   33  A    between atoms: P_62  and  O_51 
REMARK   34  A    between atoms: P_62  and  O_52 
REMARK   35  A    between atoms: P_63  and  O_53 
REMARK   36  A    between atoms: P_64  and  O_56 
REMARK   37  A    between atoms: P_63  and  O_57 
REMARK   38  A    between atoms: P_64  and  O_58 
REMARK   39  A    between atoms: P_62  and  O_60 
REMARK   40  A    between atoms: P_63  and  O_61 
REMARK   41  A    between atoms: P_64  and  O_61 
ROOT
HETATM    1  O   UNK N   1      30.741  12.300   4.641  0.00  0.00    -0.631 OA
HETATM    2  P   UNK N   1      29.923  13.355   3.846  0.00  0.00     0.401 P 
ENDROOT
BRANCH   2   3
HETATM    3  O   UNK N   1      29.393  14.469   5.062  0.00  0.00    -0.307 OA
HETATM    4  H   UNK N   1      28.554  14.616   5.527  0.00  0.00     0.222 HD
ENDBRANCH   2   3
BRANCH   2   5
HETATM    5  O   UNK N   1      28.542  12.568   3.085  0.00  0.00    -0.296 OA
BRANCH   5   6
HETATM    6  C   UNK N   1      27.783  13.522   2.381  0.00  0.00     0.197 C 
BRANCH   6   7
HETATM    7  C   UNK N   1      26.252  13.382   2.565  0.00  0.00     0.040 C 
HETATM    8  C   UNK N   1      25.509  14.568   1.966  0.00  0.00     0.025 C 
HETATM    9  C   UNK N   1      25.830  12.160   1.761  0.00  0.00     0.025 C 
BRANCH   7  10
HETATM   10  C   UNK N   1      25.912  13.230   4.044  0.00  0.00     0.184 C 
HETATM   11  O   UNK N   1      25.798  12.116   4.523  0.00  0.00    -0.292 OA
BRANCH  10  12
HETATM   12  C   UNK N   1      25.575  14.398   4.924  0.00  0.00     0.285 C 
BRANCH  12  13
HETATM   13  N   UNK N   1      24.377  14.160   5.739  0.00  0.00    -0.391 N 
HETATM   14  H   UNK N   1      23.463  13.888   5.378  0.00  0.00     0.156 HD
BRANCH  13  15
HETATM   15  C   UNK N   1      24.703  14.374   7.155  0.00  0.00     0.124 C 
BRANCH  15  16
HETATM   16  C   UNK N   1      24.740  13.085   8.005  0.00  0.00     0.103 C 
BRANCH  16  17
HETATM   17  C   UNK N   1      23.687  12.076   7.670  0.00  0.00     0.112 C 
BRANCH  17  18
HETATM   18  N   UNK N   1      22.817  11.748   8.555  0.00  0.00    -0.374 N 
ATOM     19  HN  UNK N   1      22.339  10.850   8.477  1.00  0.00     0.161 HD
BRANCH  18  20
HETATM   20  C   UNK N   1      22.499  12.618   9.650  0.00  0.00     0.132 C 
BRANCH  20  21
HETATM   21  C   UNK N   1      21.088  13.103   9.426  0.00  0.00     0.102 C 
BRANCH  21  22
HETATM   22  S   UNK N   1      21.023  14.925   9.221  0.00  0.00    -0.086 SA
BRANCH  22  23
HETATM   23  C   UNK N   1      20.721  14.570   7.528  0.00  0.00     0.208 C 
HETATM   24  O   UNK N   1      20.347  13.454   7.200  0.00  0.00    -0.281 OA
BRANCH  23  25
HETATM   25  C   UNK N   1      20.683  15.689   6.588  0.00  0.00     0.058 C 
BRANCH  25  26
HETATM   26  C   UNK N   1      21.715  16.524   6.532  0.00  0.00    -0.021 C 
BRANCH  26  27
HETATM   27  C   UNK N   1      22.214  17.064   5.244  0.00  0.00     0.042 C 
BRANCH  27  28
HETATM   28  C   UNK N   1      21.307  16.541   4.137  0.00  0.00     0.051 C 
BRANCH  28  29
HETATM   29  C   UNK N   1      22.075  15.573   3.260  0.00  0.00     0.015 C 
BRANCH  29  30
HETATM   30  C   UNK N   1      21.511  14.169   3.406  0.00  0.00     0.001 C 
BRANCH  30  31
HETATM   31  C   UNK N   1      22.282  13.207   2.529  0.00  0.00    -0.000 C 
BRANCH  31  32
HETATM   32  C   UNK N   1      21.655  13.156   1.149  0.00  0.00    -0.005 C 
HETATM   33  C   UNK N   1      22.743  13.005   0.110  0.00  0.00     0.005 C 
ENDBRANCH  31  32
ENDBRANCH  30  31
ENDBRANCH  29  30
ENDBRANCH  28  29
BRANCH  28  34
HETATM   34  S   UNK N   1      20.560  17.897   3.117  0.00  0.00    -0.157 SA
BRANCH  34  35
HETATM   35  C   UNK N   1      21.503  19.301   3.818  0.00  0.00     0.143 C 
BRANCH  35  36
HETATM   36  C   UNK N   1      22.074  20.168   2.736  0.00  0.00     0.241 C 
HETATM   37  O   UNK N   1      22.917  21.018   2.981  0.00  0.00    -0.306 OA
ENDBRANCH  35  36
ENDBRANCH  34  35
ENDBRANCH  28  34
ENDBRANCH  27  28
ENDBRANCH  26  27
ENDBRANCH  25  26
ENDBRANCH  23  25
ENDBRANCH  22  23
ENDBRANCH  21  22
ENDBRANCH  20  21
ENDBRANCH  18  20
ENDBRANCH  17  18
BRANCH  17  38
HETATM   38  O   UNK N   1      23.703  11.475   6.461  0.00  0.00    -0.350 OA
HETATM   39  H   UNK N   1      24.274  11.695   5.751  0.00  0.00     0.219 HD
ENDBRANCH  17  38
ENDBRANCH  16  17
ENDBRANCH  15  16
ENDBRANCH  13  15
ENDBRANCH  12  13
BRANCH  12  40
HETATM   40  O   UNK N   1      26.674  14.652   5.743  0.00  0.00    -0.370 OA
HETATM   41  H   UNK N   1      27.373  15.254   5.442  0.00  0.00     0.212 HD
ENDBRANCH  12  40
ENDBRANCH  10  12
ENDBRANCH   7  10
ENDBRANCH   6   7
ENDBRANCH   5   6
ENDBRANCH   2   5
BRANCH   2  42
HETATM   42  O   UNK N   1      31.080  14.212   2.854  0.00  0.00    -0.195 OA
BRANCH  42  43
HETATM   43  P   UNK N   1      32.043  15.341   3.779  0.00  0.00     0.401 P 
HETATM   44  O   UNK N   1      32.912  16.018   2.686  0.00  0.00    -0.631 OA
BRANCH  43  45
HETATM   45  O   UNK N   1      33.231  14.524   4.750  0.00  0.00    -0.307 OA
HETATM   46  H   UNK N   1      33.682  13.678   4.602  0.00  0.00     0.222 HD
ENDBRANCH  43  45
BRANCH  43  47
HETATM   47  O   UNK N   1      31.302  16.692   4.599  0.00  0.00    -0.294 OA
BRANCH  47  48
HETATM   48  C   UNK N   1      32.124  17.157   5.640  0.00  0.00     0.215 C 
BRANCH  48  49
HETATM   49  C   UNK N   1      31.663  16.435   6.920  0.00  0.00     0.180 C 
HETATM   50  C   UNK N   1      31.889  17.029   8.334  0.00  0.00     0.197 C 
HETATM   51  C   UNK N   1      30.817  18.035   8.391  0.00  0.00     0.199 C 
HETATM   52  C   UNK N   1      29.680  17.213   7.784  0.00  0.00     0.262 C 
HETATM   53  O   UNK N   1      30.246  16.333   6.811  0.00  0.00    -0.353 OA
BRANCH  50  54
HETATM   54  O   UNK N   1      33.113  17.455   8.903  0.00  0.00    -0.286 OA
BRANCH  54  55
HETATM   55  P   UNK N   1      34.079  16.247   9.698  0.00  0.00     0.391 P 
HETATM   56  O   UNK N   1      35.010  15.472   8.729  0.00  0.00    -0.632 OA
BRANCH  55  57
HETATM   57  O   UNK N   1      35.086  16.969  10.913  0.00  0.00    -0.307 OA
HETATM   58  H   UNK N   1      35.569  16.551  11.643  0.00  0.00     0.222 HD
ENDBRANCH  55  57
BRANCH  55  59
HETATM   59  O   UNK N   1      32.999  15.159  10.459  0.00  0.00    -0.307 OA
HETATM   60  H   UNK N   1      32.085  15.062  10.151  0.00  0.00     0.222 HD
ENDBRANCH  55  59
ENDBRANCH  54  55
ENDBRANCH  50  54
BRANCH  51  61
HETATM   61  O   UNK N   1      30.556  18.432   9.706  0.00  0.00    -0.388 OA
HETATM   62  H   UNK N   1      31.268  18.479  10.364  0.00  0.00     0.210 HD
ENDBRANCH  51  61
BRANCH  52  63
HETATM   63  N   UNK N   1      28.687  18.114   7.195  0.00  0.00    -0.297 N 
HETATM   64  C   UNK N   1      28.041  19.141   7.800  0.00  0.00     0.188 A 
HETATM   65  N   UNK N   1      27.126  19.713   6.963  0.00  0.00    -0.346 N 
HETATM   66  C   UNK N   1      27.224  19.001   5.827  0.00  0.00     0.122 A 
HETATM   67  H   UNK N   1      26.531  20.474   7.149  0.00  0.00     0.167 HD
HETATM   68  C   UNK N   1      26.503  19.097   4.646  0.00  0.00     0.131 A 
HETATM   69  C   UNK N   1      28.170  18.054   5.959  0.00  0.00     0.142 A 
HETATM   70  N   UNK N   1      26.788  18.211   3.645  0.00  0.00    -0.337 N 
HETATM   71  C   UNK N   1      27.764  17.258   3.802  0.00  0.00     0.183 A 
ATOM     72  HN  UNK N   1      26.268  18.259   2.768  1.00  0.00     0.168 HD
HETATM   73  N   UNK N   1      28.464  17.174   4.974  0.00  0.00    -0.336 N 
ATOM     74  HN  UNK N   1      29.188  16.467   5.102  1.00  0.00     0.168 HD
BRANCH  68  75
HETATM   75  N   UNK N   1      25.486  20.058   4.486  0.00  0.00    -0.383 N 
HETATM   76  H   UNK N   1      24.713  20.237   5.069  0.00  0.00     0.157 HD
HETATM   77  H   UNK N   1      25.557  20.625   3.685  0.00  0.00     0.157 HD
ENDBRANCH  68  75
ENDBRANCH  52  63
ENDBRANCH  48  49
ENDBRANCH  47  48
ENDBRANCH  43  47
ENDBRANCH  42  43
ENDBRANCH   2  42
TORSDOF 41
ENDMDL
MODEL 2
REMARK VINA RESULT:      -5.7      6.217      9.375
REMARK WARNING: 32 MAX_TORS EXCEEDED!!!
REMARK  41 active torsions:
REMARK  status: ('A' for Active; 'I' for Inactive)
REMARK    1  A    between atoms: C_5  and  C_4 
REMARK    2  A    between atoms: C_6  and  C_5 
REMARK    3  A    between atoms: C_8  and  C_6 
REMARK    4  A    between atoms: C_9  and  C_7 
REMARK    5  A    between atoms: C_10  and  C_7 
REMARK    6  A    between atoms: C_21  and  C_8 
REMARK    7  A    between atoms: C_21  and  C_9 
REMARK    8  A    between atoms: C_24  and  C_10 
REMARK    9  A    between atoms: C_12  and  C_11 
REMARK   10  A    between atoms: C_23  and  C_11 
REMARK   11  A    between atoms: N_37  and  C_12 
REMARK   12  A    between atoms: C_15  and  C_13 
REMARK   13  A    between atoms: N_35  and  C_13 
REMARK   14  A    between atoms: C_16  and  C_14 
REMARK   15  A    between atoms: S_66  and  C_15 
REMARK   16  A    between atoms: S_65  and  C_16 
REMARK   17  A    between atoms: C_22  and  C_17 
REMARK   18  A    between atoms: O_57  and  C_17 
REMARK   19  A    between atoms: C_33  and  C_18 
REMARK   20  A    between atoms: O_58  and  C_18 
REMARK   21  A    between atoms: C_21  and  S_65 
REMARK   22  A    between atoms: N_35  and  C_23 
REMARK   23  A    between atoms: O_45  and  C_23 
REMARK   24  A    between atoms: S_66  and  C_24 
REMARK   25  A    between atoms: C_26  and  O_47 
REMARK   26  A    between atoms: C_27  and  O_60 
REMARK   27  A    between atoms: C_31  and  C_28 
REMARK   28  A    between atoms: C_33  and  C_28 
REMARK   29  A    between atoms: N_34  and  C_29 
REMARK   30  A    between atoms: N_37  and  C_31 
REMARK   31  A    between atoms: C_31  and  O_49 
REMARK   32  A    between atoms: C_32  and  N_43 
REMARK   33  A    between atoms: P_62  and  O_51 
REMARK   34  A    between atoms: P_62  and  O_52 
REMARK   35  A    between atoms: P_63  and  O_53 
REMARK   36  A    between atoms: P_64  and  O_56 
REMARK   37  A    between atoms: P_63  and  O_57 
REMARK   38  A    between atoms: P_64  and  O_58 
REMARK   39  A    between atoms: P_62  and  O_60 
REMARK   40  A    between atoms: P_63  and  O_61 
REMARK   41  A    between atoms: P_64  and  O_61 
ROOT
HETATM    1  O   UNK N   1      33.647  12.751   9.430  0.00  0.00    -0.631 OA
HETATM    2  P   UNK N   1      33.446  14.243   9.043  0.00  0.00     0.401 P 
ENDROOT
BRANCH   2   3
HETATM    3  O   UNK N   1      32.608  14.913  10.403  0.00  0.00    -0.307 OA
HETATM    4  H   UNK N   1      31.773  15.395  10.514  0.00  0.00     0.222 HD
ENDBRANCH   2   3
BRANCH   2   5
HETATM    5  O   UNK N   1      32.447  14.338   7.594  0.00  0.00    -0.296 OA
BRANCH   5   6
HETATM    6  C   UNK N   1      33.242  14.719   6.496  0.00  0.00     0.197 C 
BRANCH   6   7
HETATM    7  C   UNK N   1      32.893  16.108   5.907  0.00  0.00     0.040 C 
HETATM    8  C   UNK N   1      33.467  16.278   4.507  0.00  0.00     0.025 C 
HETATM    9  C   UNK N   1      31.378  16.145   5.758  0.00  0.00     0.025 C 
BRANCH   7  10
HETATM   10  C   UNK N   1      33.397  17.212   6.829  0.00  0.00     0.184 C 
HETATM   11  O   UNK N   1      34.592  17.435   6.903  0.00  0.00    -0.292 OA
BRANCH  10  12
HETATM   12  C   UNK N   1      32.495  17.965   7.764  0.00  0.00     0.285 C 
BRANCH  12  13
HETATM   13  N   UNK N   1      31.807  17.080   8.712  0.00  0.00    -0.391 N 
HETATM   14  H   UNK N   1      32.170  16.193   9.061  0.00  0.00     0.156 HD
BRANCH  13  15
HETATM   15  C   UNK N   1      30.514  17.673   9.078  0.00  0.00     0.124 C 
BRANCH  15  16
HETATM   16  C   UNK N   1      29.692  18.203   7.881  0.00  0.00     0.103 C 
BRANCH  16  17
HETATM   17  C   UNK N   1      28.230  18.382   8.148  0.00  0.00     0.112 C 
BRANCH  17  18
HETATM   18  N   UNK N   1      27.458  18.789   7.206  0.00  0.00    -0.374 N 
ATOM     19  HN  UNK N   1      26.794  18.137   6.788  1.00  0.00     0.161 HD
BRANCH  18  20
HETATM   20  C   UNK N   1      27.508  20.140   6.729  0.00  0.00     0.132 C 
BRANCH  20  21
HETATM   21  C   UNK N   1      27.760  20.069   5.244  0.00  0.00     0.102 C 
BRANCH  21  22
HETATM   22  S   UNK N   1      27.092  18.522   4.518  0.00  0.00    -0.086 SA
BRANCH  22  23
HETATM   23  C   UNK N   1      25.855  19.561   3.829  0.00  0.00     0.208 C 
HETATM   24  O   UNK N   1      26.169  20.428   3.026  0.00  0.00    -0.281 OA
BRANCH  23  25
HETATM   25  C   UNK N   1      24.455  19.197   4.043  0.00  0.00     0.058 C 
BRANCH  25  26
HETATM   26  C   UNK N   1      24.156  17.951   4.392  0.00  0.00    -0.021 C 
BRANCH  26  27
HETATM   27  C   UNK N   1      22.956  17.633   5.203  0.00  0.00     0.042 C 
BRANCH  27  28
HETATM   28  C   UNK N   1      22.161  16.565   4.459  0.00  0.00     0.051 C 
BRANCH  28  29
HETATM   29  C   UNK N   1      23.078  15.422   4.073  0.00  0.00     0.015 C 
BRANCH  29  30
HETATM   30  C   UNK N   1      22.623  14.803   2.761  0.00  0.00     0.001 C 
BRANCH  30  31
HETATM   31  C   UNK N   1      23.769  14.056   2.115  0.00  0.00    -0.000 C 
BRANCH  31  32
HETATM   32  C   UNK N   1      23.677  14.181   0.605  0.00  0.00    -0.005 C 
HETATM   33  C   UNK N   1      23.574  12.802  -0.005  0.00  0.00     0.005 C 
ENDBRANCH  31  32
ENDBRANCH  30  31
ENDBRANCH  29  30
ENDBRANCH  28  29
BRANCH  28  34
HETATM   34  S   UNK N   1      21.280  17.231   2.969  0.00  0.00    -0.157 SA
BRANCH  34  35
HETATM   35  C   UNK N   1      19.583  17.244   3.654  0.00  0.00     0.143 C 
BRANCH  35  36
HETATM   36  C   UNK N   1      19.361  16.085   4.580  0.00  0.00     0.241 C 
HETATM   37  O   UNK N   1      18.411  16.059   5.349  0.00  0.00    -0.306 OA
ENDBRANCH  35  36
ENDBRANCH  34  35
ENDBRANCH  28  34
ENDBRANCH  27  28
ENDBRANCH  26  27
ENDBRANCH  25  26
ENDBRANCH  23  25
ENDBRANCH  22  23
ENDBRANCH  21  22
ENDBRANCH  20  21
ENDBRANCH  18  20
ENDBRANCH  17  18
BRANCH  17  38
HETATM   38  O   UNK N   1      27.751  18.173   9.393  0.00  0.00    -0.350 OA
HETATM   39  H   UNK N   1      27.234  17.439   9.661  0.00  0.00     0.219 HD
ENDBRANCH  17  38
ENDBRANCH  16  17
ENDBRANCH  15  16
ENDBRANCH  13  15
ENDBRANCH  12  13
BRANCH  12  40
HETATM   40  O   UNK N   1      33.268  18.901   8.449  0.00  0.00    -0.370 OA
HETATM   41  H   UNK N   1      33.415  19.780   8.068  0.00  0.00     0.212 HD
ENDBRANCH  12  40
ENDBRANCH  10  12
ENDBRANCH   7  10
ENDBRANCH   6   7
ENDBRANCH   5   6
ENDBRANCH   2   5
BRANCH   2  42
HETATM   42  O   UNK N   1      35.042  14.957   9.038  0.00  0.00    -0.195 OA
BRANCH  42  43
HETATM   43  P   UNK N   1      35.420  15.753  10.547  0.00  0.00     0.401 P 
HETATM   44  O   UNK N   1      34.784  17.155  10.358  0.00  0.00    -0.631 OA
BRANCH  43  45
HETATM   45  O   UNK N   1      37.114  16.122  10.669  0.00  0.00    -0.307 OA
HETATM   46  H   UNK N   1      37.558  16.967  10.839  0.00  0.00     0.222 HD
ENDBRANCH  43  45
BRANCH  43  47
HETATM   47  O   UNK N   1      34.732  15.198  12.053  0.00  0.00    -0.294 OA
BRANCH  47  48
HETATM   48  C   UNK N   1      35.700  14.544  12.835  0.00  0.00     0.215 C 
BRANCH  48  49
HETATM   49  C   UNK N   1      35.533  13.035  12.569  0.00  0.00     0.180 C 
HETATM   50  C   UNK N   1      36.726  12.048  12.627  0.00  0.00     0.197 C 
HETATM   51  C   UNK N   1      36.882  11.879  14.080  0.00  0.00     0.199 C 
HETATM   52  C   UNK N   1      35.409  11.748  14.469  0.00  0.00     0.262 C 
HETATM   53  O   UNK N   1      34.647  12.566  13.581  0.00  0.00    -0.353 OA
BRANCH  50  54
HETATM   54  O   UNK N   1      37.949  12.133  11.920  0.00  0.00    -0.286 OA
BRANCH  54  55
HETATM   55  P   UNK N   1      37.858  12.172  10.183  0.00  0.00     0.391 P 
HETATM   56  O   UNK N   1      38.087  13.587   9.591  0.00  0.00    -0.632 OA
BRANCH  55  57
HETATM   57  O   UNK N   1      39.047  11.121   9.482  0.00  0.00    -0.307 OA
HETATM   58  H   UNK N   1      39.580  11.239   8.681  0.00  0.00     0.222 HD
ENDBRANCH  55  57
BRANCH  55  59
HETATM   59  O   UNK N   1      36.303  11.606   9.747  0.00  0.00    -0.307 OA
HETATM   60  H   UNK N   1      35.591  11.539  10.403  0.00  0.00     0.222 HD
ENDBRANCH  55  59
ENDBRANCH  54  55
ENDBRANCH  50  54
BRANCH  51  61
HETATM   61  O   UNK N   1      37.628  10.738  14.388  0.00  0.00    -0.388 OA
HETATM   62  H   UNK N   1      37.279   9.850  14.207  0.00  0.00     0.210 HD
ENDBRANCH  51  61
BRANCH  52  63
HETATM   63  N   UNK N   1      35.236  12.149  15.867  0.00  0.00    -0.297 N 
HETATM   64  C   UNK N   1      34.828  13.355  16.336  0.00  0.00     0.188 A 
HETATM   65  N   UNK N   1      34.860  13.392  17.700  0.00  0.00    -0.346 N 
HETATM   66  C   UNK N   1      35.308  12.175  18.056  0.00  0.00     0.122 A 
HETATM   67  H   UNK N   1      34.610  14.139  18.290  0.00  0.00     0.167 HD
HETATM   68  C   UNK N   1      35.588  11.657  19.311  0.00  0.00     0.131 A 
HETATM   69  C   UNK N   1      35.519  11.425  16.960  0.00  0.00     0.142 A 
HETATM   70  N   UNK N   1      36.073  10.381  19.387  0.00  0.00    -0.337 N 
HETATM   71  C   UNK N   1      36.272   9.633  18.253  0.00  0.00     0.183 A 
ATOM     72  HN  UNK N   1      36.291   9.979  20.299  1.00  0.00     0.168 HD
HETATM   73  N   UNK N   1      35.995  10.160  17.021  0.00  0.00    -0.336 N 
ATOM     74  HN  UNK N   1      36.143   9.613  16.172  1.00  0.00     0.168 HD
BRANCH  68  75
HETATM   75  N   UNK N   1      35.407  12.425  20.477  0.00  0.00    -0.383 N 
HETATM   76  H   UNK N   1      34.733  13.121  20.656  0.00  0.00     0.157 HD
HETATM   77  H   UNK N   1      36.038  12.243  21.211  0.00  0.00     0.157 HD
ENDBRANCH  68  75
ENDBRANCH  52  63
ENDBRANCH  48  49
ENDBRANCH  47  48
ENDBRANCH  43  47
ENDBRANCH  42  43
ENDBRANCH   2  42
TORSDOF 41
ENDMDL
MODEL 3
REMARK VINA RESULT:      -5.6      6.202      9.553
REMARK WARNING: 32 MAX_TORS EXCEEDED!!!
REMARK  41 active torsions:
REMARK  status: ('A' for Active; 'I' for Inactive)
REMARK    1  A    between atoms: C_5  and  C_4 
REMARK    2  A    between atoms: C_6  and  C_5 
REMARK    3  A    between atoms: C_8  and  C_6 
REMARK    4  A    between atoms: C_9  and  C_7 
REMARK    5  A    between atoms: C_10  and  C_7 
REMARK    6  A    between atoms: C_21  and  C_8 
REMARK    7  A    between atoms: C_21  and  C_9 
REMARK    8  A    between atoms: C_24  and  C_10 
REMARK    9  A    between atoms: C_12  and  C_11 
REMARK   10  A    between atoms: C_23  and  C_11 
REMARK   11  A    between atoms: N_37  and  C_12 
REMARK   12  A    between atoms: C_15  and  C_13 
REMARK   13  A    between atoms: N_35  and  C_13 
REMARK   14  A    between atoms: C_16  and  C_14 
REMARK   15  A    between atoms: S_66  and  C_15 
REMARK   16  A    between atoms: S_65  and  C_16 
REMARK   17  A    between atoms: C_22  and  C_17 
REMARK   18  A    between atoms: O_57  and  C_17 
REMARK   19  A    between atoms: C_33  and  C_18 
REMARK   20  A    between atoms: O_58  and  C_18 
REMARK   21  A    between atoms: C_21  and  S_65 
REMARK   22  A    between atoms: N_35  and  C_23 
REMARK   23  A    between atoms: O_45  and  C_23 
REMARK   24  A    between atoms: S_66  and  C_24 
REMARK   25  A    between atoms: C_26  and  O_47 
REMARK   26  A    between atoms: C_27  and  O_60 
REMARK   27  A    between atoms: C_31  and  C_28 
REMARK   28  A    between atoms: C_33  and  C_28 
REMARK   29  A    between atoms: N_34  and  C_29 
REMARK   30  A    between atoms: N_37  and  C_31 
REMARK   31  A    between atoms: C_31  and  O_49 
REMARK   32  A    between atoms: C_32  and  N_43 
REMARK   33  A    between atoms: P_62  and  O_51 
REMARK   34  A    between atoms: P_62  and  O_52 
REMARK   35  A    between atoms: P_63  and  O_53 
REMARK   36  A    between atoms: P_64  and  O_56 
REMARK   37  A    between atoms: P_63  and  O_57 
REMARK   38  A    between atoms: P_64  and  O_58 
REMARK   39  A    between atoms: P_62  and  O_60 
REMARK   40  A    between atoms: P_63  and  O_61 
REMARK   41  A    between atoms: P_64  and  O_61 
ROOT
HETATM    1  O   UNK N   1      33.452  12.711   9.346  0.00  0.00    -0.631 OA
HETATM    2  P   UNK N   1      33.367  14.227   9.013  0.00  0.00     0.401 P 
ENDROOT
BRANCH   2   3
HETATM    3  O   UNK N   1      32.570  14.910  10.391  0.00  0.00    -0.307 OA
HETATM    4  H   UNK N   1      32.527  14.679  11.333  0.00  0.00     0.222 HD
ENDBRANCH   2   3
BRANCH   2   5
HETATM    5  O   UNK N   1      32.392  14.450   7.562  0.00  0.00    -0.296 OA
BRANCH   5   6
HETATM    6  C   UNK N   1      33.208  14.904   6.508  0.00  0.00     0.197 C 
BRANCH   6   7
HETATM    7  C   UNK N   1      32.792  16.276   5.923  0.00  0.00     0.040 C 
HETATM    8  C   UNK N   1      33.303  16.451   4.500  0.00  0.00     0.025 C 
HETATM    9  C   UNK N   1      31.272  16.265   5.837  0.00  0.00     0.025 C 
BRANCH   7  10
HETATM   10  C   UNK N   1      33.300  17.403   6.816  0.00  0.00     0.184 C 
HETATM   11  O   UNK N   1      34.476  17.713   6.782  0.00  0.00    -0.292 OA
BRANCH  10  12
HETATM   12  C   UNK N   1      32.437  18.074   7.846  0.00  0.00     0.285 C 
BRANCH  12  13
HETATM   13  N   UNK N   1      31.822  17.117   8.772  0.00  0.00    -0.391 N 
HETATM   14  H   UNK N   1      32.217  16.214   9.037  0.00  0.00     0.156 HD
BRANCH  13  15
HETATM   15  C   UNK N   1      30.548  17.662   9.258  0.00  0.00     0.124 C 
BRANCH  15  16
HETATM   16  C   UNK N   1      29.774  18.505   8.219  0.00  0.00     0.103 C 
BRANCH  16  17
HETATM   17  C   UNK N   1      28.293  18.298   8.213  0.00  0.00     0.112 C 
BRANCH  17  18
HETATM   18  N   UNK N   1      27.655  18.299   7.098  0.00  0.00    -0.374 N 
ATOM     19  HN  UNK N   1      27.130  17.470   6.822  1.00  0.00     0.161 HD
BRANCH  18  20
HETATM   20  C   UNK N   1      27.666  19.442   6.232  0.00  0.00     0.132 C 
BRANCH  20  21
HETATM   21  C   UNK N   1      27.565  18.920   4.820  0.00  0.00     0.102 C 
BRANCH  21  22
HETATM   22  S   UNK N   1      26.431  17.482   4.711  0.00  0.00    -0.086 SA
BRANCH  22  23
HETATM   23  C   UNK N   1      25.272  18.638   4.076  0.00  0.00     0.208 C 
HETATM   24  O   UNK N   1      25.533  19.260   3.057  0.00  0.00    -0.281 OA
BRANCH  23  25
HETATM   25  C   UNK N   1      23.924  18.641   4.643  0.00  0.00     0.058 C 
BRANCH  25  26
HETATM   26  C   UNK N   1      23.447  17.526   5.185  0.00  0.00    -0.021 C 
BRANCH  26  27
HETATM   27  C   UNK N   1      22.151  17.500   5.905  0.00  0.00     0.042 C 
BRANCH  27  28
HETATM   28  C   UNK N   1      21.888  16.062   6.337  0.00  0.00     0.051 C 
BRANCH  28  29
HETATM   29  C   UNK N   1      21.144  16.052   7.657  0.00  0.00     0.015 C 
BRANCH  29  30
HETATM   30  C   UNK N   1      20.739  14.633   8.022  0.00  0.00     0.001 C 
BRANCH  30  31
HETATM   31  C   UNK N   1      20.628  14.496   9.525  0.00  0.00    -0.000 C 
BRANCH  31  32
HETATM   32  C   UNK N   1      21.440  13.302   9.993  0.00  0.00    -0.005 C 
HETATM   33  C   UNK N   1      21.817  12.455   8.799  0.00  0.00     0.005 C 
ENDBRANCH  31  32
ENDBRANCH  30  31
ENDBRANCH  29  30
ENDBRANCH  28  29
BRANCH  28  34
HETATM   34  S   UNK N   1      23.436  15.049   6.450  0.00  0.00    -0.157 SA
BRANCH  34  35
HETATM   35  C   UNK N   1      22.925  13.668   5.362  0.00  0.00     0.143 C 
BRANCH  35  36
HETATM   36  C   UNK N   1      23.738  13.637   4.102  0.00  0.00     0.241 C 
HETATM   37  O   UNK N   1      24.580  14.491   3.869  0.00  0.00    -0.306 OA
ENDBRANCH  35  36
ENDBRANCH  34  35
ENDBRANCH  28  34
ENDBRANCH  27  28
ENDBRANCH  26  27
ENDBRANCH  25  26
ENDBRANCH  23  25
ENDBRANCH  22  23
ENDBRANCH  21  22
ENDBRANCH  20  21
ENDBRANCH  18  20
ENDBRANCH  17  18
BRANCH  17  38
HETATM   38  O   UNK N   1      27.634  18.175   9.385  0.00  0.00    -0.350 OA
HETATM   39  H   UNK N   1      27.858  18.611  10.183  0.00  0.00     0.219 HD
ENDBRANCH  17  38
ENDBRANCH  16  17
ENDBRANCH  15  16
ENDBRANCH  13  15
ENDBRANCH  12  13
BRANCH  12  40
HETATM   40  O   UNK N   1      33.230  18.984   8.545  0.00  0.00    -0.370 OA
HETATM   41  H   UNK N   1      32.885  19.413   9.343  0.00  0.00     0.212 HD
ENDBRANCH  12  40
ENDBRANCH  10  12
ENDBRANCH   7  10
ENDBRANCH   6   7
ENDBRANCH   5   6
ENDBRANCH   2   5
BRANCH   2  42
HETATM   42  O   UNK N   1      35.012  14.818   9.044  0.00  0.00    -0.195 OA
BRANCH  42  43
HETATM   43  P   UNK N   1      35.379  15.688  10.515  0.00  0.00     0.401 P 
HETATM   44  O   UNK N   1      34.697  17.061  10.274  0.00  0.00    -0.631 OA
BRANCH  43  45
HETATM   45  O   UNK N   1      37.062  16.114  10.603  0.00  0.00    -0.307 OA
HETATM   46  H   UNK N   1      37.504  16.806  11.119  0.00  0.00     0.222 HD
ENDBRANCH  43  45
BRANCH  43  47
HETATM   47  O   UNK N   1      34.723  15.176  12.050  0.00  0.00    -0.294 OA
BRANCH  47  48
HETATM   48  C   UNK N   1      35.704  14.531  12.824  0.00  0.00     0.215 C 
BRANCH  48  49
HETATM   49  C   UNK N   1      35.557  13.022  12.551  0.00  0.00     0.180 C 
HETATM   50  C   UNK N   1      36.761  12.049  12.617  0.00  0.00     0.197 C 
HETATM   51  C   UNK N   1      36.908  11.877  14.070  0.00  0.00     0.199 C 
HETATM   52  C   UNK N   1      35.433  11.727  14.447  0.00  0.00     0.262 C 
HETATM   53  O   UNK N   1      34.668  12.539  13.555  0.00  0.00    -0.353 OA
BRANCH  50  54
HETATM   54  O   UNK N   1      37.989  12.151  11.919  0.00  0.00    -0.286 OA
BRANCH  54  55
HETATM   55  P   UNK N   1      37.905  12.355  10.194  0.00  0.00     0.391 P 
HETATM   56  O   UNK N   1      38.330  13.771   9.724  0.00  0.00    -0.632 OA
BRANCH  55  57
HETATM   57  O   UNK N   1      38.936  11.214   9.390  0.00  0.00    -0.307 OA
HETATM   58  H   UNK N   1      38.776  10.699   8.584  0.00  0.00     0.222 HD
ENDBRANCH  55  57
BRANCH  55  59
HETATM   59  O   UNK N   1      36.287  12.052   9.728  0.00  0.00    -0.307 OA
HETATM   60  H   UNK N   1      36.070  11.348   9.096  0.00  0.00     0.222 HD
ENDBRANCH  55  59
ENDBRANCH  54  55
ENDBRANCH  50  54
BRANCH  51  61
HETATM   61  O   UNK N   1      37.664  10.744  14.380  0.00  0.00    -0.388 OA
HETATM   62  H   UNK N   1      38.266  10.352  13.727  0.00  0.00     0.210 HD
ENDBRANCH  51  61
BRANCH  52  63
HETATM   63  N   UNK N   1      35.244  12.121  15.844  0.00  0.00    -0.297 N 
HETATM   64  C   UNK N   1      34.803  13.316  16.313  0.00  0.00     0.188 A 
HETATM   65  N   UNK N   1      34.828  13.351  17.678  0.00  0.00    -0.346 N 
HETATM   66  C   UNK N   1      35.306  12.145  18.034  0.00  0.00     0.122 A 
HETATM   67  H   UNK N   1      34.557  14.091  18.267  0.00  0.00     0.167 HD
HETATM   68  C   UNK N   1      35.594  11.633  19.289  0.00  0.00     0.131 A 
HETATM   69  C   UNK N   1      35.541  11.403  16.937  0.00  0.00     0.142 A 
HETATM   70  N   UNK N   1      36.112  10.370  19.365  0.00  0.00    -0.337 N 
HETATM   71  C   UNK N   1      36.335   9.629  18.231  0.00  0.00     0.183 A 
ATOM     72  HN  UNK N   1      36.337   9.973  20.278  1.00  0.00     0.168 HD
HETATM   73  N   UNK N   1      36.049  10.151  16.999  0.00  0.00    -0.336 N 
ATOM     74  HN  UNK N   1      36.215   9.610  16.150  1.00  0.00     0.168 HD
BRANCH  68  75
HETATM   75  N   UNK N   1      35.388  12.395  20.455  0.00  0.00    -0.383 N 
HETATM   76  H   UNK N   1      35.320  13.373  20.547  0.00  0.00     0.157 HD
HETATM   77  H   UNK N   1      35.301  11.881  21.291  0.00  0.00     0.157 HD
ENDBRANCH  68  75
ENDBRANCH  52  63
ENDBRANCH  48  49
ENDBRANCH  47  48
ENDBRANCH  43  47
ENDBRANCH  42  43
ENDBRANCH   2  42
TORSDOF 41
ENDMDL
MODEL 4
REMARK VINA RESULT:      -5.6      4.084     10.379
REMARK WARNING: 32 MAX_TORS EXCEEDED!!!
REMARK  41 active torsions:
REMARK  status: ('A' for Active; 'I' for Inactive)
REMARK    1  A    between atoms: C_5  and  C_4 
REMARK    2  A    between atoms: C_6  and  C_5 
REMARK    3  A    between atoms: C_8  and  C_6 
REMARK    4  A    between atoms: C_9  and  C_7 
REMARK    5  A    between atoms: C_10  and  C_7 
REMARK    6  A    between atoms: C_21  and  C_8 
REMARK    7  A    between atoms: C_21  and  C_9 
REMARK    8  A    between atoms: C_24  and  C_10 
REMARK    9  A    between atoms: C_12  and  C_11 
REMARK   10  A    between atoms: C_23  and  C_11 
REMARK   11  A    between atoms: N_37  and  C_12 
REMARK   12  A    between atoms: C_15  and  C_13 
REMARK   13  A    between atoms: N_35  and  C_13 
REMARK   14  A    between atoms: C_16  and  C_14 
REMARK   15  A    between atoms: S_66  and  C_15 
REMARK   16  A    between atoms: S_65  and  C_16 
REMARK   17  A    between atoms: C_22  and  C_17 
REMARK   18  A    between atoms: O_57  and  C_17 
REMARK   19  A    between atoms: C_33  and  C_18 
REMARK   20  A    between atoms: O_58  and  C_18 
REMARK   21  A    between atoms: C_21  and  S_65 
REMARK   22  A    between atoms: N_35  and  C_23 
REMARK   23  A    between atoms: O_45  and  C_23 
REMARK   24  A    between atoms: S_66  and  C_24 
REMARK   25  A    between atoms: C_26  and  O_47 
REMARK   26  A    between atoms: C_27  and  O_60 
REMARK   27  A    between atoms: C_31  and  C_28 
REMARK   28  A    between atoms: C_33  and  C_28 
REMARK   29  A    between atoms: N_34  and  C_29 
REMARK   30  A    between atoms: N_37  and  C_31 
REMARK   31  A    between atoms: C_31  and  O_49 
REMARK   32  A    between atoms: C_32  and  N_43 
REMARK   33  A    between atoms: P_62  and  O_51 
REMARK   34  A    between atoms: P_62  and  O_52 
REMARK   35  A    between atoms: P_63  and  O_53 
REMARK   36  A    between atoms: P_64  and  O_56 
REMARK   37  A    between atoms: P_63  and  O_57 
REMARK   38  A    between atoms: P_64  and  O_58 
REMARK   39  A    between atoms: P_62  and  O_60 
REMARK   40  A    between atoms: P_63  and  O_61 
REMARK   41  A    between atoms: P_64  and  O_61 
ROOT
HETATM    1  O   UNK N   1      21.306  16.013   0.812  0.00  0.00    -0.631 OA
HETATM    2  P   UNK N   1      19.924  16.217   1.492  0.00  0.00     0.401 P 
ENDROOT
BRANCH   2   3
HETATM    3  O   UNK N   1      18.822  16.334   0.161  0.00  0.00    -0.307 OA
HETATM    4  H   UNK N   1      18.653  17.002  -0.523  0.00  0.00     0.222 HD
ENDBRANCH   2   3
BRANCH   2   5
HETATM    5  O   UNK N   1      19.944  17.721   2.411  0.00  0.00    -0.296 OA
BRANCH   5   6
HETATM    6  C   UNK N   1      21.212  18.323   2.305  0.00  0.00     0.197 C 
BRANCH   6   7
HETATM    7  C   UNK N   1      21.202  19.864   2.463  0.00  0.00     0.040 C 
HETATM    8  C   UNK N   1      20.817  20.554   1.162  0.00  0.00     0.025 C 
HETATM    9  C   UNK N   1      20.101  20.188   3.464  0.00  0.00     0.025 C 
BRANCH   7  10
HETATM   10  C   UNK N   1      22.564  20.352   2.944  0.00  0.00     0.184 C 
HETATM   11  O   UNK N   1      22.875  21.518   2.787  0.00  0.00    -0.292 OA
BRANCH  10  12
HETATM   12  C   UNK N   1      23.612  19.425   3.492  0.00  0.00     0.285 C 
BRANCH  12  13
HETATM   13  N   UNK N   1      24.833  20.134   3.892  0.00  0.00    -0.391 N 
HETATM   14  H   UNK N   1      24.883  20.876   4.590  0.00  0.00     0.156 HD
BRANCH  13  15
HETATM   15  C   UNK N   1      25.972  19.606   3.129  0.00  0.00     0.124 C 
BRANCH  15  16
HETATM   16  C   UNK N   1      27.183  19.190   3.994  0.00  0.00     0.103 C 
BRANCH  16  17
HETATM   17  C   UNK N   1      26.985  17.947   4.804  0.00  0.00     0.112 C 
BRANCH  17  18
HETATM   18  N   UNK N   1      27.799  16.964   4.669  0.00  0.00    -0.374 N 
ATOM     19  HN  UNK N   1      28.317  16.628   5.481  1.00  0.00     0.161 HD
BRANCH  18  20
HETATM   20  C   UNK N   1      27.998  16.328   3.399  0.00  0.00     0.132 C 
BRANCH  20  21
HETATM   21  C   UNK N   1      29.476  16.399   3.103  0.00  0.00     0.102 C 
BRANCH  21  22
HETATM   22  S   UNK N   1      30.447  15.345   4.248  0.00  0.00    -0.086 SA
BRANCH  22  23
HETATM   23  C   UNK N   1      31.410  16.788   4.516  0.00  0.00     0.208 C 
HETATM   24  O   UNK N   1      30.856  17.871   4.644  0.00  0.00    -0.281 OA
BRANCH  23  25
HETATM   25  C   UNK N   1      32.828  16.620   4.829  0.00  0.00     0.058 C 
BRANCH  25  26
HETATM   26  C   UNK N   1      33.450  17.555   5.539  0.00  0.00    -0.021 C 
BRANCH  26  27
HETATM   27  C   UNK N   1      33.453  17.538   7.022  0.00  0.00     0.042 C 
BRANCH  27  28
HETATM   28  C   UNK N   1      33.347  16.085   7.471  0.00  0.00     0.051 C 
BRANCH  28  29
HETATM   29  C   UNK N   1      32.184  15.929   8.429  0.00  0.00     0.015 C 
BRANCH  29  30
HETATM   30  C   UNK N   1      31.326  17.184   8.425  0.00  0.00     0.001 C 
BRANCH  30  31
HETATM   31  C   UNK N   1      29.941  16.864   7.909  0.00  0.00    -0.000 C 
BRANCH  31  32
HETATM   32  C   UNK N   1      29.127  18.140   7.796  0.00  0.00    -0.005 C 
HETATM   33  C   UNK N   1      28.573  18.501   9.155  0.00  0.00     0.005 C 
ENDBRANCH  31  32
ENDBRANCH  30  31
ENDBRANCH  29  30
ENDBRANCH  28  29
BRANCH  28  34
HETATM   34  S   UNK N   1      34.914  15.452   8.234  0.00  0.00    -0.157 SA
BRANCH  34  35
HETATM   35  C   UNK N   1      34.392  15.510   9.988  0.00  0.00     0.143 C 
BRANCH  35  36
HETATM   36  C   UNK N   1      35.110  16.595  10.734  0.00  0.00     0.241 C 
HETATM   37  O   UNK N   1      35.601  17.550  10.150  0.00  0.00    -0.306 OA
ENDBRANCH  35  36
ENDBRANCH  34  35
ENDBRANCH  28  34
ENDBRANCH  27  28
ENDBRANCH  26  27
ENDBRANCH  25  26
ENDBRANCH  23  25
ENDBRANCH  22  23
ENDBRANCH  21  22
ENDBRANCH  20  21
ENDBRANCH  18  20
ENDBRANCH  17  18
BRANCH  17  38
HETATM   38  O   UNK N   1      25.916  17.850   5.622  0.00  0.00    -0.350 OA
HETATM   39  H   UNK N   1      25.392  17.084   5.745  0.00  0.00     0.219 HD
ENDBRANCH  17  38
ENDBRANCH  16  17
ENDBRANCH  15  16
ENDBRANCH  13  15
ENDBRANCH  12  13
BRANCH  12  40
HETATM   40  O   UNK N   1      23.064  18.752   4.582  0.00  0.00    -0.370 OA
HETATM   41  H   UNK N   1      22.597  19.247   5.273  0.00  0.00     0.212 HD
ENDBRANCH  12  40
ENDBRANCH  10  12
ENDBRANCH   7  10
ENDBRANCH   6   7
ENDBRANCH   5   6
ENDBRANCH   2   5
BRANCH   2  42
HETATM   42  O   UNK N   1      19.563  14.714   2.308  0.00  0.00    -0.195 OA
BRANCH  42  43
HETATM   43  P   UNK N   1      19.425  14.913   4.040  0.00  0.00     0.401 P 
HETATM   44  O   UNK N   1      18.448  13.774   4.434  0.00  0.00    -0.631 OA
BRANCH  43  45
HETATM   45  O   UNK N   1      18.522  16.341   4.449  0.00  0.00    -0.307 OA
HETATM   46  H   UNK N   1      17.606  16.434   4.752  0.00  0.00     0.222 HD
ENDBRANCH  43  45
BRANCH  43  47
HETATM   47  O   UNK N   1      20.797  14.648   5.087  0.00  0.00    -0.294 OA
BRANCH  47  48
HETATM   48  C   UNK N   1      21.811  15.587   4.830  0.00  0.00     0.215 C 
BRANCH  48  49
HETATM   49  C   UNK N   1      22.479  15.894   6.184  0.00  0.00     0.180 C 
HETATM   50  C   UNK N   1      22.367  14.938   7.398  0.00  0.00     0.197 C 
HETATM   51  C   UNK N   1      23.345  13.902   7.033  0.00  0.00     0.199 C 
HETATM   52  C   UNK N   1      24.473  14.801   6.525  0.00  0.00     0.262 C 
HETATM   53  O   UNK N   1      23.877  15.948   5.915  0.00  0.00    -0.353 OA
BRANCH  50  54
HETATM   54  O   UNK N   1      21.184  14.434   7.990  0.00  0.00    -0.286 OA
BRANCH  54  55
HETATM   55  P   UNK N   1      20.009  15.598   8.529  0.00  0.00     0.391 P 
HETATM   56  O   UNK N   1      20.645  16.916   9.042  0.00  0.00    -0.632 OA
BRANCH  55  57
HETATM   57  O   UNK N   1      18.924  16.016   7.241  0.00  0.00    -0.307 OA
HETATM   58  H   UNK N   1      18.855  15.646   6.347  0.00  0.00     0.222 HD
ENDBRANCH  55  57
BRANCH  55  59
HETATM   59  O   UNK N   1      19.108  14.862   9.784  0.00  0.00    -0.307 OA
HETATM   60  H   UNK N   1      18.486  14.141   9.599  0.00  0.00     0.222 HD
ENDBRANCH  55  59
ENDBRANCH  54  55
ENDBRANCH  50  54
BRANCH  51  61
HETATM   61  O   UNK N   1      23.720  13.137   8.141  0.00  0.00    -0.388 OA
HETATM   62  H   UNK N   1      23.430  12.216   8.233  0.00  0.00     0.210 HD
ENDBRANCH  51  61
BRANCH  52  63
HETATM   63  N   UNK N   1      25.307  14.052   5.583  0.00  0.00    -0.297 N 
HETATM   64  C   UNK N   1      26.412  13.316   5.862  0.00  0.00     0.188 A 
HETATM   65  N   UNK N   1      26.979  12.823   4.722  0.00  0.00    -0.346 N 
HETATM   66  C   UNK N   1      26.193  13.285   3.733  0.00  0.00     0.122 A 
HETATM   67  H   UNK N   1      27.780  12.257   4.643  0.00  0.00     0.167 HD
HETATM   68  C   UNK N   1      26.310  13.144   2.359  0.00  0.00     0.131 A 
HETATM   69  C   UNK N   1      25.183  14.007   4.249  0.00  0.00     0.142 A 
HETATM   70  N   UNK N   1      25.378  13.755   1.568  0.00  0.00    -0.337 N 
HETATM   71  C   UNK N   1      24.351  14.481   2.119  0.00  0.00     0.183 A 
ATOM     72  HN  UNK N   1      25.446  13.670   0.553  1.00  0.00     0.168 HD
HETATM   73  N   UNK N   1      24.251  14.613   3.477  0.00  0.00    -0.336 N 
ATOM     74  HN  UNK N   1      23.494  15.154   3.896  1.00  0.00     0.168 HD
BRANCH  68  75
HETATM   75  N   UNK N   1      27.373  12.419   1.785  0.00  0.00    -0.383 N 
HETATM   76  H   UNK N   1      27.813  11.605   2.121  0.00  0.00     0.157 HD
HETATM   77  H   UNK N   1      27.722  12.773   0.935  0.00  0.00     0.157 HD
ENDBRANCH  68  75
ENDBRANCH  52  63
ENDBRANCH  48  49
ENDBRANCH  47  48
ENDBRANCH  43  47
ENDBRANCH  42  43
ENDBRANCH   2  42
TORSDOF 41
ENDMDL
MODEL 5
REMARK VINA RESULT:      -5.6      2.437      4.951
REMARK WARNING: 32 MAX_TORS EXCEEDED!!!
REMARK  41 active torsions:
REMARK  status: ('A' for Active; 'I' for Inactive)
REMARK    1  A    between atoms: C_5  and  C_4 
REMARK    2  A    between atoms: C_6  and  C_5 
REMARK    3  A    between atoms: C_8  and  C_6 
REMARK    4  A    between atoms: C_9  and  C_7 
REMARK    5  A    between atoms: C_10  and  C_7 
REMARK    6  A    between atoms: C_21  and  C_8 
REMARK    7  A    between atoms: C_21  and  C_9 
REMARK    8  A    between atoms: C_24  and  C_10 
REMARK    9  A    between atoms: C_12  and  C_11 
REMARK   10  A    between atoms: C_23  and  C_11 
REMARK   11  A    between atoms: N_37  and  C_12 
REMARK   12  A    between atoms: C_15  and  C_13 
REMARK   13  A    between atoms: N_35  and  C_13 
REMARK   14  A    between atoms: C_16  and  C_14 
REMARK   15  A    between atoms: S_66  and  C_15 
REMARK   16  A    between atoms: S_65  and  C_16 
REMARK   17  A    between atoms: C_22  and  C_17 
REMARK   18  A    between atoms: O_57  and  C_17 
REMARK   19  A    between atoms: C_33  and  C_18 
REMARK   20  A    between atoms: O_58  and  C_18 
REMARK   21  A    between atoms: C_21  and  S_65 
REMARK   22  A    between atoms: N_35  and  C_23 
REMARK   23  A    between atoms: O_45  and  C_23 
REMARK   24  A    between atoms: S_66  and  C_24 
REMARK   25  A    between atoms: C_26  and  O_47 
REMARK   26  A    between atoms: C_27  and  O_60 
REMARK   27  A    between atoms: C_31  and  C_28 
REMARK   28  A    between atoms: C_33  and  C_28 
REMARK   29  A    between atoms: N_34  and  C_29 
REMARK   30  A    between atoms: N_37  and  C_31 
REMARK   31  A    between atoms: C_31  and  O_49 
REMARK   32  A    between atoms: C_32  and  N_43 
REMARK   33  A    between atoms: P_62  and  O_51 
REMARK   34  A    between atoms: P_62  and  O_52 
REMARK   35  A    between atoms: P_63  and  O_53 
REMARK   36  A    between atoms: P_64  and  O_56 
REMARK   37  A    between atoms: P_63  and  O_57 
REMARK   38  A    between atoms: P_64  and  O_58 
REMARK   39  A    between atoms: P_62  and  O_60 
REMARK   40  A    between atoms: P_63  and  O_61 
REMARK   41  A    between atoms: P_64  and  O_61 
ROOT
HETATM    1  O   UNK N   1      28.798  12.603   2.983  0.00  0.00    -0.631 OA
HETATM    2  P   UNK N   1      29.673  13.868   3.206  0.00  0.00     0.401 P 
ENDROOT
BRANCH   2   3
HETATM    3  O   UNK N   1      30.081  13.798   4.887  0.00  0.00    -0.307 OA
HETATM    4  H   UNK N   1      29.997  13.121   5.578  0.00  0.00     0.222 HD
ENDBRANCH   2   3
BRANCH   2   5
HETATM    5  O   UNK N   1      28.715  15.307   2.861  0.00  0.00    -0.296 OA
BRANCH   5   6
HETATM    6  C   UNK N   1      27.632  15.380   3.758  0.00  0.00     0.197 C 
BRANCH   6   7
HETATM    7  C   UNK N   1      26.241  15.250   3.090  0.00  0.00     0.040 C 
HETATM    8  C   UNK N   1      26.348  15.280   1.572  0.00  0.00     0.025 C 
HETATM    9  C   UNK N   1      25.714  13.869   3.457  0.00  0.00     0.025 C 
BRANCH   7  10
HETATM   10  C   UNK N   1      25.316  16.357   3.583  0.00  0.00     0.184 C 
HETATM   11  O   UNK N   1      24.114  16.253   3.421  0.00  0.00    -0.292 OA
BRANCH  10  12
HETATM   12  C   UNK N   1      25.827  17.650   4.150  0.00  0.00     0.285 C 
BRANCH  12  13
HETATM   13  N   UNK N   1      25.618  18.783   3.240  0.00  0.00    -0.391 N 
HETATM   14  H   UNK N   1      26.050  18.889   2.322  0.00  0.00     0.156 HD
BRANCH  13  15
HETATM   15  C   UNK N   1      24.691  19.739   3.860  0.00  0.00     0.124 C 
BRANCH  15  16
HETATM   16  C   UNK N   1      23.359  19.923   3.099  0.00  0.00     0.103 C 
BRANCH  16  17
HETATM   17  C   UNK N   1      22.143  19.443   3.826  0.00  0.00     0.112 C 
BRANCH  17  18
HETATM   18  N   UNK N   1      22.174  18.316   4.441  0.00  0.00    -0.374 N 
ATOM     19  HN  UNK N   1      23.002  18.064   4.981  1.00  0.00     0.161 HD
BRANCH  18  20
HETATM   20  C   UNK N   1      21.068  17.404   4.385  0.00  0.00     0.132 C 
BRANCH  20  21
HETATM   21  C   UNK N   1      21.249  16.431   5.524  0.00  0.00     0.102 C 
BRANCH  21  22
HETATM   22  S   UNK N   1      19.657  16.060   6.356  0.00  0.00    -0.086 SA
BRANCH  22  23
HETATM   23  C   UNK N   1      20.354  16.904   7.729  0.00  0.00     0.208 C 
HETATM   24  O   UNK N   1      20.374  18.126   7.743  0.00  0.00    -0.281 OA
BRANCH  23  25
HETATM   25  C   UNK N   1      20.663  16.127   8.928  0.00  0.00     0.058 C 
BRANCH  25  26
HETATM   26  C   UNK N   1      20.222  14.877   9.022  0.00  0.00    -0.021 C 
BRANCH  26  27
HETATM   27  C   UNK N   1      21.043  13.801   9.627  0.00  0.00     0.042 C 
BRANCH  27  28
HETATM   28  C   UNK N   1      22.211  13.522   8.688  0.00  0.00     0.051 C 
BRANCH  28  29
HETATM   29  C   UNK N   1      21.780  12.546   7.612  0.00  0.00     0.015 C 
BRANCH  29  30
HETATM   30  C   UNK N   1      22.531  12.823   6.320  0.00  0.00     0.001 C 
BRANCH  30  31
HETATM   31  C   UNK N   1      23.379  11.627   5.946  0.00  0.00    -0.000 C 
BRANCH  31  32
HETATM   32  C   UNK N   1      22.915  10.407   6.720  0.00  0.00    -0.005 C 
HETATM   33  C   UNK N   1      24.054   9.419   6.825  0.00  0.00     0.005 C 
ENDBRANCH  31  32
ENDBRANCH  30  31
ENDBRANCH  29  30
ENDBRANCH  28  29
BRANCH  28  34
HETATM   34  S   UNK N   1      23.715  12.899   9.575  0.00  0.00    -0.157 SA
BRANCH  34  35
HETATM   35  C   UNK N   1      22.895  11.649  10.632  0.00  0.00     0.143 C 
BRANCH  35  36
HETATM   36  C   UNK N   1      23.221  11.863  12.080  0.00  0.00     0.241 C 
HETATM   37  O   UNK N   1      24.375  11.997  12.459  0.00  0.00    -0.306 OA
ENDBRANCH  35  36
ENDBRANCH  34  35
ENDBRANCH  28  34
ENDBRANCH  27  28
ENDBRANCH  26  27
ENDBRANCH  25  26
ENDBRANCH  23  25
ENDBRANCH  22  23
ENDBRANCH  21  22
ENDBRANCH  20  21
ENDBRANCH  18  20
ENDBRANCH  17  18
BRANCH  17  38
HETATM   38  O   UNK N   1      21.007  20.171   3.775  0.00  0.00    -0.350 OA
HETATM   39  H   UNK N   1      20.533  20.492   4.516  0.00  0.00     0.219 HD
ENDBRANCH  17  38
ENDBRANCH  16  17
ENDBRANCH  15  16
ENDBRANCH  13  15
ENDBRANCH  12  13
BRANCH  12  40
HETATM   40  O   UNK N   1      25.176  17.877   5.362  0.00  0.00    -0.370 OA
HETATM   41  H   UNK N   1      25.693  18.024   6.169  0.00  0.00     0.212 HD
ENDBRANCH  12  40
ENDBRANCH  10  12
ENDBRANCH   7  10
ENDBRANCH   6   7
ENDBRANCH   5   6
ENDBRANCH   2   5
BRANCH   2  42
HETATM   42  O   UNK N   1      31.154  13.587   2.320  0.00  0.00    -0.195 OA
BRANCH  42  43
HETATM   43  P   UNK N   1      32.547  14.284   3.115  0.00  0.00     0.401 P 
HETATM   44  O   UNK N   1      32.085  15.739   3.392  0.00  0.00    -0.631 OA
BRANCH  43  45
HETATM   45  O   UNK N   1      33.867  14.513   2.008  0.00  0.00    -0.307 OA
HETATM   46  H   UNK N   1      34.719  14.959   2.137  0.00  0.00     0.222 HD
ENDBRANCH  43  45
BRANCH  43  47
HETATM   47  O   UNK N   1      33.061  13.719   4.685  0.00  0.00    -0.294 OA
BRANCH  47  48
HETATM   48  C   UNK N   1      33.518  14.787   5.476  0.00  0.00     0.215 C 
BRANCH  48  49
HETATM   49  C   UNK N   1      33.149  14.445   6.932  0.00  0.00     0.180 C 
HETATM   50  C   UNK N   1      33.661  15.279   8.134  0.00  0.00     0.197 C 
HETATM   51  C   UNK N   1      32.765  16.444   8.071  0.00  0.00     0.199 C 
HETATM   52  C   UNK N   1      31.445  15.721   7.801  0.00  0.00     0.262 C 
HETATM   53  O   UNK N   1      31.731  14.570   7.005  0.00  0.00    -0.353 OA
BRANCH  50  54
HETATM   54  O   UNK N   1      35.003  15.597   8.451  0.00  0.00    -0.286 OA
BRANCH  54  55
HETATM   55  P   UNK N   1      35.486  15.430  10.114  0.00  0.00     0.391 P 
HETATM   56  O   UNK N   1      34.878  14.182  10.805  0.00  0.00    -0.632 OA
BRANCH  55  57
HETATM   57  O   UNK N   1      37.212  15.301  10.241  0.00  0.00    -0.307 OA
HETATM   58  H   UNK N   1      37.768  15.225  11.032  0.00  0.00     0.222 HD
ENDBRANCH  55  57
BRANCH  55  59
HETATM   59  O   UNK N   1      34.982  16.848  10.929  0.00  0.00    -0.307 OA
HETATM   60  H   UNK N   1      35.253  17.727  10.620  0.00  0.00     0.222 HD
ENDBRANCH  55  59
ENDBRANCH  54  55
ENDBRANCH  50  54
BRANCH  51  61
HETATM   61  O   UNK N   1      32.758  17.151   9.277  0.00  0.00    -0.388 OA
HETATM   62  H   UNK N   1      33.549  17.189   9.838  0.00  0.00     0.210 HD
ENDBRANCH  51  61
BRANCH  52  63
HETATM   63  N   UNK N   1      30.518  16.634   7.129  0.00  0.00    -0.297 N 
HETATM   64  C   UNK N   1      30.510  16.987   5.819  0.00  0.00     0.188 A 
HETATM   65  N   UNK N   1      29.548  17.922   5.564  0.00  0.00    -0.346 N 
HETATM   66  C   UNK N   1      28.970  18.139   6.759  0.00  0.00     0.122 A 
HETATM   67  H   UNK N   1      29.327  18.341   4.702  0.00  0.00     0.167 HD
HETATM   68  C   UNK N   1      27.965  19.024   7.119  0.00  0.00     0.131 A 
HETATM   69  C   UNK N   1      29.540  17.357   7.693  0.00  0.00     0.142 A 
HETATM   70  N   UNK N   1      27.584  19.066   8.431  0.00  0.00    -0.337 N 
HETATM   71  C   UNK N   1      28.176  18.251   9.364  0.00  0.00     0.183 A 
ATOM     72  HN  UNK N   1      26.850  19.712   8.721  1.00  0.00     0.168 HD
HETATM   73  N   UNK N   1      29.169  17.386   8.994  0.00  0.00    -0.336 N 
ATOM     74  HN  UNK N   1      29.618  16.779   9.681  1.00  0.00     0.168 HD
BRANCH  68  75
HETATM   75  N   UNK N   1      27.369  19.878   6.171  0.00  0.00    -0.383 N 
HETATM   76  H   UNK N   1      27.710  20.727   5.807  0.00  0.00     0.157 HD
HETATM   77  H   UNK N   1      26.493  19.588   5.827  0.00  0.00     0.157 HD
ENDBRANCH  68  75
ENDBRANCH  52  63
ENDBRANCH  48  49
ENDBRANCH  47  48
ENDBRANCH  43  47
ENDBRANCH  42  43
ENDBRANCH   2  42
TORSDOF 41
ENDMDL
MODEL 6
REMARK VINA RESULT:      -5.6      3.665      7.020
REMARK WARNING: 32 MAX_TORS EXCEEDED!!!
REMARK  41 active torsions:
REMARK  status: ('A' for Active; 'I' for Inactive)
REMARK    1  A    between atoms: C_5  and  C_4 
REMARK    2  A    between atoms: C_6  and  C_5 
REMARK    3  A    between atoms: C_8  and  C_6 
REMARK    4  A    between atoms: C_9  and  C_7 
REMARK    5  A    between atoms: C_10  and  C_7 
REMARK    6  A    between atoms: C_21  and  C_8 
REMARK    7  A    between atoms: C_21  and  C_9 
REMARK    8  A    between atoms: C_24  and  C_10 
REMARK    9  A    between atoms: C_12  and  C_11 
REMARK   10  A    between atoms: C_23  and  C_11 
REMARK   11  A    between atoms: N_37  and  C_12 
REMARK   12  A    between atoms: C_15  and  C_13 
REMARK   13  A    between atoms: N_35  and  C_13 
REMARK   14  A    between atoms: C_16  and  C_14 
REMARK   15  A    between atoms: S_66  and  C_15 
REMARK   16  A    between atoms: S_65  and  C_16 
REMARK   17  A    between atoms: C_22  and  C_17 
REMARK   18  A    between atoms: O_57  and  C_17 
REMARK   19  A    between atoms: C_33  and  C_18 
REMARK   20  A    between atoms: O_58  and  C_18 
REMARK   21  A    between atoms: C_21  and  S_65 
REMARK   22  A    between atoms: N_35  and  C_23 
REMARK   23  A    between atoms: O_45  and  C_23 
REMARK   24  A    between atoms: S_66  and  C_24 
REMARK   25  A    between atoms: C_26  and  O_47 
REMARK   26  A    between atoms: C_27  and  O_60 
REMARK   27  A    between atoms: C_31  and  C_28 
REMARK   28  A    between atoms: C_33  and  C_28 
REMARK   29  A    between atoms: N_34  and  C_29 
REMARK   30  A    between atoms: N_37  and  C_31 
REMARK   31  A    between atoms: C_31  and  O_49 
REMARK   32  A    between atoms: C_32  and  N_43 
REMARK   33  A    between atoms: P_62  and  O_51 
REMARK   34  A    between atoms: P_62  and  O_52 
REMARK   35  A    between atoms: P_63  and  O_53 
REMARK   36  A    between atoms: P_64  and  O_56 
REMARK   37  A    between atoms: P_63  and  O_57 
REMARK   38  A    between atoms: P_64  and  O_58 
REMARK   39  A    between atoms: P_62  and  O_60 
REMARK   40  A    between atoms: P_63  and  O_61 
REMARK   41  A    between atoms: P_64  and  O_61 
ROOT
HETATM    1  O   UNK N   1      31.006  13.140   3.876  0.00  0.00    -0.631 OA
HETATM    2  P   UNK N   1      30.259  14.224   4.702  0.00  0.00     0.401 P 
ENDROOT
BRANCH   2   3
HETATM    3  O   UNK N   1      31.094  14.236   6.219  0.00  0.00    -0.307 OA
HETATM    4  H   UNK N   1      31.643  13.594   6.696  0.00  0.00     0.222 HD
ENDBRANCH   2   3
BRANCH   2   5
HETATM    5  O   UNK N   1      28.581  13.732   4.924  0.00  0.00    -0.296 OA
BRANCH   5   6
HETATM    6  C   UNK N   1      27.763  14.410   4.001  0.00  0.00     0.197 C 
BRANCH   6   7
HETATM    7  C   UNK N   1      26.324  14.683   4.502  0.00  0.00     0.040 C 
HETATM    8  C   UNK N   1      25.310  13.795   3.794  0.00  0.00     0.025 C 
HETATM    9  C   UNK N   1      26.295  14.281   5.971  0.00  0.00     0.025 C 
BRANCH   7  10
HETATM   10  C   UNK N   1      25.970  16.154   4.312  0.00  0.00     0.184 C 
HETATM   11  O   UNK N   1      25.874  16.609   3.187  0.00  0.00    -0.292 OA
BRANCH  10  12
HETATM   12  C   UNK N   1      25.862  17.118   5.459  0.00  0.00     0.285 C 
BRANCH  12  13
HETATM   13  N   UNK N   1      26.684  18.318   5.262  0.00  0.00    -0.391 N 
HETATM   14  H   UNK N   1      27.702  18.331   5.194  0.00  0.00     0.156 HD
BRANCH  13  15
HETATM   15  C   UNK N   1      25.810  19.496   5.178  0.00  0.00     0.124 C 
BRANCH  15  16
HETATM   16  C   UNK N   1      25.679  20.095   3.759  0.00  0.00     0.103 C 
BRANCH  16  17
HETATM   17  C   UNK N   1      24.277  20.232   3.257  0.00  0.00     0.112 C 
BRANCH  17  18
HETATM   18  N   UNK N   1      23.384  19.386   3.626  0.00  0.00    -0.374 N 
ATOM     19  HN  UNK N   1      23.631  18.659   4.297  1.00  0.00     0.161 HD
BRANCH  18  20
HETATM   20  C   UNK N   1      22.046  19.441   3.113  0.00  0.00     0.132 C 
BRANCH  20  21
HETATM   21  C   UNK N   1      21.122  19.176   4.276  0.00  0.00     0.102 C 
BRANCH  21  22
HETATM   22  S   UNK N   1      20.802  17.382   4.491  0.00  0.00    -0.086 SA
BRANCH  22  23
HETATM   23  C   UNK N   1      21.197  17.670   6.177  0.00  0.00     0.208 C 
HETATM   24  O   UNK N   1      21.900  18.623   6.481  0.00  0.00    -0.281 OA
BRANCH  23  25
HETATM   25  C   UNK N   1      20.468  16.911   7.192  0.00  0.00     0.058 C 
BRANCH  25  26
HETATM   26  C   UNK N   1      21.054  15.864   7.763  0.00  0.00    -0.021 C 
BRANCH  26  27
HETATM   27  C   UNK N   1      21.513  14.697   6.970  0.00  0.00     0.042 C 
BRANCH  27  28
HETATM   28  C   UNK N   1      21.066  13.435   7.698  0.00  0.00     0.051 C 
BRANCH  28  29
HETATM   29  C   UNK N   1      21.283  13.599   9.188  0.00  0.00     0.015 C 
BRANCH  29  30
HETATM   30  C   UNK N   1      22.329  12.611   9.679  0.00  0.00     0.001 C 
BRANCH  30  31
HETATM   31  C   UNK N   1      22.093  12.287  11.138  0.00  0.00    -0.000 C 
BRANCH  31  32
HETATM   32  C   UNK N   1      23.405  11.910  11.800  0.00  0.00    -0.005 C 
HETATM   33  C   UNK N   1      23.232  11.928  13.301  0.00  0.00     0.005 C 
ENDBRANCH  31  32
ENDBRANCH  30  31
ENDBRANCH  29  30
ENDBRANCH  28  29
BRANCH  28  34
HETATM   34  S   UNK N   1      21.913  11.907   7.076  0.00  0.00    -0.157 SA
BRANCH  34  35
HETATM   35  C   UNK N   1      21.488  12.076   5.303  0.00  0.00     0.143 C 
BRANCH  35  36
HETATM   36  C   UNK N   1      22.055  10.946   4.498  0.00  0.00     0.241 C 
HETATM   37  O   UNK N   1      22.964  11.127   3.701  0.00  0.00    -0.306 OA
ENDBRANCH  35  36
ENDBRANCH  34  35
ENDBRANCH  28  34
ENDBRANCH  27  28
ENDBRANCH  26  27
ENDBRANCH  25  26
ENDBRANCH  23  25
ENDBRANCH  22  23
ENDBRANCH  21  22
ENDBRANCH  20  21
ENDBRANCH  18  20
ENDBRANCH  17  18
BRANCH  17  38
HETATM   38  O   UNK N   1      23.980  21.209   2.373  0.00  0.00    -0.350 OA
HETATM   39  H   UNK N   1      24.085  22.127   2.522  0.00  0.00     0.219 HD
ENDBRANCH  17  38
ENDBRANCH  16  17
ENDBRANCH  15  16
ENDBRANCH  13  15
ENDBRANCH  12  13
BRANCH  12  40
HETATM   40  O   UNK N   1      24.521  17.468   5.603  0.00  0.00    -0.370 OA
HETATM   41  H   UNK N   1      23.832  16.790   5.526  0.00  0.00     0.212 HD
ENDBRANCH  12  40
ENDBRANCH  10  12
ENDBRANCH   7  10
ENDBRANCH   6   7
ENDBRANCH   5   6
ENDBRANCH   2   5
BRANCH   2  42
HETATM   42  O   UNK N   1      30.613  15.749   3.923  0.00  0.00    -0.195 OA
BRANCH  42  43
HETATM   43  P   UNK N   1      32.262  16.265   4.190  0.00  0.00     0.401 P 
HETATM   44  O   UNK N   1      32.671  16.820   2.800  0.00  0.00    -0.631 OA
BRANCH  43  45
HETATM   45  O   UNK N   1      33.333  14.911   4.384  0.00  0.00    -0.307 OA
HETATM   46  H   UNK N   1      33.373  14.242   5.086  0.00  0.00     0.222 HD
ENDBRANCH  43  45
BRANCH  43  47
HETATM   47  O   UNK N   1      32.626  17.586   5.273  0.00  0.00    -0.294 OA
BRANCH  47  48
HETATM   48  C   UNK N   1      33.622  17.217   6.194  0.00  0.00     0.215 C 
BRANCH  48  49
HETATM   49  C   UNK N   1      33.176  17.759   7.565  0.00  0.00     0.180 C 
HETATM   50  C   UNK N   1      32.010  17.125   8.366  0.00  0.00     0.197 C 
HETATM   51  C   UNK N   1      32.669  15.939   8.934  0.00  0.00     0.199 C 
HETATM   52  C   UNK N   1      33.992  16.577   9.361  0.00  0.00     0.262 C 
HETATM   53  O   UNK N   1      34.305  17.606   8.421  0.00  0.00    -0.353 OA
BRANCH  50  54
HETATM   54  O   UNK N   1      30.686  16.895   7.921  0.00  0.00    -0.286 OA
BRANCH  54  55
HETATM   55  P   UNK N   1      29.432  17.875   8.624  0.00  0.00     0.391 P 
HETATM   56  O   UNK N   1      28.691  18.756   7.585  0.00  0.00    -0.632 OA
BRANCH  55  57
HETATM   57  O   UNK N   1      28.241  16.882   9.403  0.00  0.00    -0.307 OA
HETATM   58  H   UNK N   1      27.305  16.756   9.185  0.00  0.00     0.222 HD
ENDBRANCH  55  57
BRANCH  55  59
HETATM   59  O   UNK N   1      30.172  18.869   9.805  0.00  0.00    -0.307 OA
HETATM   60  H   UNK N   1      30.183  19.835   9.712  0.00  0.00     0.222 HD
ENDBRANCH  55  59
ENDBRANCH  54  55
ENDBRANCH  50  54
BRANCH  51  61
HETATM   61  O   UNK N   1      31.947  15.417  10.010  0.00  0.00    -0.388 OA
HETATM   62  H   UNK N   1      32.182  15.641  10.925  0.00  0.00     0.210 HD
ENDBRANCH  51  61
BRANCH  52  63
HETATM   63  N   UNK N   1      35.033  15.549   9.414  0.00  0.00    -0.297 N 
HETATM   64  C   UNK N   1      35.543  14.834   8.380  0.00  0.00     0.188 A 
HETATM   65  N   UNK N   1      36.446  13.907   8.816  0.00  0.00    -0.346 N 
HETATM   66  C   UNK N   1      36.470  14.069  10.151  0.00  0.00     0.122 A 
HETATM   67  H   UNK N   1      36.962  13.267   8.276  0.00  0.00     0.167 HD
HETATM   68  C   UNK N   1      37.168  13.370  11.124  0.00  0.00     0.131 A 
HETATM   69  C   UNK N   1      35.637  15.063  10.508  0.00  0.00     0.142 A 
HETATM   70  N   UNK N   1      36.980  13.724  12.430  0.00  0.00    -0.337 N 
HETATM   71  C   UNK N   1      36.129  14.748  12.769  0.00  0.00     0.183 A 
ATOM     72  HN  UNK N   1      37.479  13.221  13.165  1.00  0.00     0.168 HD
HETATM   73  N   UNK N   1      35.446  15.426  11.798  0.00  0.00    -0.336 N 
ATOM     74  HN  UNK N   1      34.808  16.186  12.039  1.00  0.00     0.168 HD
BRANCH  68  75
HETATM   75  N   UNK N   1      38.025  12.305  10.786  0.00  0.00    -0.383 N 
HETATM   76  H   UNK N   1      38.802  11.960  11.283  0.00  0.00     0.157 HD
HETATM   77  H   UNK N   1      37.821  11.844   9.940  0.00  0.00     0.157 HD
ENDBRANCH  68  75
ENDBRANCH  52  63
ENDBRANCH  48  49
ENDBRANCH  47  48
ENDBRANCH  43  47
ENDBRANCH  42  43
ENDBRANCH   2  42
TORSDOF 41
ENDMDL
MODEL 7
REMARK VINA RESULT:      -5.6      6.155      9.354
REMARK WARNING: 32 MAX_TORS EXCEEDED!!!
REMARK  41 active torsions:
REMARK  status: ('A' for Active; 'I' for Inactive)
REMARK    1  A    between atoms: C_5  and  C_4 
REMARK    2  A    between atoms: C_6  and  C_5 
REMARK    3  A    between atoms: C_8  and  C_6 
REMARK    4  A    between atoms: C_9  and  C_7 
REMARK    5  A    between atoms: C_10  and  C_7 
REMARK    6  A    between atoms: C_21  and  C_8 
REMARK    7  A    between atoms: C_21  and  C_9 
REMARK    8  A    between atoms: C_24  and  C_10 
REMARK    9  A    between atoms: C_12  and  C_11 
REMARK   10  A    between atoms: C_23  and  C_11 
REMARK   11  A    between atoms: N_37  and  C_12 
REMARK   12  A    between atoms: C_15  and  C_13 
REMARK   13  A    between atoms: N_35  and  C_13 
REMARK   14  A    between atoms: C_16  and  C_14 
REMARK   15  A    between atoms: S_66  and  C_15 
REMARK   16  A    between atoms: S_65  and  C_16 
REMARK   17  A    between atoms: C_22  and  C_17 
REMARK   18  A    between atoms: O_57  and  C_17 
REMARK   19  A    between atoms: C_33  and  C_18 
REMARK   20  A    between atoms: O_58  and  C_18 
REMARK   21  A    between atoms: C_21  and  S_65 
REMARK   22  A    between atoms: N_35  and  C_23 
REMARK   23  A    between atoms: O_45  and  C_23 
REMARK   24  A    between atoms: S_66  and  C_24 
REMARK   25  A    between atoms: C_26  and  O_47 
REMARK   26  A    between atoms: C_27  and  O_60 
REMARK   27  A    between atoms: C_31  and  C_28 
REMARK   28  A    between atoms: C_33  and  C_28 
REMARK   29  A    between atoms: N_34  and  C_29 
REMARK   30  A    between atoms: N_37  and  C_31 
REMARK   31  A    between atoms: C_31  and  O_49 
REMARK   32  A    between atoms: C_32  and  N_43 
REMARK   33  A    between atoms: P_62  and  O_51 
REMARK   34  A    between atoms: P_62  and  O_52 
REMARK   35  A    between atoms: P_63  and  O_53 
REMARK   36  A    between atoms: P_64  and  O_56 
REMARK   37  A    between atoms: P_63  and  O_57 
REMARK   38  A    between atoms: P_64  and  O_58 
REMARK   39  A    between atoms: P_62  and  O_60 
REMARK   40  A    between atoms: P_63  and  O_61 
REMARK   41  A    between atoms: P_64  and  O_61 
ROOT
HETATM    1  O   UNK N   1      33.789  19.036   8.318  0.00  0.00    -0.631 OA
HETATM    2  P   UNK N   1      33.940  17.503   8.524  0.00  0.00     0.401 P 
ENDROOT
BRANCH   2   3
HETATM    3  O   UNK N   1      34.733  16.967   7.081  0.00  0.00    -0.307 OA
HETATM    4  H   UNK N   1      35.196  16.154   6.824  0.00  0.00     0.222 HD
ENDBRANCH   2   3
BRANCH   2   5
HETATM    5  O   UNK N   1      32.340  16.774   8.658  0.00  0.00    -0.296 OA
BRANCH   5   6
HETATM    6  C   UNK N   1      31.414  17.524   7.909  0.00  0.00     0.197 C 
BRANCH   6   7
HETATM    7  C   UNK N   1      30.853  16.789   6.667  0.00  0.00     0.040 C 
HETATM    8  C   UNK N   1      31.471  17.319   5.380  0.00  0.00     0.025 C 
HETATM    9  C   UNK N   1      31.293  15.336   6.789  0.00  0.00     0.025 C 
BRANCH   7  10
HETATM   10  C   UNK N   1      29.334  16.917   6.622  0.00  0.00     0.184 C 
HETATM   11  O   UNK N   1      28.706  16.328   5.761  0.00  0.00    -0.292 OA
BRANCH  10  12
HETATM   12  C   UNK N   1      28.571  17.851   7.516  0.00  0.00     0.285 C 
BRANCH  12  13
HETATM   13  N   UNK N   1      27.480  18.536   6.812  0.00  0.00    -0.391 N 
HETATM   14  H   UNK N   1      26.645  18.085   6.439  0.00  0.00     0.156 HD
BRANCH  13  15
HETATM   15  C   UNK N   1      27.780  19.971   6.731  0.00  0.00     0.124 C 
BRANCH  15  16
HETATM   16  C   UNK N   1      27.439  20.620   5.371  0.00  0.00     0.103 C 
BRANCH  16  17
HETATM   17  C   UNK N   1      27.422  19.680   4.208  0.00  0.00     0.112 C 
BRANCH  17  18
HETATM   18  N   UNK N   1      26.377  19.607   3.464  0.00  0.00    -0.374 N 
ATOM     19  HN  UNK N   1      26.427  19.100   2.581  1.00  0.00     0.161 HD
BRANCH  18  20
HETATM   20  C   UNK N   1      25.142  20.226   3.850  0.00  0.00     0.132 C 
BRANCH  20  21
HETATM   21  C   UNK N   1      24.180  19.110   4.176  0.00  0.00     0.102 C 
BRANCH  21  22
HETATM   22  S   UNK N   1      22.512  19.429   3.481  0.00  0.00    -0.086 SA
BRANCH  22  23
HETATM   23  C   UNK N   1      22.113  17.840   4.112  0.00  0.00     0.208 C 
HETATM   24  O   UNK N   1      21.784  16.948   3.343  0.00  0.00    -0.281 OA
BRANCH  23  25
HETATM   25  C   UNK N   1      22.428  17.558   5.511  0.00  0.00     0.058 C 
BRANCH  25  26
HETATM   26  C   UNK N   1      22.062  16.393   6.035  0.00  0.00    -0.021 C 
BRANCH  26  27
HETATM   27  C   UNK N   1      23.044  15.473   6.659  0.00  0.00     0.042 C 
BRANCH  27  28
HETATM   28  C   UNK N   1      23.613  14.585   5.559  0.00  0.00     0.051 C 
BRANCH  28  29
HETATM   29  C   UNK N   1      23.417  13.128   5.925  0.00  0.00     0.015 C 
BRANCH  29  30
HETATM   30  C   UNK N   1      23.141  12.992   7.414  0.00  0.00     0.001 C 
BRANCH  30  31
HETATM   31  C   UNK N   1      24.312  12.323   8.099  0.00  0.00    -0.000 C 
BRANCH  31  32
HETATM   32  C   UNK N   1      24.525  12.938   9.470  0.00  0.00    -0.005 C 
HETATM   33  C   UNK N   1      23.311  12.674  10.331  0.00  0.00     0.005 C 
ENDBRANCH  31  32
ENDBRANCH  30  31
ENDBRANCH  29  30
ENDBRANCH  28  29
BRANCH  28  34
HETATM   34  S   UNK N   1      25.399  14.936   5.203  0.00  0.00    -0.157 SA
BRANCH  34  35
HETATM   35  C   UNK N   1      25.189  15.717   3.561  0.00  0.00     0.143 C 
BRANCH  35  36
HETATM   36  C   UNK N   1      26.513  15.948   2.894  0.00  0.00     0.241 C 
HETATM   37  O   UNK N   1      27.349  15.061   2.819  0.00  0.00    -0.306 OA
ENDBRANCH  35  36
ENDBRANCH  34  35
ENDBRANCH  28  34
ENDBRANCH  27  28
ENDBRANCH  26  27
ENDBRANCH  25  26
ENDBRANCH  23  25
ENDBRANCH  22  23
ENDBRANCH  21  22
ENDBRANCH  20  21
ENDBRANCH  18  20
ENDBRANCH  17  18
BRANCH  17  38
HETATM   38  O   UNK N   1      28.481  18.872   3.990  0.00  0.00    -0.350 OA
HETATM   39  H   UNK N   1      29.324  18.960   4.389  0.00  0.00     0.219 HD
ENDBRANCH  17  38
ENDBRANCH  16  17
ENDBRANCH  15  16
ENDBRANCH  13  15
ENDBRANCH  12  13
BRANCH  12  40
HETATM   40  O   UNK N   1      28.068  17.110   8.585  0.00  0.00    -0.370 OA
HETATM   41  H   UNK N   1      28.632  16.920   9.350  0.00  0.00     0.212 HD
ENDBRANCH  12  40
ENDBRANCH  10  12
ENDBRANCH   7  10
ENDBRANCH   6   7
ENDBRANCH   5   6
ENDBRANCH   2   5
BRANCH   2  42
HETATM   42  O   UNK N   1      35.087  17.305   9.828  0.00  0.00    -0.195 OA
BRANCH  42  43
HETATM   43  P   UNK N   1      35.042  15.699  10.517  0.00  0.00     0.401 P 
HETATM   44  O   UNK N   1      35.273  14.794   9.278  0.00  0.00    -0.631 OA
BRANCH  43  45
HETATM   45  O   UNK N   1      33.434  15.259  11.010  0.00  0.00    -0.307 OA
HETATM   46  H   UNK N   1      32.576  15.588  10.702  0.00  0.00     0.222 HD
ENDBRANCH  43  45
BRANCH  43  47
HETATM   47  O   UNK N   1      36.270  15.168  11.639  0.00  0.00    -0.294 OA
BRANCH  47  48
HETATM   48  C   UNK N   1      35.688  14.605  12.789  0.00  0.00     0.215 C 
BRANCH  48  49
HETATM   49  C   UNK N   1      35.571  13.092  12.526  0.00  0.00     0.180 C 
HETATM   50  C   UNK N   1      36.794  12.142  12.600  0.00  0.00     0.197 C 
HETATM   51  C   UNK N   1      36.940  11.983  14.056  0.00  0.00     0.199 C 
HETATM   52  C   UNK N   1      35.468  11.806  14.430  0.00  0.00     0.262 C 
HETATM   53  O   UNK N   1      34.689  12.598  13.530  0.00  0.00    -0.353 OA
BRANCH  50  54
HETATM   54  O   UNK N   1      38.021  12.263  11.905  0.00  0.00    -0.286 OA
BRANCH  54  55
HETATM   55  P   UNK N   1      37.940  12.395  10.172  0.00  0.00     0.391 P 
HETATM   56  O   UNK N   1      38.974  11.500   9.442  0.00  0.00    -0.632 OA
BRANCH  55  57
HETATM   57  O   UNK N   1      36.367  11.944   9.596  0.00  0.00    -0.307 OA
HETATM   58  H   UNK N   1      36.107  11.575   8.738  0.00  0.00     0.222 HD
ENDBRANCH  55  57
BRANCH  55  59
HETATM   59  O   UNK N   1      38.216  14.038   9.779  0.00  0.00    -0.307 OA
HETATM   60  H   UNK N   1      37.701  14.481   9.087  0.00  0.00     0.222 HD
ENDBRANCH  55  59
ENDBRANCH  54  55
ENDBRANCH  50  54
BRANCH  51  61
HETATM   61  O   UNK N   1      37.718  10.866  14.374  0.00  0.00    -0.388 OA
HETATM   62  H   UNK N   1      38.039  10.268  13.682  0.00  0.00     0.210 HD
ENDBRANCH  51  61
BRANCH  52  63
HETATM   63  N   UNK N   1      35.268  12.207  15.824  0.00  0.00    -0.297 N 
HETATM   64  C   UNK N   1      34.802  13.395  16.284  0.00  0.00     0.188 A 
HETATM   65  N   UNK N   1      34.823  13.440  17.648  0.00  0.00    -0.346 N 
HETATM   66  C   UNK N   1      35.324  12.246  18.013  0.00  0.00     0.122 A 
HETATM   67  H   UNK N   1      34.536  14.178  18.232  0.00  0.00     0.167 HD
HETATM   68  C   UNK N   1      35.619  11.748  19.273  0.00  0.00     0.131 A 
HETATM   69  C   UNK N   1      35.575  11.501  16.922  0.00  0.00     0.142 A 
HETATM   70  N   UNK N   1      36.161  10.496  19.358  0.00  0.00    -0.337 N 
HETATM   71  C   UNK N   1      36.401   9.752  18.229  0.00  0.00     0.183 A 
ATOM     72  HN  UNK N   1      36.391  10.109  20.274  1.00  0.00     0.168 HD
HETATM   73  N   UNK N   1      36.108  10.259  16.994  0.00  0.00    -0.336 N 
ATOM     74  HN  UNK N   1      36.287   9.716  16.148  1.00  0.00     0.168 HD
BRANCH  68  75
HETATM   75  N   UNK N   1      35.395  12.513  20.434  0.00  0.00    -0.383 N 
HETATM   76  H   UNK N   1      34.888  12.271  21.242  0.00  0.00     0.157 HD
HETATM   77  H   UNK N   1      35.800  13.411  20.437  0.00  0.00     0.157 HD
ENDBRANCH  68  75
ENDBRANCH  52  63
ENDBRANCH  48  49
ENDBRANCH  47  48
ENDBRANCH  43  47
ENDBRANCH  42  43
ENDBRANCH   2  42
TORSDOF 41
ENDMDL
MODEL 8
REMARK VINA RESULT:      -5.4      4.629      8.027
REMARK WARNING: 32 MAX_TORS EXCEEDED!!!
REMARK  41 active torsions:
REMARK  status: ('A' for Active; 'I' for Inactive)
REMARK    1  A    between atoms: C_5  and  C_4 
REMARK    2  A    between atoms: C_6  and  C_5 
REMARK    3  A    between atoms: C_8  and  C_6 
REMARK    4  A    between atoms: C_9  and  C_7 
REMARK    5  A    between atoms: C_10  and  C_7 
REMARK    6  A    between atoms: C_21  and  C_8 
REMARK    7  A    between atoms: C_21  and  C_9 
REMARK    8  A    between atoms: C_24  and  C_10 
REMARK    9  A    between atoms: C_12  and  C_11 
REMARK   10  A    between atoms: C_23  and  C_11 
REMARK   11  A    between atoms: N_37  and  C_12 
REMARK   12  A    between atoms: C_15  and  C_13 
REMARK   13  A    between atoms: N_35  and  C_13 
REMARK   14  A    between atoms: C_16  and  C_14 
REMARK   15  A    between atoms: S_66  and  C_15 
REMARK   16  A    between atoms: S_65  and  C_16 
REMARK   17  A    between atoms: C_22  and  C_17 
REMARK   18  A    between atoms: O_57  and  C_17 
REMARK   19  A    between atoms: C_33  and  C_18 
REMARK   20  A    between atoms: O_58  and  C_18 
REMARK   21  A    between atoms: C_21  and  S_65 
REMARK   22  A    between atoms: N_35  and  C_23 
REMARK   23  A    between atoms: O_45  and  C_23 
REMARK   24  A    between atoms: S_66  and  C_24 
REMARK   25  A    between atoms: C_26  and  O_47 
REMARK   26  A    between atoms: C_27  and  O_60 
REMARK   27  A    between atoms: C_31  and  C_28 
REMARK   28  A    between atoms: C_33  and  C_28 
REMARK   29  A    between atoms: N_34  and  C_29 
REMARK   30  A    between atoms: N_37  and  C_31 
REMARK   31  A    between atoms: C_31  and  O_49 
REMARK   32  A    between atoms: C_32  and  N_43 
REMARK   33  A    between atoms: P_62  and  O_51 
REMARK   34  A    between atoms: P_62  and  O_52 
REMARK   35  A    between atoms: P_63  and  O_53 
REMARK   36  A    between atoms: P_64  and  O_56 
REMARK   37  A    between atoms: P_63  and  O_57 
REMARK   38  A    between atoms: P_64  and  O_58 
REMARK   39  A    between atoms: P_62  and  O_60 
REMARK   40  A    between atoms: P_63  and  O_61 
REMARK   41  A    between atoms: P_64  and  O_61 
ROOT
HETATM    1  O   UNK N   1      20.447  12.830   3.892  0.00  0.00    -0.631 OA
HETATM    2  P   UNK N   1      20.502  14.207   3.172  0.00  0.00     0.401 P 
ENDROOT
BRANCH   2   3
HETATM    3  O   UNK N   1      18.847  14.715   3.122  0.00  0.00    -0.307 OA
HETATM    4  H   UNK N   1      18.249  15.009   2.417  0.00  0.00     0.222 HD
ENDBRANCH   2   3
BRANCH   2   5
HETATM    5  O   UNK N   1      21.130  13.985   1.540  0.00  0.00    -0.296 OA
BRANCH   5   6
HETATM    6  C   UNK N   1      22.423  14.534   1.452  0.00  0.00     0.197 C 
BRANCH   6   7
HETATM    7  C   UNK N   1      23.546  13.491   1.232  0.00  0.00     0.040 C 
HETATM    8  C   UNK N   1      23.150  12.125   1.774  0.00  0.00     0.025 C 
HETATM    9  C   UNK N   1      23.695  13.329  -0.275  0.00  0.00     0.025 C 
BRANCH   7  10
HETATM   10  C   UNK N   1      24.841  13.968   1.879  0.00  0.00     0.184 C 
HETATM   11  O   UNK N   1      25.312  15.044   1.561  0.00  0.00    -0.292 OA
BRANCH  10  12
HETATM   12  C   UNK N   1      25.650  13.108   2.807  0.00  0.00     0.285 C 
BRANCH  12  13
HETATM   13  N   UNK N   1      26.870  12.593   2.174  0.00  0.00    -0.391 N 
HETATM   14  H   UNK N   1      27.700  13.145   1.956  0.00  0.00     0.156 HD
BRANCH  13  15
HETATM   15  C   UNK N   1      26.709  11.158   1.905  0.00  0.00     0.124 C 
BRANCH  15  16
HETATM   16  C   UNK N   1      27.632  10.242   2.741  0.00  0.00     0.103 C 
BRANCH  16  17
HETATM   17  C   UNK N   1      27.451  10.345   4.222  0.00  0.00     0.112 C 
BRANCH  17  18
HETATM   18  N   UNK N   1      26.942   9.361   4.871  0.00  0.00    -0.374 N 
ATOM     19  HN  UNK N   1      27.510   8.870   5.560  1.00  0.00     0.161 HD
BRANCH  18  20
HETATM   20  C   UNK N   1      25.590   8.938   4.645  0.00  0.00     0.132 C 
BRANCH  20  21
HETATM   21  C   UNK N   1      24.754   9.551   5.741  0.00  0.00     0.102 C 
BRANCH  21  22
HETATM   22  S   UNK N   1      23.301  10.444   5.064  0.00  0.00    -0.086 SA
BRANCH  22  23
HETATM   23  C   UNK N   1      23.966  11.841   5.894  0.00  0.00     0.208 C 
HETATM   24  O   UNK N   1      25.166  11.896   6.123  0.00  0.00    -0.281 OA
BRANCH  23  25
HETATM   25  C   UNK N   1      23.107  13.012   6.064  0.00  0.00     0.058 C 
BRANCH  25  26
HETATM   26  C   UNK N   1      22.520  13.220   7.238  0.00  0.00    -0.021 C 
BRANCH  26  27
HETATM   27  C   UNK N   1      22.143  14.580   7.692  0.00  0.00     0.042 C 
BRANCH  27  28
HETATM   28  C   UNK N   1      21.408  14.440   9.020  0.00  0.00     0.051 C 
BRANCH  28  29
HETATM   29  C   UNK N   1      21.230  12.973   9.354  0.00  0.00     0.015 C 
BRANCH  29  30
HETATM   30  C   UNK N   1      21.168  12.779  10.861  0.00  0.00     0.001 C 
BRANCH  30  31
HETATM   31  C   UNK N   1      22.267  11.841  11.309  0.00  0.00    -0.000 C 
BRANCH  31  32
HETATM   32  C   UNK N   1      23.335  11.751  10.235  0.00  0.00    -0.005 C 
HETATM   33  C   UNK N   1      24.663  12.184  10.813  0.00  0.00     0.005 C 
ENDBRANCH  31  32
ENDBRANCH  30  31
ENDBRANCH  29  30
ENDBRANCH  28  29
BRANCH  28  34
HETATM   34  S   UNK N   1      19.775  15.318   9.036  0.00  0.00    -0.157 SA
BRANCH  34  35
HETATM   35  C   UNK N   1      20.358  16.962   8.482  0.00  0.00     0.143 C 
BRANCH  35  36
HETATM   36  C   UNK N   1      19.525  18.062   9.070  0.00  0.00     0.241 C 
HETATM   37  O   UNK N   1      20.033  18.977   9.700  0.00  0.00    -0.306 OA
ENDBRANCH  35  36
ENDBRANCH  34  35
ENDBRANCH  28  34
ENDBRANCH  27  28
ENDBRANCH  26  27
ENDBRANCH  25  26
ENDBRANCH  23  25
ENDBRANCH  22  23
ENDBRANCH  21  22
ENDBRANCH  20  21
ENDBRANCH  18  20
ENDBRANCH  17  18
BRANCH  17  38
HETATM   38  O   UNK N   1      27.769  11.497   4.852  0.00  0.00    -0.350 OA
HETATM   39  H   UNK N   1      28.606  11.703   5.219  0.00  0.00     0.219 HD
ENDBRANCH  17  38
ENDBRANCH  16  17
ENDBRANCH  15  16
ENDBRANCH  13  15
ENDBRANCH  12  13
BRANCH  12  40
HETATM   40  O   UNK N   1      25.972  13.868   3.930  0.00  0.00    -0.370 OA
HETATM   41  H   UNK N   1      26.849  13.789   4.334  0.00  0.00     0.212 HD
ENDBRANCH  12  40
ENDBRANCH  10  12
ENDBRANCH   7  10
ENDBRANCH   6   7
ENDBRANCH   5   6
ENDBRANCH   2   5
BRANCH   2  42
HETATM   42  O   UNK N   1      21.325  15.290   4.271  0.00  0.00    -0.195 OA
BRANCH  42  43
HETATM   43  P   UNK N   1      20.479  16.807   4.468  0.00  0.00     0.401 P 
HETATM   44  O   UNK N   1      19.254  16.401   5.331  0.00  0.00    -0.631 OA
BRANCH  43  45
HETATM   45  O   UNK N   1      19.738  17.324   2.983  0.00  0.00    -0.307 OA
HETATM   46  H   UNK N   1      19.324  18.171   2.754  0.00  0.00     0.222 HD
ENDBRANCH  43  45
BRANCH  43  47
HETATM   47  O   UNK N   1      21.190  18.121   5.371  0.00  0.00    -0.294 OA
BRANCH  47  48
HETATM   48  C   UNK N   1      22.594  18.062   5.319  0.00  0.00     0.215 C 
BRANCH  48  49
HETATM   49  C   UNK N   1      22.981  18.131   3.829  0.00  0.00     0.180 C 
HETATM   50  C   UNK N   1      23.393  19.458   3.142  0.00  0.00     0.197 C 
HETATM   51  C   UNK N   1      24.778  19.604   3.615  0.00  0.00     0.199 C 
HETATM   52  C   UNK N   1      25.247  18.159   3.442  0.00  0.00     0.262 C 
HETATM   53  O   UNK N   1      24.133  17.302   3.697  0.00  0.00    -0.353 OA
BRANCH  50  54
HETATM   54  O   UNK N   1      22.663  20.670   3.104  0.00  0.00    -0.286 OA
BRANCH  54  55
HETATM   55  P   UNK N   1      21.079  20.619   2.385  0.00  0.00     0.391 P 
HETATM   56  O   UNK N   1      19.943  20.424   3.422  0.00  0.00    -0.632 OA
BRANCH  55  57
HETATM   57  O   UNK N   1      20.749  22.091   1.527  0.00  0.00    -0.307 OA
HETATM   58  H   UNK N   1      20.835  23.010   1.822  0.00  0.00     0.222 HD
ENDBRANCH  55  57
BRANCH  55  59
HETATM   59  O   UNK N   1      21.075  19.322   1.268  0.00  0.00    -0.307 OA
HETATM   60  H   UNK N   1      21.902  18.908   0.977  0.00  0.00     0.222 HD
ENDBRANCH  55  59
ENDBRANCH  54  55
ENDBRANCH  50  54
BRANCH  51  61
HETATM   61  O   UNK N   1      25.497  20.506   2.827  0.00  0.00    -0.388 OA
HETATM   62  H   UNK N   1      25.226  20.698   1.915  0.00  0.00     0.210 HD
ENDBRANCH  51  61
BRANCH  52  63
HETATM   63  N   UNK N   1      26.360  17.895   4.356  0.00  0.00    -0.297 N 
HETATM   64  C   UNK N   1      26.603  18.483   5.555  0.00  0.00     0.188 A 
HETATM   65  N   UNK N   1      27.778  18.043   6.094  0.00  0.00    -0.346 N 
HETATM   66  C   UNK N   1      28.255  17.172   5.186  0.00  0.00     0.122 A 
HETATM   67  H   UNK N   1      28.183  18.303   6.952  0.00  0.00     0.167 HD
HETATM   68  C   UNK N   1      29.440  16.453   5.174  0.00  0.00     0.131 A 
HETATM   69  C   UNK N   1      27.399  17.071   4.153  0.00  0.00     0.142 A 
HETATM   70  N   UNK N   1      29.696  15.654   4.095  0.00  0.00    -0.337 N 
HETATM   71  C   UNK N   1      28.802  15.562   3.056  0.00  0.00     0.183 A 
ATOM     72  HN  UNK N   1      30.564  15.119   4.060  1.00  0.00     0.168 HD
HETATM   73  N   UNK N   1      27.639  16.281   3.082  0.00  0.00    -0.336 N 
ATOM     74  HN  UNK N   1      26.970  16.223   2.313  1.00  0.00     0.168 HD
BRANCH  68  75
HETATM   75  N   UNK N   1      30.371  16.559   6.225  0.00  0.00    -0.383 N 
HETATM   76  H   UNK N   1      31.332  16.767   6.176  0.00  0.00     0.157 HD
HETATM   77  H   UNK N   1      30.013  16.404   7.129  0.00  0.00     0.157 HD
ENDBRANCH  68  75
ENDBRANCH  52  63
ENDBRANCH  48  49
ENDBRANCH  47  48
ENDBRANCH  43  47
ENDBRANCH  42  43
ENDBRANCH   2  42
TORSDOF 41
ENDMDL
MODEL 9
REMARK VINA RESULT:      -5.4      3.616      6.980
REMARK WARNING: 32 MAX_TORS EXCEEDED!!!
REMARK  41 active torsions:
REMARK  status: ('A' for Active; 'I' for Inactive)
REMARK    1  A    between atoms: C_5  and  C_4 
REMARK    2  A    between atoms: C_6  and  C_5 
REMARK    3  A    between atoms: C_8  and  C_6 
REMARK    4  A    between atoms: C_9  and  C_7 
REMARK    5  A    between atoms: C_10  and  C_7 
REMARK    6  A    between atoms: C_21  and  C_8 
REMARK    7  A    between atoms: C_21  and  C_9 
REMARK    8  A    between atoms: C_24  and  C_10 
REMARK    9  A    between atoms: C_12  and  C_11 
REMARK   10  A    between atoms: C_23  and  C_11 
REMARK   11  A    between atoms: N_37  and  C_12 
REMARK   12  A    between atoms: C_15  and  C_13 
REMARK   13  A    between atoms: N_35  and  C_13 
REMARK   14  A    between atoms: C_16  and  C_14 
REMARK   15  A    between atoms: S_66  and  C_15 
REMARK   16  A    between atoms: S_65  and  C_16 
REMARK   17  A    between atoms: C_22  and  C_17 
REMARK   18  A    between atoms: O_57  and  C_17 
REMARK   19  A    between atoms: C_33  and  C_18 
REMARK   20  A    between atoms: O_58  and  C_18 
REMARK   21  A    between atoms: C_21  and  S_65 
REMARK   22  A    between atoms: N_35  and  C_23 
REMARK   23  A    between atoms: O_45  and  C_23 
REMARK   24  A    between atoms: S_66  and  C_24 
REMARK   25  A    between atoms: C_26  and  O_47 
REMARK   26  A    between atoms: C_27  and  O_60 
REMARK   27  A    between atoms: C_31  and  C_28 
REMARK   28  A    between atoms: C_33  and  C_28 
REMARK   29  A    between atoms: N_34  and  C_29 
REMARK   30  A    between atoms: N_37  and  C_31 
REMARK   31  A    between atoms: C_31  and  O_49 
REMARK   32  A    between atoms: C_32  and  N_43 
REMARK   33  A    between atoms: P_62  and  O_51 
REMARK   34  A    between atoms: P_62  and  O_52 
REMARK   35  A    between atoms: P_63  and  O_53 
REMARK   36  A    between atoms: P_64  and  O_56 
REMARK   37  A    between atoms: P_63  and  O_57 
REMARK   38  A    between atoms: P_64  and  O_58 
REMARK   39  A    between atoms: P_62  and  O_60 
REMARK   40  A    between atoms: P_63  and  O_61 
REMARK   41  A    between atoms: P_64  and  O_61 
ROOT
HETATM    1  O   UNK N   1      30.290  13.641   2.323  0.00  0.00    -0.631 OA
HETATM    2  P   UNK N   1      29.616  14.770   3.150  0.00  0.00     0.401 P 
ENDROOT
BRANCH   2   3
HETATM    3  O   UNK N   1      29.799  14.246   4.791  0.00  0.00    -0.307 OA
HETATM    4  H   UNK N   1      30.469  14.390   5.478  0.00  0.00     0.222 HD
ENDBRANCH   2   3
BRANCH   2   5
HETATM    5  O   UNK N   1      27.910  14.869   2.720  0.00  0.00    -0.296 OA
BRANCH   5   6
HETATM    6  C   UNK N   1      27.296  15.903   3.452  0.00  0.00     0.197 C 
BRANCH   6   7
HETATM    7  C   UNK N   1      25.906  15.538   4.029  0.00  0.00     0.040 C 
HETATM    8  C   UNK N   1      25.222  14.465   3.195  0.00  0.00     0.025 C 
HETATM    9  C   UNK N   1      26.156  14.923   5.400  0.00  0.00     0.025 C 
BRANCH   7  10
HETATM   10  C   UNK N   1      25.032  16.783   4.121  0.00  0.00     0.184 C 
HETATM   11  O   UNK N   1      23.982  16.827   3.505  0.00  0.00    -0.292 OA
BRANCH  10  12
HETATM   12  C   UNK N   1      25.466  18.030   4.836  0.00  0.00     0.285 C 
BRANCH  12  13
HETATM   13  N   UNK N   1      25.989  19.050   3.919  0.00  0.00    -0.391 N 
HETATM   14  H   UNK N   1      26.808  18.940   3.320  0.00  0.00     0.156 HD
BRANCH  13  15
HETATM   15  C   UNK N   1      25.151  20.253   4.000  0.00  0.00     0.124 C 
BRANCH  15  16
HETATM   16  C   UNK N   1      24.304  20.529   2.737  0.00  0.00     0.103 C 
BRANCH  16  17
HETATM   17  C   UNK N   1      22.823  20.476   2.944  0.00  0.00     0.112 C 
BRANCH  17  18
HETATM   18  N   UNK N   1      22.273  19.380   3.326  0.00  0.00    -0.374 N 
ATOM     19  HN  UNK N   1      22.708  18.491   3.081  1.00  0.00     0.161 HD
BRANCH  18  20
HETATM   20  C   UNK N   1      21.059  19.380   4.089  0.00  0.00     0.132 C 
BRANCH  20  21
HETATM   21  C   UNK N   1      20.891  17.985   4.640  0.00  0.00     0.102 C 
BRANCH  21  22
HETATM   22  S   UNK N   1      20.464  16.784   3.321  0.00  0.00    -0.086 SA
BRANCH  22  23
HETATM   23  C   UNK N   1      19.911  15.766   4.640  0.00  0.00     0.208 C 
HETATM   24  O   UNK N   1      18.830  15.989   5.166  0.00  0.00    -0.281 OA
BRANCH  23  25
HETATM   25  C   UNK N   1      20.641  14.528   4.905  0.00  0.00     0.058 C 
BRANCH  25  26
HETATM   26  C   UNK N   1      21.924  14.593   5.246  0.00  0.00    -0.021 C 
BRANCH  26  27
HETATM   27  C   UNK N   1      22.354  15.080   6.579  0.00  0.00     0.042 C 
BRANCH  27  28
HETATM   28  C   UNK N   1      22.317  13.898   7.541  0.00  0.00     0.051 C 
BRANCH  28  29
HETATM   29  C   UNK N   1      21.393  14.211   8.701  0.00  0.00     0.015 C 
BRANCH  29  30
HETATM   30  C   UNK N   1      20.887  15.641   8.599  0.00  0.00     0.001 C 
BRANCH  30  31
HETATM   31  C   UNK N   1      19.461  15.723   9.097  0.00  0.00    -0.000 C 
BRANCH  31  32
HETATM   32  C   UNK N   1      18.806  16.987   8.573  0.00  0.00    -0.005 C 
HETATM   33  C   UNK N   1      19.536  18.192   9.120  0.00  0.00     0.005 C 
ENDBRANCH  31  32
ENDBRANCH  30  31
ENDBRANCH  29  30
ENDBRANCH  28  29
BRANCH  28  34
HETATM   34  S   UNK N   1      23.999  13.415   8.155  0.00  0.00    -0.157 SA
BRANCH  34  35
HETATM   35  C   UNK N   1      24.198  11.876   7.185  0.00  0.00     0.143 C 
BRANCH  35  36
HETATM   36  C   UNK N   1      23.633  10.695   7.916  0.00  0.00     0.241 C 
HETATM   37  O   UNK N   1      23.841   9.552   7.536  0.00  0.00    -0.306 OA
ENDBRANCH  35  36
ENDBRANCH  34  35
ENDBRANCH  28  34
ENDBRANCH  27  28
ENDBRANCH  26  27
ENDBRANCH  25  26
ENDBRANCH  23  25
ENDBRANCH  22  23
ENDBRANCH  21  22
ENDBRANCH  20  21
ENDBRANCH  18  20
ENDBRANCH  17  18
BRANCH  17  38
HETATM   38  O   UNK N   1      22.074  21.564   2.666  0.00  0.00    -0.350 OA
HETATM   39  H   UNK N   1      21.948  22.298   3.235  0.00  0.00     0.219 HD
ENDBRANCH  17  38
ENDBRANCH  16  17
ENDBRANCH  15  16
ENDBRANCH  13  15
ENDBRANCH  12  13
BRANCH  12  40
HETATM   40  O   UNK N   1      24.369  18.528   5.538  0.00  0.00    -0.370 OA
HETATM   41  H   UNK N   1      24.489  18.893   6.429  0.00  0.00     0.212 HD
ENDBRANCH  12  40
ENDBRANCH  10  12
ENDBRANCH   7  10
ENDBRANCH   6   7
ENDBRANCH   5   6
ENDBRANCH   2   5
BRANCH   2  42
HETATM   42  O   UNK N   1      30.635  16.178   2.959  0.00  0.00    -0.195 OA
BRANCH  42  43
HETATM   43  P   UNK N   1      31.965  16.197   4.094  0.00  0.00     0.401 P 
HETATM   44  O   UNK N   1      32.939  17.222   3.455  0.00  0.00    -0.631 OA
BRANCH  43  45
HETATM   45  O   UNK N   1      32.879  14.720   4.033  0.00  0.00    -0.307 OA
HETATM   46  H   UNK N   1      33.836  14.581   3.968  0.00  0.00     0.222 HD
ENDBRANCH  43  45
BRANCH  43  47
HETATM   47  O   UNK N   1      31.751  16.803   5.718  0.00  0.00    -0.294 OA
BRANCH  47  48
HETATM   48  C   UNK N   1      32.972  17.259   6.246  0.00  0.00     0.215 C 
BRANCH  48  49
HETATM   49  C   UNK N   1      32.668  17.786   7.661  0.00  0.00     0.180 C 
HETATM   50  C   UNK N   1      31.632  17.107   8.593  0.00  0.00     0.197 C 
HETATM   51  C   UNK N   1      32.403  15.952   9.077  0.00  0.00     0.199 C 
HETATM   52  C   UNK N   1      33.739  16.645   9.346  0.00  0.00     0.262 C 
HETATM   53  O   UNK N   1      33.896  17.684   8.377  0.00  0.00    -0.353 OA
BRANCH  50  54
HETATM   54  O   UNK N   1      30.276  16.821   8.308  0.00  0.00    -0.286 OA
BRANCH  54  55
HETATM   55  P   UNK N   1      29.078  17.853   9.033  0.00  0.00     0.391 P 
HETATM   56  O   UNK N   1      27.841  17.080   9.557  0.00  0.00    -0.632 OA
BRANCH  55  57
HETATM   57  O   UNK N   1      29.750  18.724  10.375  0.00  0.00    -0.307 OA
HETATM   58  H   UNK N   1      29.306  19.105  11.148  0.00  0.00     0.222 HD
ENDBRANCH  55  57
BRANCH  55  59
HETATM   59  O   UNK N   1      28.595  18.979   7.838  0.00  0.00    -0.307 OA
HETATM   60  H   UNK N   1      27.701  19.356   7.837  0.00  0.00     0.222 HD
ENDBRANCH  55  59
ENDBRANCH  54  55
ENDBRANCH  50  54
BRANCH  51  61
HETATM   61  O   UNK N   1      31.836  15.403  10.231  0.00  0.00    -0.388 OA
HETATM   62  H   UNK N   1      32.250  14.650  10.681  0.00  0.00     0.210 HD
ENDBRANCH  51  61
BRANCH  52  63
HETATM   63  N   UNK N   1      34.822  15.662   9.274  0.00  0.00    -0.297 N 
HETATM   64  C   UNK N   1      35.276  15.012   8.174  0.00  0.00     0.188 A 
HETATM   65  N   UNK N   1      36.247  14.108   8.498  0.00  0.00    -0.346 N 
HETATM   66  C   UNK N   1      36.370  14.217   9.833  0.00  0.00     0.122 A 
HETATM   67  H   UNK N   1      36.744  13.513   7.893  0.00  0.00     0.167 HD
HETATM   68  C   UNK N   1      37.170  13.510  10.718  0.00  0.00     0.131 A 
HETATM   69  C   UNK N   1      35.529  15.159  10.296  0.00  0.00     0.142 A 
HETATM   70  N   UNK N   1      37.071  13.803  12.049  0.00  0.00    -0.337 N 
HETATM   71  C   UNK N   1      36.210  14.775  12.496  0.00  0.00     0.183 A 
ATOM     72  HN  UNK N   1      37.646  13.293  12.720  1.00  0.00     0.168 HD
HETATM   73  N   UNK N   1      35.425  15.462  11.611  0.00  0.00    -0.336 N 
ATOM     74  HN  UNK N   1      34.779  16.182  11.934  1.00  0.00     0.168 HD
BRANCH  68  75
HETATM   75  N   UNK N   1      38.039  12.497  10.269  0.00  0.00    -0.383 N 
HETATM   76  H   UNK N   1      38.407  11.735  10.772  0.00  0.00     0.157 HD
HETATM   77  H   UNK N   1      38.317  12.560   9.327  0.00  0.00     0.157 HD
ENDBRANCH  68  75
ENDBRANCH  52  63
ENDBRANCH  48  49
ENDBRANCH  47  48
ENDBRANCH  43  47
ENDBRANCH  42  43
ENDBRANCH   2  42
TORSDOF 41
ENDMDL
