MODEL 1
REMARK VINA RESULT:      -6.3      0.000      0.000
REMARK  7 active torsions:
REMARK  status: ('A' for Active; 'I' for Inactive)
REMARK    1  A    between atoms: C_2  and  C_3 
REMARK    2  A    between atoms: C_3  and  N_4 
REMARK       I    between atoms: N_4  and  C_6 
REMARK    3  A    between atoms: C_8  and  C_6 
REMARK    4  A    between atoms: C_10  and  C_23 
REMARK    5  A    between atoms: C_12  and  N_13 
REMARK       I    between atoms: N_13  and  C_14 
REMARK       I    between atoms: C_14  and  N_15 
REMARK    6  A    between atoms: C_18  and  N_19 
REMARK       I    between atoms: N_19  and  C_20 
REMARK    7  A    between atoms: C_23  and  O_24 
ROOT
HETATM    1  C   UNK N   1      28.059  24.092  -4.401  0.00  0.00     0.246 C 
HETATM    2  O   UNK N   1      28.731  23.391  -3.418  0.00  0.00    -0.328 OA
HETATM    3  C   UNK N   1      29.833  22.656  -3.724  0.00  0.00     0.141 C 
HETATM    4  C   UNK N   1      30.062  22.280  -4.993  0.00  0.00     0.044 C 
HETATM    5  C   UNK N   1      29.097  22.622  -6.108  0.00  0.00     0.151 C 
HETATM    6  C   UNK N   1      27.739  23.155  -5.585  0.00  0.00     0.150 C 
ENDROOT
BRANCH   5   7
HETATM    7  N   UNK N   1      28.915  21.479  -6.971  0.00  0.00    -0.217 N 
HETATM    8  C   UNK N   1      29.104  21.549  -8.378  0.00  0.00     0.665 C 
HETATM    9  N   UNK N   1      29.485  22.763  -8.997  0.00  0.00    -0.235 N 
HETATM   10  N   UNK N   1      28.913  20.508  -9.097  0.00  0.00    -0.235 N 
HETATM   11  H   UNK N   1      29.387  23.232  -9.856  0.00  0.00     0.174 HD
HETATM   12  H   UNK N   1      30.013  23.310  -8.371  0.00  0.00     0.174 HD
HETATM   13  H   UNK N   1      28.310  19.759  -8.881  0.00  0.00     0.174 HD
ATOM     14  HN  UNK N   1      29.431  20.447  -9.973  1.00  0.00     0.174 HD
HETATM   15  H   UNK N   1      28.651  20.618  -6.571  0.00  0.00     0.178 HD
ENDBRANCH   5   7
BRANCH   6  16
HETATM   16  N   UNK N   1      27.054  23.892  -6.631  0.00  0.00    -0.351 N 
HETATM   17  C   UNK N   1      25.912  23.484  -7.244  0.00  0.00     0.214 C 
HETATM   18  C   UNK N   1      25.228  22.208  -6.876  0.00  0.00     0.117 C 
HETATM   19  O   UNK N   1      25.416  24.190  -8.107  0.00  0.00    -0.274 OA
HETATM   20  H   UNK N   1      27.446  24.748  -6.918  0.00  0.00     0.163 HD
ENDBRANCH   6  16
BRANCH   3  21
HETATM   21  C   UNK N   1      30.798  22.310  -2.661  0.00  0.00     0.200 C 
HETATM   22  O   UNK N   1      30.822  22.941  -1.615  0.00  0.00    -0.645 OA
BRANCH  21  23
HETATM   23  O   UNK N   1      31.630  21.265  -2.826  0.00  0.00    -0.771 OA
HETATM   24  H   UNK N   1      32.252  21.223  -3.526  0.00  0.00     0.167 HD
ENDBRANCH  21  23
ENDBRANCH   3  21
BRANCH   1  25
HETATM   25  C   UNK N   1      26.950  24.972  -3.844  0.00  0.00     0.251 C 
HETATM   26  N   UNK N   1      27.099  26.335  -3.773  0.00  0.00    -0.354 N 
HETATM   27  C   UNK N   1      28.355  26.965  -4.110  0.00  0.00     0.152 C 
HETATM   28  O   UNK N   1      25.881  24.463  -3.529  0.00  0.00    -0.270 OA
BRANCH  26  29
HETATM   29  C   UNK N   1      25.982  27.205  -3.477  0.00  0.00     0.125 C 
BRANCH  29  30
HETATM   30  C   UNK N   1      25.546  28.044  -4.661  0.00  0.00     0.015 C 
HETATM   31  C   UNK N   1      24.782  27.148  -5.615  0.00  0.00     0.006 C 
ENDBRANCH  29  30
ENDBRANCH  26  29
ENDBRANCH   1  25
TORSDOF 7
ENDMDL
MODEL 2
REMARK VINA RESULT:      -6.2     12.299     15.319
REMARK  7 active torsions:
REMARK  status: ('A' for Active; 'I' for Inactive)
REMARK    1  A    between atoms: C_2  and  C_3 
REMARK    2  A    between atoms: C_3  and  N_4 
REMARK       I    between atoms: N_4  and  C_6 
REMARK    3  A    between atoms: C_8  and  C_6 
REMARK    4  A    between atoms: C_10  and  C_23 
REMARK    5  A    between atoms: C_12  and  N_13 
REMARK       I    between atoms: N_13  and  C_14 
REMARK       I    between atoms: C_14  and  N_15 
REMARK    6  A    between atoms: C_18  and  N_19 
REMARK       I    between atoms: N_19  and  C_20 
REMARK    7  A    between atoms: C_23  and  O_24 
ROOT
HETATM    1  C   UNK N   1      30.549  16.785   6.301  0.00  0.00     0.246 C 
HETATM    2  O   UNK N   1      29.455  16.728   7.143  0.00  0.00    -0.328 OA
HETATM    3  C   UNK N   1      29.461  17.392   8.329  0.00  0.00     0.141 C 
HETATM    4  C   UNK N   1      30.624  17.778   8.880  0.00  0.00     0.044 C 
HETATM    5  C   UNK N   1      31.953  17.461   8.231  0.00  0.00     0.151 C 
HETATM    6  C   UNK N   1      31.830  16.425   7.084  0.00  0.00     0.150 C 
ENDROOT
BRANCH   5   7
HETATM    7  N   UNK N   1      32.900  17.026   9.230  0.00  0.00    -0.217 N 
HETATM    8  C   UNK N   1      34.220  17.549   9.308  0.00  0.00     0.665 C 
HETATM    9  N   UNK N   1      34.662  18.533   8.393  0.00  0.00    -0.235 N 
HETATM   10  N   UNK N   1      35.022  17.115  10.205  0.00  0.00    -0.235 N 
HETATM   11  H   UNK N   1      35.492  18.843   7.965  0.00  0.00     0.174 HD
HETATM   12  H   UNK N   1      33.901  19.079   8.089  0.00  0.00     0.174 HD
HETATM   13  H   UNK N   1      34.994  16.223  10.624  0.00  0.00     0.174 HD
ATOM     14  HN  UNK N   1      35.758  17.750  10.516  1.00  0.00     0.174 HD
HETATM   15  H   UNK N   1      32.622  16.343   9.883  0.00  0.00     0.178 HD
ENDBRANCH   5   7
BRANCH   6  16
HETATM   16  N   UNK N   1      32.986  16.506   6.210  0.00  0.00    -0.351 N 
HETATM   17  C   UNK N   1      33.999  15.602   6.182  0.00  0.00     0.214 C 
HETATM   18  C   UNK N   1      34.011  14.397   7.065  0.00  0.00     0.117 C 
HETATM   19  O   UNK N   1      34.919  15.764   5.397  0.00  0.00    -0.274 OA
HETATM   20  H   UNK N   1      33.039  17.271   5.594  0.00  0.00     0.163 HD
ENDBRANCH   6  16
BRANCH   3  21
HETATM   21  C   UNK N   1      28.181  17.723   8.988  0.00  0.00     0.200 C 
HETATM   22  O   UNK N   1      27.637  16.916   9.728  0.00  0.00    -0.645 OA
BRANCH  21  23
HETATM   23  O   UNK N   1      27.629  18.937   8.808  0.00  0.00    -0.771 OA
HETATM   24  H   UNK N   1      28.142  19.702   8.634  0.00  0.00     0.167 HD
ENDBRANCH  21  23
ENDBRANCH   3  21
BRANCH   1  25
HETATM   25  C   UNK N   1      30.296  16.110   4.961  0.00  0.00     0.251 C 
HETATM   26  N   UNK N   1      29.470  16.683   4.027  0.00  0.00    -0.354 N 
HETATM   27  C   UNK N   1      28.720  17.879   4.331  0.00  0.00     0.152 C 
HETATM   28  O   UNK N   1      30.903  15.081   4.684  0.00  0.00    -0.270 OA
BRANCH  26  29
HETATM   29  C   UNK N   1      29.405  16.190   2.668  0.00  0.00     0.125 C 
BRANCH  29  30
HETATM   30  C   UNK N   1      28.194  15.318   2.406  0.00  0.00     0.015 C 
HETATM   31  C   UNK N   1      28.684  13.972   1.907  0.00  0.00     0.006 C 
ENDBRANCH  29  30
ENDBRANCH  26  29
ENDBRANCH   1  25
TORSDOF 7
ENDMDL
MODEL 3
REMARK VINA RESULT:      -5.9     11.036     13.260
REMARK  7 active torsions:
REMARK  status: ('A' for Active; 'I' for Inactive)
REMARK    1  A    between atoms: C_2  and  C_3 
REMARK    2  A    between atoms: C_3  and  N_4 
REMARK       I    between atoms: N_4  and  C_6 
REMARK    3  A    between atoms: C_8  and  C_6 
REMARK    4  A    between atoms: C_10  and  C_23 
REMARK    5  A    between atoms: C_12  and  N_13 
REMARK       I    between atoms: N_13  and  C_14 
REMARK       I    between atoms: C_14  and  N_15 
REMARK    6  A    between atoms: C_18  and  N_19 
REMARK       I    between atoms: N_19  and  C_20 
REMARK    7  A    between atoms: C_23  and  O_24 
ROOT
HETATM    1  C   UNK N   1      29.223  18.144   5.729  0.00  0.00     0.246 C 
HETATM    2  O   UNK N   1      28.627  17.816   6.931  0.00  0.00    -0.328 OA
HETATM    3  C   UNK N   1      29.375  17.670   8.057  0.00  0.00     0.141 C 
HETATM    4  C   UNK N   1      30.698  17.456   7.964  0.00  0.00     0.044 C 
HETATM    5  C   UNK N   1      31.390  17.333   6.624  0.00  0.00     0.151 C 
HETATM    6  C   UNK N   1      30.394  17.179   5.445  0.00  0.00     0.150 C 
ENDROOT
BRANCH   5   7
HETATM    7  N   UNK N   1      32.337  16.244   6.655  0.00  0.00    -0.217 N 
HETATM    8  C   UNK N   1      33.713  16.440   6.953  0.00  0.00     0.665 C 
HETATM    9  N   UNK N   1      34.215  17.733   7.234  0.00  0.00    -0.235 N 
HETATM   10  N   UNK N   1      34.512  15.440   6.951  0.00  0.00    -0.235 N 
HETATM   11  H   UNK N   1      35.048  18.250   7.153  0.00  0.00     0.174 HD
HETATM   12  H   UNK N   1      33.509  18.289   7.637  0.00  0.00     0.174 HD
HETATM   13  H   UNK N   1      34.400  14.612   6.428  0.00  0.00     0.174 HD
ATOM     14  HN  UNK N   1      35.338  15.505   7.545  1.00  0.00     0.174 HD
HETATM   15  H   UNK N   1      32.019  15.331   6.465  0.00  0.00     0.178 HD
ENDBRANCH   5   7
BRANCH   6  16
HETATM   16  N   UNK N   1      31.039  17.534   4.195  0.00  0.00    -0.351 N 
HETATM   17  C   UNK N   1      31.421  16.645   3.242  0.00  0.00     0.214 C 
HETATM   18  C   UNK N   1      31.191  15.175   3.391  0.00  0.00     0.117 C 
HETATM   19  O   UNK N   1      31.948  17.056   2.221  0.00  0.00    -0.274 OA
HETATM   20  H   UNK N   1      31.214  18.487   4.027  0.00  0.00     0.163 HD
ENDBRANCH   6  16
BRANCH   3  21
HETATM   21  C   UNK N   1      28.733  17.791   9.381  0.00  0.00     0.200 C 
HETATM   22  O   UNK N   1      29.324  18.321  10.311  0.00  0.00    -0.645 OA
BRANCH  21  23
HETATM   23  O   UNK N   1      27.473  17.353   9.558  0.00  0.00    -0.771 OA
HETATM   24  H   UNK N   1      26.794  17.900   9.903  0.00  0.00     0.167 HD
ENDBRANCH  21  23
ENDBRANCH   3  21
BRANCH   1  25
HETATM   25  C   UNK N   1      28.212  18.413   4.624  0.00  0.00     0.251 C 
HETATM   26  N   UNK N   1      27.527  19.600   4.568  0.00  0.00    -0.354 N 
HETATM   27  C   UNK N   1      27.651  20.581   5.621  0.00  0.00     0.152 C 
HETATM   28  O   UNK N   1      28.069  17.588   3.728  0.00  0.00    -0.270 OA
BRANCH  26  29
HETATM   29  C   UNK N   1      26.749  19.973   3.406  0.00  0.00     0.125 C 
BRANCH  29  30
HETATM   30  C   UNK N   1      25.272  19.668   3.552  0.00  0.00     0.015 C 
HETATM   31  C   UNK N   1      24.504  20.643   2.681  0.00  0.00     0.006 C 
ENDBRANCH  29  30
ENDBRANCH  26  29
ENDBRANCH   1  25
TORSDOF 7
ENDMDL
MODEL 4
REMARK VINA RESULT:      -5.9     12.503     15.498
REMARK  7 active torsions:
REMARK  status: ('A' for Active; 'I' for Inactive)
REMARK    1  A    between atoms: C_2  and  C_3 
REMARK    2  A    between atoms: C_3  and  N_4 
REMARK       I    between atoms: N_4  and  C_6 
REMARK    3  A    between atoms: C_8  and  C_6 
REMARK    4  A    between atoms: C_10  and  C_23 
REMARK    5  A    between atoms: C_12  and  N_13 
REMARK       I    between atoms: N_13  and  C_14 
REMARK       I    between atoms: C_14  and  N_15 
REMARK    6  A    between atoms: C_18  and  N_19 
REMARK       I    between atoms: N_19  and  C_20 
REMARK    7  A    between atoms: C_23  and  O_24 
ROOT
HETATM    1  C   UNK N   1      31.428  16.938   7.696  0.00  0.00     0.246 C 
HETATM    2  O   UNK N   1      30.391  17.670   8.242  0.00  0.00    -0.328 OA
HETATM    3  C   UNK N   1      29.100  17.362   7.951  0.00  0.00     0.141 C 
HETATM    4  C   UNK N   1      28.810  16.628   6.864  0.00  0.00     0.044 C 
HETATM    5  C   UNK N   1      29.890  16.155   5.915  0.00  0.00     0.151 C 
HETATM    6  C   UNK N   1      31.255  16.846   6.165  0.00  0.00     0.150 C 
ENDROOT
BRANCH   5   7
HETATM    7  N   UNK N   1      29.457  16.328   4.548  0.00  0.00    -0.217 N 
HETATM    8  C   UNK N   1      29.468  15.263   3.606  0.00  0.00     0.665 C 
HETATM    9  N   UNK N   1      29.910  13.972   3.978  0.00  0.00    -0.235 N 
HETATM   10  N   UNK N   1      29.088  15.478   2.402  0.00  0.00    -0.235 N 
HETATM   11  H   UNK N   1      30.334  13.179   3.580  0.00  0.00     0.174 HD
HETATM   12  H   UNK N   1      29.739  13.820   4.936  0.00  0.00     0.174 HD
HETATM   13  H   UNK N   1      29.129  16.341   1.929  0.00  0.00     0.174 HD
ATOM     14  HN  UNK N   1      28.708  14.684   1.887  1.00  0.00     0.174 HD
HETATM   15  H   UNK N   1      29.142  17.214   4.258  0.00  0.00     0.178 HD
ENDBRANCH   5   7
BRANCH   6  16
HETATM   16  N   UNK N   1      32.329  16.058   5.589  0.00  0.00    -0.351 N 
HETATM   17  C   UNK N   1      32.989  16.369   4.444  0.00  0.00     0.214 C 
HETATM   18  C   UNK N   1      32.672  17.598   3.656  0.00  0.00     0.117 C 
HETATM   19  O   UNK N   1      33.885  15.638   4.057  0.00  0.00    -0.274 OA
HETATM   20  H   UNK N   1      32.596  15.237   6.063  0.00  0.00     0.163 HD
ENDBRANCH   6  16
BRANCH   3  21
HETATM   21  C   UNK N   1      28.021  17.802   8.858  0.00  0.00     0.200 C 
HETATM   22  O   UNK N   1      27.600  17.056   9.729  0.00  0.00    -0.645 OA
BRANCH  21  23
HETATM   23  O   UNK N   1      27.526  19.049   8.755  0.00  0.00    -0.771 OA
HETATM   24  H   UNK N   1      26.773  19.250   8.233  0.00  0.00     0.167 HD
ENDBRANCH  21  23
ENDBRANCH   3  21
BRANCH   1  25
HETATM   25  C   UNK N   1      32.787  17.333   8.257  0.00  0.00     0.251 C 
HETATM   26  N   UNK N   1      33.495  16.475   9.060  0.00  0.00    -0.354 N 
HETATM   27  C   UNK N   1      32.923  15.223   9.499  0.00  0.00     0.152 C 
HETATM   28  O   UNK N   1      33.288  18.400   7.919  0.00  0.00    -0.270 OA
BRANCH  26  29
HETATM   29  C   UNK N   1      34.878  16.726   9.403  0.00  0.00     0.125 C 
BRANCH  29  30
HETATM   30  C   UNK N   1      35.205  16.400  10.846  0.00  0.00     0.015 C 
HETATM   31  C   UNK N   1      36.400  15.466  10.858  0.00  0.00     0.006 C 
ENDBRANCH  29  30
ENDBRANCH  26  29
ENDBRANCH   1  25
TORSDOF 7
ENDMDL
MODEL 5
REMARK VINA RESULT:      -5.9     11.628     14.087
REMARK  7 active torsions:
REMARK  status: ('A' for Active; 'I' for Inactive)
REMARK    1  A    between atoms: C_2  and  C_3 
REMARK    2  A    between atoms: C_3  and  N_4 
REMARK       I    between atoms: N_4  and  C_6 
REMARK    3  A    between atoms: C_8  and  C_6 
REMARK    4  A    between atoms: C_10  and  C_23 
REMARK    5  A    between atoms: C_12  and  N_13 
REMARK       I    between atoms: N_13  and  C_14 
REMARK       I    between atoms: C_14  and  N_15 
REMARK    6  A    between atoms: C_18  and  N_19 
REMARK       I    between atoms: N_19  and  C_20 
REMARK    7  A    between atoms: C_23  and  O_24 
ROOT
HETATM    1  C   UNK N   1      29.369  17.357   5.552  0.00  0.00     0.246 C 
HETATM    2  O   UNK N   1      30.358  17.629   4.626  0.00  0.00    -0.328 OA
HETATM    3  C   UNK N   1      31.519  16.923   4.628  0.00  0.00     0.141 C 
HETATM    4  C   UNK N   1      31.893  16.243   5.725  0.00  0.00     0.044 C 
HETATM    5  C   UNK N   1      31.068  16.267   6.993  0.00  0.00     0.151 C 
HETATM    6  C   UNK N   1      29.969  17.360   6.974  0.00  0.00     0.150 C 
ENDROOT
BRANCH   5   7
HETATM    7  N   UNK N   1      31.931  16.411   8.142  0.00  0.00    -0.217 N 
HETATM    8  C   UNK N   1      32.485  15.294   8.823  0.00  0.00     0.665 C 
HETATM    9  N   UNK N   1      32.207  13.975   8.394  0.00  0.00    -0.235 N 
HETATM   10  N   UNK N   1      33.231  15.481   9.846  0.00  0.00    -0.235 N 
HETATM   11  H   UNK N   1      32.129  13.065   8.761  0.00  0.00     0.174 HD
HETATM   12  H   UNK N   1      32.038  13.963   7.424  0.00  0.00     0.174 HD
HETATM   13  H   UNK N   1      33.196  16.255  10.454  0.00  0.00     0.174 HD
ATOM     14  HN  UNK N   1      33.926  14.763  10.050  1.00  0.00     0.174 HD
HETATM   15  H   UNK N   1      32.145  17.317   8.464  0.00  0.00     0.178 HD
ENDBRANCH   5   7
BRANCH   6  16
HETATM   16  N   UNK N   1      28.939  17.052   7.949  0.00  0.00    -0.351 N 
HETATM   17  C   UNK N   1      28.797  17.674   9.148  0.00  0.00     0.214 C 
HETATM   18  C   UNK N   1      29.707  18.777   9.580  0.00  0.00     0.117 C 
HETATM   19  O   UNK N   1      27.886  17.340   9.887  0.00  0.00    -0.274 OA
HETATM   20  H   UNK N   1      28.298  16.339   7.725  0.00  0.00     0.163 HD
ENDBRANCH   6  16
BRANCH   3  21
HETATM   21  C   UNK N   1      32.346  16.872   3.406  0.00  0.00     0.200 C 
HETATM   22  O   UNK N   1      33.475  16.403   3.439  0.00  0.00    -0.645 OA
BRANCH  21  23
HETATM   23  O   UNK N   1      31.841  17.305   2.236  0.00  0.00    -0.771 OA
HETATM   24  H   UNK N   1      31.793  16.759   1.476  0.00  0.00     0.167 HD
ENDBRANCH  21  23
ENDBRANCH   3  21
BRANCH   1  25
HETATM   25  C   UNK N   1      28.090  18.141   5.295  0.00  0.00     0.251 C 
HETATM   26  N   UNK N   1      27.022  17.560   4.660  0.00  0.00    -0.354 N 
HETATM   27  C   UNK N   1      27.118  16.229   4.107  0.00  0.00     0.152 C 
HETATM   28  O   UNK N   1      27.988  19.281   5.733  0.00  0.00    -0.270 OA
BRANCH  26  29
HETATM   29  C   UNK N   1      25.724  18.199   4.620  0.00  0.00     0.125 C 
BRANCH  29  30
HETATM   30  C   UNK N   1      25.417  18.847   3.285  0.00  0.00     0.015 C 
HETATM   31  C   UNK N   1      25.224  20.332   3.517  0.00  0.00     0.006 C 
ENDBRANCH  29  30
ENDBRANCH  26  29
ENDBRANCH   1  25
TORSDOF 7
ENDMDL
MODEL 6
REMARK VINA RESULT:      -5.7     10.633     12.476
REMARK  7 active torsions:
REMARK  status: ('A' for Active; 'I' for Inactive)
REMARK    1  A    between atoms: C_2  and  C_3 
REMARK    2  A    between atoms: C_3  and  N_4 
REMARK       I    between atoms: N_4  and  C_6 
REMARK    3  A    between atoms: C_8  and  C_6 
REMARK    4  A    between atoms: C_10  and  C_23 
REMARK    5  A    between atoms: C_12  and  N_13 
REMARK       I    between atoms: N_13  and  C_14 
REMARK       I    between atoms: C_14  and  N_15 
REMARK    6  A    between atoms: C_18  and  N_19 
REMARK       I    between atoms: N_19  and  C_20 
REMARK    7  A    between atoms: C_23  and  O_24 
ROOT
HETATM    1  C   UNK N   1      25.490  18.500   4.209  0.00  0.00     0.246 C 
HETATM    2  O   UNK N   1      26.086  17.713   3.242  0.00  0.00    -0.328 OA
HETATM    3  C   UNK N   1      26.916  16.696   3.593  0.00  0.00     0.141 C 
HETATM    4  C   UNK N   1      27.476  16.674   4.814  0.00  0.00     0.044 C 
HETATM    5  C   UNK N   1      27.237  17.783   5.817  0.00  0.00     0.151 C 
HETATM    6  C   UNK N   1      26.561  19.028   5.186  0.00  0.00     0.150 C 
ENDROOT
BRANCH   5   7
HETATM    7  N   UNK N   1      28.475  18.133   6.471  0.00  0.00    -0.217 N 
HETATM    8  C   UNK N   1      28.649  18.032   7.878  0.00  0.00     0.665 C 
HETATM    9  N   UNK N   1      27.595  17.578   8.705  0.00  0.00    -0.235 N 
HETATM   10  N   UNK N   1      29.764  18.372   8.406  0.00  0.00    -0.235 N 
HETATM   11  H   UNK N   1      27.259  17.687   9.624  0.00  0.00     0.174 HD
HETATM   12  H   UNK N   1      27.015  16.958   8.206  0.00  0.00     0.174 HD
HETATM   13  H   UNK N   1      30.401  19.028   8.040  0.00  0.00     0.174 HD
ATOM     14  HN  UNK N   1      30.017  17.922   9.286  1.00  0.00     0.174 HD
HETATM   15  H   UNK N   1      29.229  18.451   5.922  0.00  0.00     0.178 HD
ENDBRANCH   5   7
BRANCH   6  16
HETATM   16  N   UNK N   1      25.938  19.836   6.219  0.00  0.00    -0.351 N 
HETATM   17  C   UNK N   1      26.427  21.017   6.677  0.00  0.00     0.214 C 
HETATM   18  C   UNK N   1      27.682  21.619   6.134  0.00  0.00     0.117 C 
HETATM   19  O   UNK N   1      25.814  21.618   7.543  0.00  0.00    -0.274 OA
HETATM   20  H   UNK N   1      25.102  19.502   6.615  0.00  0.00     0.163 HD
ENDBRANCH   6  16
BRANCH   3  21
HETATM   21  C   UNK N   1      27.167  15.595   2.642  0.00  0.00     0.200 C 
HETATM   22  O   UNK N   1      26.379  15.367   1.736  0.00  0.00    -0.645 OA
BRANCH  21  23
HETATM   23  O   UNK N   1      28.292  14.864   2.744  0.00  0.00    -0.771 OA
HETATM   24  H   UNK N   1      28.282  13.955   2.975  0.00  0.00     0.167 HD
ENDBRANCH  21  23
ENDBRANCH   3  21
BRANCH   1  25
HETATM   25  C   UNK N   1      24.481  19.481   3.630  0.00  0.00     0.251 C 
HETATM   26  N   UNK N   1      23.152  19.151   3.534  0.00  0.00    -0.354 N 
HETATM   27  C   UNK N   1      22.689  17.823   3.863  0.00  0.00     0.152 C 
HETATM   28  O   UNK N   1      24.849  20.609   3.322  0.00  0.00    -0.270 OA
BRANCH  26  29
HETATM   29  C   UNK N   1      22.146  20.142   3.217  0.00  0.00     0.125 C 
BRANCH  29  30
HETATM   30  C   UNK N   1      21.000  19.589   2.395  0.00  0.00     0.015 C 
HETATM   31  C   UNK N   1      20.910  20.395   1.114  0.00  0.00     0.006 C 
ENDBRANCH  29  30
ENDBRANCH  26  29
ENDBRANCH   1  25
TORSDOF 7
ENDMDL
MODEL 7
REMARK VINA RESULT:      -5.7     16.160     17.490
REMARK  7 active torsions:
REMARK  status: ('A' for Active; 'I' for Inactive)
REMARK    1  A    between atoms: C_2  and  C_3 
REMARK    2  A    between atoms: C_3  and  N_4 
REMARK       I    between atoms: N_4  and  C_6 
REMARK    3  A    between atoms: C_8  and  C_6 
REMARK    4  A    between atoms: C_10  and  C_23 
REMARK    5  A    between atoms: C_12  and  N_13 
REMARK       I    between atoms: N_13  and  C_14 
REMARK       I    between atoms: C_14  and  N_15 
REMARK    6  A    between atoms: C_18  and  N_19 
REMARK       I    between atoms: N_19  and  C_20 
REMARK    7  A    between atoms: C_23  and  O_24 
ROOT
HETATM    1  C   UNK N   1      20.616  15.505   6.699  0.00  0.00     0.246 C 
HETATM    2  O   UNK N   1      19.404  15.961   7.183  0.00  0.00    -0.328 OA
HETATM    3  C   UNK N   1      19.182  16.046   8.521  0.00  0.00     0.141 C 
HETATM    4  C   UNK N   1      19.945  15.347   9.377  0.00  0.00     0.044 C 
HETATM    5  C   UNK N   1      21.041  14.423   8.891  0.00  0.00     0.151 C 
HETATM    6  C   UNK N   1      20.970  14.158   7.365  0.00  0.00     0.150 C 
ENDROOT
BRANCH   5   7
HETATM    7  N   UNK N   1      21.015  13.189   9.639  0.00  0.00    -0.217 N 
HETATM    8  C   UNK N   1      22.173  12.654  10.267  0.00  0.00     0.665 C 
HETATM    9  N   UNK N   1      23.416  13.323  10.180  0.00  0.00    -0.235 N 
HETATM   10  N   UNK N   1      22.095  11.547  10.905  0.00  0.00    -0.235 N 
HETATM   11  H   UNK N   1      24.379  13.123  10.182  0.00  0.00     0.174 HD
HETATM   12  H   UNK N   1      23.273  14.293  10.089  0.00  0.00     0.174 HD
HETATM   13  H   UNK N   1      21.448  10.824  10.731  0.00  0.00     0.174 HD
ATOM     14  HN  UNK N   1      22.762  11.400  11.661  1.00  0.00     0.174 HD
HETATM   15  H   UNK N   1      20.164  12.700   9.720  0.00  0.00     0.178 HD
ENDBRANCH   5   7
BRANCH   6  16
HETATM   16  N   UNK N   1      22.253  13.685   6.878  0.00  0.00    -0.351 N 
HETATM   17  C   UNK N   1      22.485  12.438   6.394  0.00  0.00     0.214 C 
HETATM   18  C   UNK N   1      21.404  11.410   6.301  0.00  0.00     0.117 C 
HETATM   19  O   UNK N   1      23.604  12.151   6.002  0.00  0.00    -0.274 OA
HETATM   20  H   UNK N   1      23.009  14.314   6.903  0.00  0.00     0.163 HD
ENDBRANCH   6  16
BRANCH   3  21
HETATM   21  C   UNK N   1      18.125  16.942   9.031  0.00  0.00     0.200 C 
HETATM   22  O   UNK N   1      16.973  16.547   9.136  0.00  0.00    -0.645 OA
BRANCH  21  23
HETATM   23  O   UNK N   1      18.437  18.191   9.425  0.00  0.00    -0.771 OA
HETATM   24  H   UNK N   1      18.393  18.461  10.322  0.00  0.00     0.167 HD
ENDBRANCH  21  23
ENDBRANCH   3  21
BRANCH   1  25
HETATM   25  C   UNK N   1      20.729  15.627   5.187  0.00  0.00     0.251 C 
HETATM   26  N   UNK N   1      21.190  16.780   4.605  0.00  0.00    -0.354 N 
HETATM   27  C   UNK N   1      21.465  17.956   5.398  0.00  0.00     0.152 C 
HETATM   28  O   UNK N   1      20.482  14.651   4.487  0.00  0.00    -0.270 OA
BRANCH  26  29
HETATM   29  C   UNK N   1      21.533  16.837   3.200  0.00  0.00     0.125 C 
BRANCH  29  30
HETATM   30  C   UNK N   1      20.359  17.192   2.311  0.00  0.00     0.015 C 
HETATM   31  C   UNK N   1      20.432  18.676   2.008  0.00  0.00     0.006 C 
ENDBRANCH  29  30
ENDBRANCH  26  29
ENDBRANCH   1  25
TORSDOF 7
ENDMDL
MODEL 8
REMARK VINA RESULT:      -5.6     12.490     15.242
REMARK  7 active torsions:
REMARK  status: ('A' for Active; 'I' for Inactive)
REMARK    1  A    between atoms: C_2  and  C_3 
REMARK    2  A    between atoms: C_3  and  N_4 
REMARK       I    between atoms: N_4  and  C_6 
REMARK    3  A    between atoms: C_8  and  C_6 
REMARK    4  A    between atoms: C_10  and  C_23 
REMARK    5  A    between atoms: C_12  and  N_13 
REMARK       I    between atoms: N_13  and  C_14 
REMARK       I    between atoms: C_14  and  N_15 
REMARK    6  A    between atoms: C_18  and  N_19 
REMARK       I    between atoms: N_19  and  C_20 
REMARK    7  A    between atoms: C_23  and  O_24 
ROOT
HETATM    1  C   UNK N   1      31.911  16.241   6.273  0.00  0.00     0.246 C 
HETATM    2  O   UNK N   1      32.981  16.988   6.726  0.00  0.00    -0.328 OA
HETATM    3  C   UNK N   1      32.921  17.625   7.925  0.00  0.00     0.141 C 
HETATM    4  C   UNK N   1      31.732  17.869   8.500  0.00  0.00     0.044 C 
HETATM    5  C   UNK N   1      30.432  17.484   7.829  0.00  0.00     0.151 C 
HETATM    6  C   UNK N   1      30.619  17.083   6.343  0.00  0.00     0.150 C 
ENDROOT
BRANCH   5   7
HETATM    7  N   UNK N   1      29.469  18.551   7.966  0.00  0.00    -0.217 N 
HETATM    8  C   UNK N   1      28.179  18.346   8.527  0.00  0.00     0.665 C 
HETATM    9  N   UNK N   1      27.783  17.066   8.979  0.00  0.00    -0.235 N 
HETATM   10  N   UNK N   1      27.360  19.326   8.610  0.00  0.00    -0.235 N 
HETATM   11  H   UNK N   1      26.968  16.526   9.088  0.00  0.00     0.174 HD
HETATM   12  H   UNK N   1      28.569  16.554   9.278  0.00  0.00     0.174 HD
HETATM   13  H   UNK N   1      27.345  20.118   8.023  0.00  0.00     0.174 HD
ATOM     14  HN  UNK N   1      26.660  19.285   9.350  1.00  0.00     0.174 HD
HETATM   15  H   UNK N   1      29.716  19.455   7.663  0.00  0.00     0.178 HD
ENDBRANCH   5   7
BRANCH   6  16
HETATM   16  N   UNK N   1      29.487  16.295   5.890  0.00  0.00    -0.351 N 
HETATM   17  C   UNK N   1      28.507  16.750   5.067  0.00  0.00     0.214 C 
HETATM   18  C   UNK N   1      28.513  18.142   4.523  0.00  0.00     0.117 C 
HETATM   19  O   UNK N   1      27.606  15.995   4.742  0.00  0.00    -0.274 OA
HETATM   20  H   UNK N   1      29.425  15.365   6.205  0.00  0.00     0.163 HD
ENDBRANCH   6  16
BRANCH   3  21
HETATM   21  C   UNK N   1      34.170  18.010   8.612  0.00  0.00     0.200 C 
HETATM   22  O   UNK N   1      34.871  18.908   8.169  0.00  0.00    -0.645 OA
BRANCH  21  23
HETATM   23  O   UNK N   1      34.521  17.398   9.758  0.00  0.00    -0.771 OA
HETATM   24  H   UNK N   1      34.232  17.698  10.597  0.00  0.00     0.167 HD
ENDBRANCH  21  23
ENDBRANCH   3  21
BRANCH   1  25
HETATM   25  C   UNK N   1      32.222  15.483   4.991  0.00  0.00     0.251 C 
HETATM   26  N   UNK N   1      32.608  14.167   5.025  0.00  0.00    -0.354 N 
HETATM   27  C   UNK N   1      32.849  13.495   6.281  0.00  0.00     0.152 C 
HETATM   28  O   UNK N   1      32.048  16.036   3.910  0.00  0.00    -0.270 OA
BRANCH  26  29
HETATM   29  C   UNK N   1      32.674  13.364   3.823  0.00  0.00     0.125 C 
BRANCH  29  30
HETATM   30  C   UNK N   1      31.423  12.544   3.581  0.00  0.00     0.015 C 
HETATM   31  C   UNK N   1      31.829  11.086   3.491  0.00  0.00     0.006 C 
ENDBRANCH  29  30
ENDBRANCH  26  29
ENDBRANCH   1  25
TORSDOF 7
ENDMDL
MODEL 9
REMARK VINA RESULT:      -5.5     12.151     13.976
REMARK  7 active torsions:
REMARK  status: ('A' for Active; 'I' for Inactive)
REMARK    1  A    between atoms: C_2  and  C_3 
REMARK    2  A    between atoms: C_3  and  N_4 
REMARK       I    between atoms: N_4  and  C_6 
REMARK    3  A    between atoms: C_8  and  C_6 
REMARK    4  A    between atoms: C_10  and  C_23 
REMARK    5  A    between atoms: C_12  and  N_13 
REMARK       I    between atoms: N_13  and  C_14 
REMARK       I    between atoms: C_14  and  N_15 
REMARK    6  A    between atoms: C_18  and  N_19 
REMARK       I    between atoms: N_19  and  C_20 
REMARK    7  A    between atoms: C_23  and  O_24 
ROOT
HETATM    1  C   UNK N   1      21.582  16.823   3.482  0.00  0.00     0.246 C 
HETATM    2  O   UNK N   1      21.011  18.073   3.631  0.00  0.00    -0.328 OA
HETATM    3  C   UNK N   1      21.784  19.192   3.614  0.00  0.00     0.141 C 
HETATM    4  C   UNK N   1      23.105  19.103   3.843  0.00  0.00     0.044 C 
HETATM    5  C   UNK N   1      23.768  17.780   4.160  0.00  0.00     0.151 C 
HETATM    6  C   UNK N   1      22.747  16.658   4.480  0.00  0.00     0.150 C 
ENDROOT
BRANCH   5   7
HETATM    7  N   UNK N   1      24.717  17.948   5.235  0.00  0.00    -0.217 N 
HETATM    8  C   UNK N   1      26.100  17.660   5.081  0.00  0.00     0.665 C 
HETATM    9  N   UNK N   1      26.608  17.189   3.848  0.00  0.00    -0.235 N 
HETATM   10  N   UNK N   1      26.894  17.813   6.074  0.00  0.00    -0.235 N 
HETATM   11  H   UNK N   1      27.337  16.627   3.500  0.00  0.00     0.174 HD
HETATM   12  H   UNK N   1      26.061  17.531   3.104  0.00  0.00     0.174 HD
HETATM   13  H   UNK N   1      26.647  17.755   7.026  0.00  0.00     0.174 HD
ATOM     14  HN  UNK N   1      27.871  18.013   5.860  1.00  0.00     0.174 HD
HETATM   15  H   UNK N   1      24.395  18.276   6.106  0.00  0.00     0.178 HD
ENDBRANCH   5   7
BRANCH   6  16
HETATM   16  N   UNK N   1      23.365  15.355   4.312  0.00  0.00    -0.351 N 
HETATM   17  C   UNK N   1      23.680  14.511   5.328  0.00  0.00     0.214 C 
HETATM   18  C   UNK N   1      23.397  14.849   6.756  0.00  0.00     0.117 C 
HETATM   19  O   UNK N   1      24.189  13.433   5.069  0.00  0.00    -0.274 OA
HETATM   20  H   UNK N   1      23.572  15.065   3.395  0.00  0.00     0.163 HD
ENDBRANCH   6  16
BRANCH   3  21
HETATM   21  C   UNK N   1      21.171  20.498   3.302  0.00  0.00     0.200 C 
HETATM   22  O   UNK N   1      20.066  20.786   3.740  0.00  0.00    -0.645 OA
BRANCH  21  23
HETATM   23  O   UNK N   1      21.849  21.398   2.566  0.00  0.00    -0.771 OA
HETATM   24  H   UNK N   1      22.715  21.236   2.246  0.00  0.00     0.167 HD
ENDBRANCH  21  23
ENDBRANCH   3  21
BRANCH   1  25
HETATM   25  C   UNK N   1      20.547  15.713   3.374  0.00  0.00     0.251 C 
HETATM   26  N   UNK N   1      20.041  15.337   2.155  0.00  0.00    -0.354 N 
HETATM   27  C   UNK N   1      20.379  16.061   0.953  0.00  0.00     0.152 C 
HETATM   28  O   UNK N   1      20.224  15.094   4.382  0.00  0.00    -0.270 OA
BRANCH  26  29
HETATM   29  C   UNK N   1      19.247  14.136   2.002  0.00  0.00     0.125 C 
BRANCH  29  30
HETATM   30  C   UNK N   1      19.125  13.680   0.562  0.00  0.00     0.015 C 
HETATM   31  C   UNK N   1      19.650  12.260   0.474  0.00  0.00     0.006 C 
ENDBRANCH  29  30
ENDBRANCH  26  29
ENDBRANCH   1  25
TORSDOF 7
ENDMDL
