REMARK  0 active torsions:
REMARK  status: ('A' for Active; 'I' for Inactive)
ROOT
HETATM    1  C   UNK N   1      -0.362  -1.852  -0.838  0.00  0.00     0.006 C 
HETATM    2  C   UNK N   1      -0.033  -0.352  -0.795  0.00  0.00     0.012 C 
HETATM    3  C   UNK N   1       0.659  -1.340   1.218  0.00  0.00     0.017 C 
HETATM    4  C   UNK N   1       2.039  -2.402  -0.432  0.00  0.00     0.083 C 
HETATM    5  C   UNK N   1       0.623  -2.445   0.171  0.00  0.00    -0.007 C 
HETATM    6  C   UNK N   1       1.079  -0.264   0.251  0.00  0.00     0.056 C 
HETATM    7  C   UNK N   1       2.273  -0.944  -0.306  0.00  0.00     0.131 C 
HETATM    8  O   UNK N   1       3.365  -0.416  -0.443  0.00  0.00    -0.298 OA
ENDROOT
TORSDOF 0
