MODEL 1
REMARK VINA RESULT:      -4.6      0.000      0.000
REMARK  8 active torsions:
REMARK  status: ('A' for Active; 'I' for Inactive)
REMARK    1  A    between atoms: C_4  and  C_3 
REMARK    2  A    between atoms: C_5  and  C_3 
REMARK    3  A    between atoms: C_6  and  C_4 
REMARK    4  A    between atoms: C_7  and  C_5 
REMARK    5  A    between atoms: N_10  and  C_6 
REMARK    6  A    between atoms: C_8  and  C_7 
REMARK    7  A    between atoms: C_7  and  N_9 
REMARK    8  A    between atoms: O_12  and  C_8 
ROOT
HETATM    1  C   UNK N   1      22.703  11.879  11.124  0.00  0.00     0.173 C 
ENDROOT
BRANCH   1   2
HETATM    2  C   UNK N   1      22.627  13.038  10.133  0.00  0.00     0.035 C 
BRANCH   2   3
HETATM    3  C   UNK N   1      21.211  13.358   9.683  0.00  0.00     0.004 C 
BRANCH   3   4
HETATM    4  C   UNK N   1      21.170  14.821   9.275  0.00  0.00     0.030 C 
BRANCH   4   5
HETATM    5  C   UNK N   1      19.740  15.299   9.075  0.00  0.00     0.271 C 
BRANCH   5   6
HETATM    6  N   UNK N   1      19.685  16.390   8.116  0.00  0.00     0.080 N 
HETATM    7  C   UNK N   1      19.488  17.611   8.877  0.00  0.00     0.309 C 
HETATM    8  C   UNK N   1      20.990  16.498   7.487  0.00  0.00     0.309 C 
ENDBRANCH   5   6
ENDBRANCH   4   5
ENDBRANCH   3   4
ENDBRANCH   2   3
ENDBRANCH   1   2
BRANCH   1   9
HETATM    9  C   UNK N   1      23.810  12.087  12.127  0.00  0.00     0.163 C 
HETATM   10  O   UNK N   1      23.581  12.016  13.327  0.00  0.00    -0.648 OA
BRANCH   9  11
HETATM   11  O   UNK N   1      25.065  12.336  11.708  0.00  0.00    -0.775 OA
HETATM   12  H   UNK N   1      25.704  12.673  12.304  0.00  0.00     0.167 HD
ENDBRANCH   9  11
ENDBRANCH   1   9
BRANCH   1  13
HETATM   13  N   UNK N   1      21.421  11.788  11.802  0.00  0.00    -0.418 N 
HETATM   14  H   UNK N   1      20.567  12.078  11.325  0.00  0.00     0.150 HD
HETATM   15  H   UNK N   1      21.374  11.434  12.758  0.00  0.00     0.150 HD
ENDBRANCH   1  13
TORSDOF 8
ENDMDL
MODEL 2
REMARK VINA RESULT:      -4.5      0.546      1.086
REMARK  8 active torsions:
REMARK  status: ('A' for Active; 'I' for Inactive)
REMARK    1  A    between atoms: C_4  and  C_3 
REMARK    2  A    between atoms: C_5  and  C_3 
REMARK    3  A    between atoms: C_6  and  C_4 
REMARK    4  A    between atoms: C_7  and  C_5 
REMARK    5  A    between atoms: N_10  and  C_6 
REMARK    6  A    between atoms: C_8  and  C_7 
REMARK    7  A    between atoms: C_7  and  N_9 
REMARK    8  A    between atoms: O_12  and  C_8 
ROOT
HETATM    1  C   UNK N   1      22.699  11.674  11.132  0.00  0.00     0.173 C 
ENDROOT
BRANCH   1   2
HETATM    2  C   UNK N   1      22.700  12.593   9.913  0.00  0.00     0.035 C 
BRANCH   2   3
HETATM    3  C   UNK N   1      21.309  13.027   9.482  0.00  0.00     0.004 C 
BRANCH   3   4
HETATM    4  C   UNK N   1      21.304  14.544   9.379  0.00  0.00     0.030 C 
BRANCH   4   5
HETATM    5  C   UNK N   1      19.887  15.084   9.264  0.00  0.00     0.271 C 
BRANCH   5   6
HETATM    6  N   UNK N   1      19.878  16.383   8.609  0.00  0.00     0.080 N 
HETATM    7  C   UNK N   1      19.833  16.134   7.180  0.00  0.00     0.309 C 
HETATM    8  C   UNK N   1      18.634  17.049   8.955  0.00  0.00     0.309 C 
ENDBRANCH   5   6
ENDBRANCH   4   5
ENDBRANCH   3   4
ENDBRANCH   2   3
ENDBRANCH   1   2
BRANCH   1   9
HETATM    9  C   UNK N   1      23.801  12.040  12.096  0.00  0.00     0.163 C 
HETATM   10  O   UNK N   1      23.598  12.032  13.302  0.00  0.00    -0.648 OA
BRANCH   9  11
HETATM   11  O   UNK N   1      25.023  12.364  11.634  0.00  0.00    -0.775 OA
HETATM   12  H   UNK N   1      25.690  11.711  11.563  0.00  0.00     0.167 HD
ENDBRANCH   9  11
ENDBRANCH   1   9
BRANCH   1  13
HETATM   13  N   UNK N   1      21.404  11.796  11.781  0.00  0.00    -0.418 N 
HETATM   14  H   UNK N   1      20.639  12.282  11.312  0.00  0.00     0.150 HD
HETATM   15  H   UNK N   1      21.259  11.394  12.707  0.00  0.00     0.150 HD
ENDBRANCH   1  13
TORSDOF 8
ENDMDL
MODEL 3
REMARK VINA RESULT:      -4.4     10.901     11.567
REMARK  8 active torsions:
REMARK  status: ('A' for Active; 'I' for Inactive)
REMARK    1  A    between atoms: C_4  and  C_3 
REMARK    2  A    between atoms: C_5  and  C_3 
REMARK    3  A    between atoms: C_6  and  C_4 
REMARK    4  A    between atoms: C_7  and  C_5 
REMARK    5  A    between atoms: N_10  and  C_6 
REMARK    6  A    between atoms: C_8  and  C_7 
REMARK    7  A    between atoms: C_7  and  N_9 
REMARK    8  A    between atoms: O_12  and  C_8 
ROOT
HETATM    1  C   UNK N   1      34.216  16.982   8.822  0.00  0.00     0.173 C 
ENDROOT
BRANCH   1   2
HETATM    2  C   UNK N   1      32.704  16.793   8.919  0.00  0.00     0.035 C 
BRANCH   2   3
HETATM    3  C   UNK N   1      32.171  15.703   8.004  0.00  0.00     0.004 C 
BRANCH   3   4
HETATM    4  C   UNK N   1      31.118  16.325   7.101  0.00  0.00     0.030 C 
BRANCH   4   5
HETATM    5  C   UNK N   1      30.506  17.563   7.737  0.00  0.00     0.271 C 
BRANCH   5   6
HETATM    6  N   UNK N   1      29.129  17.315   8.136  0.00  0.00     0.080 N 
HETATM    7  C   UNK N   1      28.984  17.827   9.487  0.00  0.00     0.309 C 
HETATM    8  C   UNK N   1      28.267  18.121   7.290  0.00  0.00     0.309 C 
ENDBRANCH   5   6
ENDBRANCH   4   5
ENDBRANCH   3   4
ENDBRANCH   2   3
ENDBRANCH   1   2
BRANCH   1   9
HETATM    9  C   UNK N   1      34.565  18.167   7.957  0.00  0.00     0.163 C 
HETATM   10  O   UNK N   1      35.081  19.162   8.448  0.00  0.00    -0.648 OA
BRANCH   9  11
HETATM   11  O   UNK N   1      34.327  18.132   6.633  0.00  0.00    -0.775 OA
HETATM   12  H   UNK N   1      34.939  17.725   6.053  0.00  0.00     0.167 HD
ENDBRANCH   9  11
ENDBRANCH   1   9
BRANCH   1  13
HETATM   13  N   UNK N   1      34.727  17.175  10.169  0.00  0.00    -0.418 N 
HETATM   14  H   UNK N   1      34.097  17.449  10.923  0.00  0.00     0.150 HD
HETATM   15  H   UNK N   1      35.719  17.035  10.362  0.00  0.00     0.150 HD
ENDBRANCH   1  13
TORSDOF 8
ENDMDL
MODEL 4
REMARK VINA RESULT:      -4.3      1.159      1.531
REMARK  8 active torsions:
REMARK  status: ('A' for Active; 'I' for Inactive)
REMARK    1  A    between atoms: C_4  and  C_3 
REMARK    2  A    between atoms: C_5  and  C_3 
REMARK    3  A    between atoms: C_6  and  C_4 
REMARK    4  A    between atoms: C_7  and  C_5 
REMARK    5  A    between atoms: N_10  and  C_6 
REMARK    6  A    between atoms: C_8  and  C_7 
REMARK    7  A    between atoms: C_7  and  N_9 
REMARK    8  A    between atoms: O_12  and  C_8 
ROOT
HETATM    1  C   UNK N   1      23.045  11.638  10.593  0.00  0.00     0.173 C 
ENDROOT
BRANCH   1   2
HETATM    2  C   UNK N   1      22.071  12.224   9.574  0.00  0.00     0.035 C 
BRANCH   2   3
HETATM    3  C   UNK N   1      21.036  13.151  10.189  0.00  0.00     0.004 C 
BRANCH   3   4
HETATM    4  C   UNK N   1      21.130  14.492   9.480  0.00  0.00     0.030 C 
BRANCH   4   5
HETATM    5  C   UNK N   1      20.671  14.385   8.033  0.00  0.00     0.271 C 
BRANCH   5   6
HETATM    6  N   UNK N   1      20.244  15.679   7.526  0.00  0.00     0.080 N 
HETATM    7  C   UNK N   1      19.801  16.454   8.671  0.00  0.00     0.309 C 
HETATM    8  C   UNK N   1      21.413  16.357   6.992  0.00  0.00     0.309 C 
ENDBRANCH   5   6
ENDBRANCH   4   5
ENDBRANCH   3   4
ENDBRANCH   2   3
ENDBRANCH   1   2
BRANCH   1   9
HETATM    9  C   UNK N   1      24.359  12.379  10.585  0.00  0.00     0.163 C 
HETATM   10  O   UNK N   1      24.722  12.987   9.588  0.00  0.00    -0.648 OA
BRANCH   9  11
HETATM   11  O   UNK N   1      25.136  12.389  11.684  0.00  0.00    -0.775 OA
HETATM   12  H   UNK N   1      25.250  11.610  12.191  0.00  0.00     0.167 HD
ENDBRANCH   9  11
ENDBRANCH   1   9
BRANCH   1  13
HETATM   13  N   UNK N   1      22.425  11.730  11.905  0.00  0.00    -0.418 N 
HETATM   14  H   UNK N   1      22.960  11.502  12.743  0.00  0.00     0.150 HD
HETATM   15  H   UNK N   1      21.451  12.023  11.988  0.00  0.00     0.150 HD
ENDBRANCH   1  13
TORSDOF 8
ENDMDL
MODEL 5
REMARK VINA RESULT:      -4.2     10.792     11.490
REMARK  8 active torsions:
REMARK  status: ('A' for Active; 'I' for Inactive)
REMARK    1  A    between atoms: C_4  and  C_3 
REMARK    2  A    between atoms: C_5  and  C_3 
REMARK    3  A    between atoms: C_6  and  C_4 
REMARK    4  A    between atoms: C_7  and  C_5 
REMARK    5  A    between atoms: N_10  and  C_6 
REMARK    6  A    between atoms: C_8  and  C_7 
REMARK    7  A    between atoms: C_7  and  N_9 
REMARK    8  A    between atoms: O_12  and  C_8 
ROOT
HETATM    1  C   UNK N   1      34.640  15.433   9.892  0.00  0.00     0.173 C 
ENDROOT
BRANCH   1   2
HETATM    2  C   UNK N   1      33.863  15.938   8.678  0.00  0.00     0.035 C 
BRANCH   2   3
HETATM    3  C   UNK N   1      32.355  15.864   8.851  0.00  0.00     0.004 C 
BRANCH   3   4
HETATM    4  C   UNK N   1      31.774  17.214   8.464  0.00  0.00     0.030 C 
BRANCH   4   5
HETATM    5  C   UNK N   1      30.400  17.063   7.830  0.00  0.00     0.271 C 
BRANCH   5   6
HETATM    6  N   UNK N   1      29.531  18.169   8.201  0.00  0.00     0.080 N 
HETATM    7  C   UNK N   1      28.207  17.612   8.411  0.00  0.00     0.309 C 
HETATM    8  C   UNK N   1      29.979  18.676   9.487  0.00  0.00     0.309 C 
ENDBRANCH   5   6
ENDBRANCH   4   5
ENDBRANCH   3   4
ENDBRANCH   2   3
ENDBRANCH   1   2
BRANCH   1   9
HETATM    9  C   UNK N   1      35.629  16.463  10.377  0.00  0.00     0.163 C 
HETATM   10  O   UNK N   1      35.398  17.656  10.244  0.00  0.00    -0.648 OA
BRANCH   9  11
HETATM   11  O   UNK N   1      36.770  16.074  10.977  0.00  0.00    -0.775 OA
HETATM   12  H   UNK N   1      37.572  16.043  10.495  0.00  0.00     0.167 HD
ENDBRANCH   9  11
ENDBRANCH   1   9
BRANCH   1  13
HETATM   13  N   UNK N   1      33.679  15.126  10.939  0.00  0.00    -0.418 N 
HETATM   14  H   UNK N   1      33.071  14.312  10.854  0.00  0.00     0.150 HD
HETATM   15  H   UNK N   1      33.613  15.728  11.760  0.00  0.00     0.150 HD
ENDBRANCH   1  13
TORSDOF 8
ENDMDL
MODEL 6
REMARK VINA RESULT:      -4.1     12.729     14.562
REMARK  8 active torsions:
REMARK  status: ('A' for Active; 'I' for Inactive)
REMARK    1  A    between atoms: C_4  and  C_3 
REMARK    2  A    between atoms: C_5  and  C_3 
REMARK    3  A    between atoms: C_6  and  C_4 
REMARK    4  A    between atoms: C_7  and  C_5 
REMARK    5  A    between atoms: N_10  and  C_6 
REMARK    6  A    between atoms: C_8  and  C_7 
REMARK    7  A    between atoms: C_7  and  N_9 
REMARK    8  A    between atoms: O_12  and  C_8 
ROOT
HETATM    1  C   UNK N   1      33.451  17.444   8.728  0.00  0.00     0.173 C 
ENDROOT
BRANCH   1   2
HETATM    2  C   UNK N   1      33.833  15.967   8.788  0.00  0.00     0.035 C 
BRANCH   2   3
HETATM    3  C   UNK N   1      35.118  15.705   9.556  0.00  0.00     0.004 C 
BRANCH   3   4
HETATM    4  C   UNK N   1      34.758  15.535  11.023  0.00  0.00     0.030 C 
BRANCH   4   5
HETATM    5  C   UNK N   1      36.001  15.324  11.875  0.00  0.00     0.271 C 
BRANCH   5   6
HETATM    6  N   UNK N   1      35.946  14.046  12.567  0.00  0.00     0.080 N 
HETATM    7  C   UNK N   1      36.936  13.187  11.944  0.00  0.00     0.309 C 
HETATM    8  C   UNK N   1      36.383  14.261  13.936  0.00  0.00     0.309 C 
ENDBRANCH   5   6
ENDBRANCH   4   5
ENDBRANCH   3   4
ENDBRANCH   2   3
ENDBRANCH   1   2
BRANCH   1   9
HETATM    9  C   UNK N   1      34.448  18.235   7.919  0.00  0.00     0.163 C 
HETATM   10  O   UNK N   1      34.523  18.084   6.707  0.00  0.00    -0.648 OA
BRANCH   9  11
HETATM   11  O   UNK N   1      35.252  19.129   8.524  0.00  0.00    -0.775 OA
HETATM   12  H   UNK N   1      35.512  19.910   8.077  0.00  0.00     0.167 HD
ENDBRANCH   9  11
ENDBRANCH   1   9
BRANCH   1  13
HETATM   13  N   UNK N   1      32.130  17.537   8.128  0.00  0.00    -0.418 N 
HETATM   14  H   UNK N   1      31.520  16.720   8.102  0.00  0.00     0.150 HD
HETATM   15  H   UNK N   1      31.812  18.423   7.733  0.00  0.00     0.150 HD
ENDBRANCH   1  13
TORSDOF 8
ENDMDL
MODEL 7
REMARK VINA RESULT:      -4.1      1.866      2.454
REMARK  8 active torsions:
REMARK  status: ('A' for Active; 'I' for Inactive)
REMARK    1  A    between atoms: C_4  and  C_3 
REMARK    2  A    between atoms: C_5  and  C_3 
REMARK    3  A    between atoms: C_6  and  C_4 
REMARK    4  A    between atoms: C_7  and  C_5 
REMARK    5  A    between atoms: N_10  and  C_6 
REMARK    6  A    between atoms: C_8  and  C_7 
REMARK    7  A    between atoms: C_7  and  N_9 
REMARK    8  A    between atoms: O_12  and  C_8 
ROOT
HETATM    1  C   UNK N   1      23.597  12.403  10.763  0.00  0.00     0.173 C 
ENDROOT
BRANCH   1   2
HETATM    2  C   UNK N   1      23.345  11.361   9.676  0.00  0.00     0.035 C 
BRANCH   2   3
HETATM    3  C   UNK N   1      23.099  11.964   8.303  0.00  0.00     0.004 C 
BRANCH   3   4
HETATM    4  C   UNK N   1      21.673  12.488   8.272  0.00  0.00     0.030 C 
BRANCH   4   5
HETATM    5  C   UNK N   1      21.639  13.978   7.970  0.00  0.00     0.271 C 
BRANCH   5   6
HETATM    6  N   UNK N   1      20.428  14.588   8.497  0.00  0.00     0.080 N 
HETATM    7  C   UNK N   1      20.262  14.091   9.851  0.00  0.00     0.309 C 
HETATM    8  C   UNK N   1      20.658  16.018   8.603  0.00  0.00     0.309 C 
ENDBRANCH   5   6
ENDBRANCH   4   5
ENDBRANCH   3   4
ENDBRANCH   2   3
ENDBRANCH   1   2
BRANCH   1   9
HETATM    9  C   UNK N   1      22.956  12.002  12.067  0.00  0.00     0.163 C 
HETATM   10  O   UNK N   1      23.599  12.026  13.108  0.00  0.00    -0.648 OA
BRANCH   9  11
HETATM   11  O   UNK N   1      21.663  11.628  12.099  0.00  0.00    -0.775 OA
HETATM   12  H   UNK N   1      21.292  11.146  11.387  0.00  0.00     0.167 HD
ENDBRANCH   9  11
ENDBRANCH   1   9
BRANCH   1  13
HETATM   13  N   UNK N   1      25.035  12.533  10.929  0.00  0.00    -0.418 N 
HETATM   14  H   UNK N   1      25.442  12.571  11.864  0.00  0.00     0.150 HD
HETATM   15  H   UNK N   1      25.640  12.587  10.108  0.00  0.00     0.150 HD
ENDBRANCH   1  13
TORSDOF 8
ENDMDL
MODEL 8
REMARK VINA RESULT:      -4.1     13.531     15.055
REMARK  8 active torsions:
REMARK  status: ('A' for Active; 'I' for Inactive)
REMARK    1  A    between atoms: C_4  and  C_3 
REMARK    2  A    between atoms: C_5  and  C_3 
REMARK    3  A    between atoms: C_6  and  C_4 
REMARK    4  A    between atoms: C_7  and  C_5 
REMARK    5  A    between atoms: N_10  and  C_6 
REMARK    6  A    between atoms: C_8  and  C_7 
REMARK    7  A    between atoms: C_7  and  N_9 
REMARK    8  A    between atoms: O_12  and  C_8 
ROOT
HETATM    1  C   UNK N   1      34.899  15.173  11.632  0.00  0.00     0.173 C 
ENDROOT
BRANCH   1   2
HETATM    2  C   UNK N   1      35.659  13.849  11.622  0.00  0.00     0.035 C 
BRANCH   2   3
HETATM    3  C   UNK N   1      36.516  13.633  12.858  0.00  0.00     0.004 C 
BRANCH   3   4
HETATM    4  C   UNK N   1      35.585  13.471  14.049  0.00  0.00     0.030 C 
BRANCH   4   5
HETATM    5  C   UNK N   1      36.364  13.415  15.355  0.00  0.00     0.271 C 
BRANCH   5   6
HETATM    6  N   UNK N   1      35.709  12.539  16.313  0.00  0.00     0.080 N 
HETATM    7  C   UNK N   1      35.021  13.395  17.263  0.00  0.00     0.309 C 
HETATM    8  C   UNK N   1      34.683  11.792  15.606  0.00  0.00     0.309 C 
ENDBRANCH   5   6
ENDBRANCH   4   5
ENDBRANCH   3   4
ENDBRANCH   2   3
ENDBRANCH   1   2
BRANCH   1   9
HETATM    9  C   UNK N   1      35.694  16.266  10.961  0.00  0.00     0.163 C 
HETATM   10  O   UNK N   1      35.138  17.275  10.552  0.00  0.00    -0.648 OA
BRANCH   9  11
HETATM   11  O   UNK N   1      37.027  16.145  10.824  0.00  0.00    -0.775 OA
HETATM   12  H   UNK N   1      37.598  16.350  11.538  0.00  0.00     0.167 HD
ENDBRANCH   9  11
ENDBRANCH   1   9
BRANCH   1  13
HETATM   13  N   UNK N   1      33.640  14.968  10.936  0.00  0.00    -0.418 N 
HETATM   14  H   UNK N   1      33.120  14.099  11.061  0.00  0.00     0.150 HD
HETATM   15  H   UNK N   1      33.275  15.695  10.320  0.00  0.00     0.150 HD
ENDBRANCH   1  13
TORSDOF 8
ENDMDL
MODEL 9
REMARK VINA RESULT:      -4.1     10.317     11.072
REMARK  8 active torsions:
REMARK  status: ('A' for Active; 'I' for Inactive)
REMARK    1  A    between atoms: C_4  and  C_3 
REMARK    2  A    between atoms: C_5  and  C_3 
REMARK    3  A    between atoms: C_6  and  C_4 
REMARK    4  A    between atoms: C_7  and  C_5 
REMARK    5  A    between atoms: N_10  and  C_6 
REMARK    6  A    between atoms: C_8  and  C_7 
REMARK    7  A    between atoms: C_7  and  N_9 
REMARK    8  A    between atoms: O_12  and  C_8 
ROOT
HETATM    1  C   UNK N   1      29.459  18.056   9.877  0.00  0.00     0.173 C 
ENDROOT
BRANCH   1   2
HETATM    2  C   UNK N   1      30.528  18.336   8.823  0.00  0.00     0.035 C 
BRANCH   2   3
HETATM    3  C   UNK N   1      31.415  17.138   8.528  0.00  0.00     0.004 C 
BRANCH   3   4
HETATM    4  C   UNK N   1      31.841  17.219   7.071  0.00  0.00     0.030 C 
BRANCH   4   5
HETATM    5  C   UNK N   1      33.289  17.666   6.943  0.00  0.00     0.271 C 
BRANCH   5   6
HETATM    6  N   UNK N   1      33.826  17.322   5.636  0.00  0.00     0.080 N 
HETATM    7  C   UNK N   1      34.124  15.901   5.665  0.00  0.00     0.309 C 
HETATM    8  C   UNK N   1      32.769  17.506   4.657  0.00  0.00     0.309 C 
ENDBRANCH   5   6
ENDBRANCH   4   5
ENDBRANCH   3   4
ENDBRANCH   2   3
ENDBRANCH   1   2
BRANCH   1   9
HETATM    9  C   UNK N   1      28.088  17.963   9.255  0.00  0.00     0.163 C 
HETATM   10  O   UNK N   1      27.441  16.927   9.331  0.00  0.00    -0.648 OA
BRANCH   9  11
HETATM   11  O   UNK N   1      27.557  19.027   8.625  0.00  0.00    -0.775 OA
HETATM   12  H   UNK N   1      27.806  19.229   7.745  0.00  0.00     0.167 HD
ENDBRANCH   9  11
ENDBRANCH   1   9
BRANCH   1  13
HETATM   13  N   UNK N   1      29.799  16.805  10.534  0.00  0.00    -0.418 N 
HETATM   14  H   UNK N   1      30.523  16.201  10.144  0.00  0.00     0.150 HD
HETATM   15  H   UNK N   1      29.311  16.529  11.387  0.00  0.00     0.150 HD
ENDBRANCH   1  13
TORSDOF 8
ENDMDL
