MODEL 1
REMARK VINA RESULT:      -5.4      0.000      0.000
REMARK  9 active torsions:
REMARK  status: ('A' for Active; 'I' for Inactive)
REMARK    1  A    between atoms: C_4  and  C_3 
REMARK    2  A    between atoms: O_10  and  C_3 
REMARK    3  A    between atoms: C_5  and  O_11 
REMARK    4  A    between atoms: C_6  and  O_12 
REMARK    5  A    between atoms: C_7  and  O_13 
REMARK    6  A    between atoms: C_8  and  N_9 
REMARK    7  A    between atoms: P_18  and  N_9 
REMARK    8  A    between atoms: P_18  and  O_15 
REMARK    9  A    between atoms: P_18  and  O_16 
ROOT
HETATM    1  C   UNK N   1      30.431  16.984   7.160  0.00  0.00     0.179 C 
HETATM    2  C   UNK N   1      30.852  17.906   8.344  0.00  0.00     0.180 C 
HETATM    3  C   UNK N   1      29.621  18.558   9.017  0.00  0.00     0.182 C 
HETATM    4  C   UNK N   1      28.397  17.689   8.764  0.00  0.00     0.198 C 
HETATM    5  C   UNK N   1      28.152  17.679   7.216  0.00  0.00     0.257 C 
HETATM    6  O   UNK N   1      29.345  17.530   6.433  0.00  0.00    -0.354 OA
ENDROOT
BRANCH   5   7
HETATM    7  N   UNK N   1      27.543  18.971   6.810  0.00  0.00    -0.299 N 
HETATM    8  H   UNK N   1      27.122  19.584   7.508  0.00  0.00     0.167 HD
BRANCH   7   9
HETATM    9  P   UNK N   1      27.558  19.455   5.033  0.00  0.00     0.431 P 
HETATM   10  O   UNK N   1      26.172  18.750   5.030  0.00  0.00    -0.234 OA
BRANCH   9  11
HETATM   11  O   UNK N   1      27.723  20.934   5.937  0.00  0.00    -0.303 OA
HETATM   12  C   UNK N   1      26.612  20.960   6.787  0.00  0.00     0.214 C 
ENDBRANCH   9  11
BRANCH   9  13
HETATM   13  O   UNK N   1      26.425  20.690   4.551  0.00  0.00    -0.303 OA
HETATM   14  C   UNK N   1      26.153  20.443   3.200  0.00  0.00     0.214 C 
ENDBRANCH   9  13
ENDBRANCH   7   9
ENDBRANCH   5   7
BRANCH   4  15
HETATM   15  O   UNK N   1      27.283  18.173   9.451  0.00  0.00    -0.389 OA
HETATM   16  H   UNK N   1      27.225  18.071  10.414  0.00  0.00     0.210 HD
ENDBRANCH   4  15
BRANCH   3  17
HETATM   17  O   UNK N   1      29.841  18.761  10.383  0.00  0.00    -0.390 OA
HETATM   18  H   UNK N   1      29.970  18.007  10.979  0.00  0.00     0.210 HD
ENDBRANCH   3  17
BRANCH   1  19
HETATM   19  C   UNK N   1      31.601  16.739   6.213  0.00  0.00     0.198 C 
BRANCH  19  20
HETATM   20  O   UNK N   1      32.709  17.507   6.576  0.00  0.00    -0.398 OA
HETATM   21  H   UNK N   1      33.632  17.354   6.321  0.00  0.00     0.209 HD
ENDBRANCH  19  20
ENDBRANCH   1  19
BRANCH   2  22
HETATM   22  O   UNK N   1      31.558  17.125   9.267  0.00  0.00    -0.390 OA
HETATM   23  H   UNK N   1      32.170  17.320   9.994  0.00  0.00     0.210 HD
ENDBRANCH   2  22
TORSDOF 9
ENDMDL
MODEL 2
REMARK VINA RESULT:      -5.2      6.757      9.995
REMARK  9 active torsions:
REMARK  status: ('A' for Active; 'I' for Inactive)
REMARK    1  A    between atoms: C_4  and  C_3 
REMARK    2  A    between atoms: O_10  and  C_3 
REMARK    3  A    between atoms: C_5  and  O_11 
REMARK    4  A    between atoms: C_6  and  O_12 
REMARK    5  A    between atoms: C_7  and  O_13 
REMARK    6  A    between atoms: C_8  and  N_9 
REMARK    7  A    between atoms: P_18  and  N_9 
REMARK    8  A    between atoms: P_18  and  O_15 
REMARK    9  A    between atoms: P_18  and  O_16 
ROOT
HETATM    1  C   UNK N   1      33.825  14.824   8.796  0.00  0.00     0.179 C 
HETATM    2  C   UNK N   1      33.887  16.365   9.016  0.00  0.00     0.180 C 
HETATM    3  C   UNK N   1      34.951  16.743  10.073  0.00  0.00     0.182 C 
HETATM    4  C   UNK N   1      36.002  15.642  10.136  0.00  0.00     0.198 C 
HETATM    5  C   UNK N   1      35.278  14.341  10.622  0.00  0.00     0.257 C 
HETATM    6  O   UNK N   1      34.000  14.115  10.010  0.00  0.00    -0.354 OA
ENDROOT
BRANCH   5   7
HETATM    7  N   UNK N   1      35.030  14.437  12.083  0.00  0.00    -0.299 N 
HETATM    8  H   UNK N   1      34.261  15.004  12.439  0.00  0.00     0.167 HD
BRANCH   7   9
HETATM    9  P   UNK N   1      36.127  13.522  13.245  0.00  0.00     0.431 P 
HETATM   10  O   UNK N   1      36.496  14.956  13.720  0.00  0.00    -0.234 OA
BRANCH   9  11
HETATM   11  O   UNK N   1      34.513  12.946  13.551  0.00  0.00    -0.303 OA
HETATM   12  C   UNK N   1      34.556  11.580  13.247  0.00  0.00     0.214 C 
ENDBRANCH   9  11
BRANCH   9  13
HETATM   13  O   UNK N   1      35.687  13.565  14.932  0.00  0.00    -0.303 OA
HETATM   14  C   UNK N   1      36.800  14.095  15.596  0.00  0.00     0.214 C 
ENDBRANCH   9  13
ENDBRANCH   7   9
ENDBRANCH   5   7
BRANCH   4  15
HETATM   15  O   UNK N   1      37.048  15.991  10.990  0.00  0.00    -0.389 OA
HETATM   16  H   UNK N   1      37.843  16.420  10.635  0.00  0.00     0.210 HD
ENDBRANCH   4  15
BRANCH   3  17
HETATM   17  O   UNK N   1      35.519  17.990   9.795  0.00  0.00    -0.390 OA
HETATM   18  H   UNK N   1      36.275  18.064   9.191  0.00  0.00     0.210 HD
ENDBRANCH   3  17
BRANCH   1  19
HETATM   19  C   UNK N   1      32.501  14.414   8.158  0.00  0.00     0.198 C 
BRANCH  19  20
HETATM   20  O   UNK N   1      31.679  15.525   7.951  0.00  0.00    -0.398 OA
HETATM   21  H   UNK N   1      31.790  16.213   7.278  0.00  0.00     0.209 HD
ENDBRANCH  19  20
ENDBRANCH   1  19
BRANCH   2  22
HETATM   22  O   UNK N   1      34.186  16.964   7.785  0.00  0.00    -0.390 OA
HETATM   23  H   UNK N   1      33.692  17.113   6.965  0.00  0.00     0.210 HD
ENDBRANCH   2  22
TORSDOF 9
ENDMDL
MODEL 3
REMARK VINA RESULT:      -5.2      7.246     10.148
REMARK  9 active torsions:
REMARK  status: ('A' for Active; 'I' for Inactive)
REMARK    1  A    between atoms: C_4  and  C_3 
REMARK    2  A    between atoms: O_10  and  C_3 
REMARK    3  A    between atoms: C_5  and  O_11 
REMARK    4  A    between atoms: C_6  and  O_12 
REMARK    5  A    between atoms: C_7  and  O_13 
REMARK    6  A    between atoms: C_8  and  N_9 
REMARK    7  A    between atoms: P_18  and  N_9 
REMARK    8  A    between atoms: P_18  and  O_15 
REMARK    9  A    between atoms: P_18  and  O_16 
ROOT
HETATM    1  C   UNK N   1      22.240  19.416   3.511  0.00  0.00     0.179 C 
HETATM    2  C   UNK N   1      21.905  20.289   2.264  0.00  0.00     0.180 C 
HETATM    3  C   UNK N   1      20.527  19.918   1.667  0.00  0.00     0.182 C 
HETATM    4  C   UNK N   1      19.667  19.290   2.756  0.00  0.00     0.198 C 
HETATM    5  C   UNK N   1      20.377  17.964   3.197  0.00  0.00     0.257 C 
HETATM    6  O   UNK N   1      21.799  18.080   3.347  0.00  0.00    -0.354 OA
ENDROOT
BRANCH   5   7
HETATM    7  N   UNK N   1      20.149  16.922   2.163  0.00  0.00    -0.299 N 
HETATM    8  H   UNK N   1      19.539  17.110   1.368  0.00  0.00     0.167 HD
BRANCH   7   9
HETATM    9  P   UNK N   1      20.980  15.288   2.334  0.00  0.00     0.431 P 
HETATM   10  O   UNK N   1      19.634  14.890   3.003  0.00  0.00    -0.234 OA
BRANCH   9  11
HETATM   11  O   UNK N   1      20.974  15.650   0.631  0.00  0.00    -0.303 OA
HETATM   12  C   UNK N   1      19.666  16.068   0.358  0.00  0.00     0.214 C 
ENDBRANCH   9  11
BRANCH   9  13
HETATM   13  O   UNK N   1      20.355  13.988   1.352  0.00  0.00    -0.303 OA
HETATM   14  C   UNK N   1      20.907  12.817   1.886  0.00  0.00     0.214 C 
ENDBRANCH   9  13
ENDBRANCH   7   9
ENDBRANCH   5   7
BRANCH   4  15
HETATM   15  O   UNK N   1      18.372  19.045   2.298  0.00  0.00    -0.389 OA
HETATM   16  H   UNK N   1      18.080  19.412   1.449  0.00  0.00     0.210 HD
ENDBRANCH   4  15
BRANCH   3  17
HETATM   17  O   UNK N   1      19.908  21.032   1.093  0.00  0.00    -0.390 OA
HETATM   18  H   UNK N   1      19.350  20.935   0.305  0.00  0.00     0.210 HD
ENDBRANCH   3  17
BRANCH   1  19
HETATM   19  C   UNK N   1      23.738  19.423   3.798  0.00  0.00     0.198 C 
BRANCH  19  20
HETATM   20  O   UNK N   1      24.398  20.359   2.999  0.00  0.00    -0.398 OA
HETATM   21  H   UNK N   1      24.029  20.838   2.241  0.00  0.00     0.209 HD
ENDBRANCH  19  20
ENDBRANCH   1  19
BRANCH   2  22
HETATM   22  O   UNK N   1      21.919  21.632   2.663  0.00  0.00    -0.390 OA
HETATM   23  H   UNK N   1      22.227  22.103   3.452  0.00  0.00     0.210 HD
ENDBRANCH   2  22
TORSDOF 9
ENDMDL
MODEL 4
REMARK VINA RESULT:      -5.1      5.513      7.513
REMARK  9 active torsions:
REMARK  status: ('A' for Active; 'I' for Inactive)
REMARK    1  A    between atoms: C_4  and  C_3 
REMARK    2  A    between atoms: O_10  and  C_3 
REMARK    3  A    between atoms: C_5  and  O_11 
REMARK    4  A    between atoms: C_6  and  O_12 
REMARK    5  A    between atoms: C_7  and  O_13 
REMARK    6  A    between atoms: C_8  and  N_9 
REMARK    7  A    between atoms: P_18  and  N_9 
REMARK    8  A    between atoms: P_18  and  O_15 
REMARK    9  A    between atoms: P_18  and  O_16 
ROOT
HETATM    1  C   UNK N   1      35.043  13.127  11.196  0.00  0.00     0.179 C 
HETATM    2  C   UNK N   1      36.397  13.883  11.046  0.00  0.00     0.180 C 
HETATM    3  C   UNK N   1      36.198  15.276  10.403  0.00  0.00     0.182 C 
HETATM    4  C   UNK N   1      34.771  15.743  10.661  0.00  0.00     0.198 C 
HETATM    5  C   UNK N   1      33.818  14.734   9.934  0.00  0.00     0.257 C 
HETATM    6  O   UNK N   1      34.189  13.357  10.089  0.00  0.00    -0.354 OA
ENDROOT
BRANCH   5   7
HETATM    7  N   UNK N   1      33.837  15.010   8.474  0.00  0.00    -0.299 N 
HETATM    8  H   UNK N   1      34.625  14.704   7.903  0.00  0.00     0.167 HD
BRANCH   7   9
HETATM    9  P   UNK N   1      32.425  15.910   7.709  0.00  0.00     0.431 P 
HETATM   10  O   UNK N   1      31.844  15.829   9.149  0.00  0.00    -0.234 OA
BRANCH   9  11
HETATM   11  O   UNK N   1      33.830  16.904   7.446  0.00  0.00    -0.303 OA
HETATM   12  C   UNK N   1      33.670  17.417   6.153  0.00  0.00     0.214 C 
ENDBRANCH   9  11
BRANCH   9  13
HETATM   13  O   UNK N   1      32.199  17.569   8.198  0.00  0.00    -0.303 OA
HETATM   14  C   UNK N   1      30.878  17.648   8.653  0.00  0.00     0.214 C 
ENDBRANCH   9  13
ENDBRANCH   7   9
ENDBRANCH   5   7
BRANCH   4  15
HETATM   15  O   UNK N   1      34.576  17.046  10.204  0.00  0.00    -0.389 OA
HETATM   16  H   UNK N   1      35.334  17.579   9.917  0.00  0.00     0.210 HD
ENDBRANCH   4  15
BRANCH   3  17
HETATM   17  O   UNK N   1      37.139  16.192  10.882  0.00  0.00    -0.390 OA
HETATM   18  H   UNK N   1      36.871  17.091  11.130  0.00  0.00     0.210 HD
ENDBRANCH   3  17
BRANCH   1  19
HETATM   19  C   UNK N   1      35.268  11.626  11.357  0.00  0.00     0.198 C 
BRANCH  19  20
HETATM   20  O   UNK N   1      36.582  11.355  11.745  0.00  0.00    -0.398 OA
HETATM   21  H   UNK N   1      37.317  11.986  11.788  0.00  0.00     0.209 HD
ENDBRANCH  19  20
ENDBRANCH   1  19
BRANCH   2  22
HETATM   22  O   UNK N   1      36.963  14.009  12.321  0.00  0.00    -0.390 OA
HETATM   23  H   UNK N   1      36.629  14.284  13.188  0.00  0.00     0.210 HD
ENDBRANCH   2  22
TORSDOF 9
ENDMDL
MODEL 5
REMARK VINA RESULT:      -5.0      5.112      9.087
REMARK  9 active torsions:
REMARK  status: ('A' for Active; 'I' for Inactive)
REMARK    1  A    between atoms: C_4  and  C_3 
REMARK    2  A    between atoms: O_10  and  C_3 
REMARK    3  A    between atoms: C_5  and  O_11 
REMARK    4  A    between atoms: C_6  and  O_12 
REMARK    5  A    between atoms: C_7  and  O_13 
REMARK    6  A    between atoms: C_8  and  N_9 
REMARK    7  A    between atoms: P_18  and  N_9 
REMARK    8  A    between atoms: P_18  and  O_15 
REMARK    9  A    between atoms: P_18  and  O_16 
ROOT
HETATM    1  C   UNK N   1      20.711  19.983   2.436  0.00  0.00     0.179 C 
HETATM    2  C   UNK N   1      20.008  18.620   2.162  0.00  0.00     0.180 C 
HETATM    3  C   UNK N   1      20.492  17.527   3.144  0.00  0.00     0.182 C 
HETATM    4  C   UNK N   1      21.009  18.192   4.413  0.00  0.00     0.198 C 
HETATM    5  C   UNK N   1      22.248  19.060   4.006  0.00  0.00     0.257 C 
HETATM    6  O   UNK N   1      22.070  19.808   2.794  0.00  0.00    -0.354 OA
ENDROOT
BRANCH   5   7
HETATM    7  N   UNK N   1      23.415  18.170   3.781  0.00  0.00    -0.299 N 
HETATM    8  H   UNK N   1      23.397  17.476   3.033  0.00  0.00     0.167 HD
BRANCH   7   9
HETATM    9  P   UNK N   1      24.894  18.331   4.866  0.00  0.00     0.431 P 
HETATM   10  O   UNK N   1      24.510  16.881   5.276  0.00  0.00    -0.234 OA
BRANCH   9  11
HETATM   11  O   UNK N   1      25.456  18.602   3.241  0.00  0.00    -0.303 OA
HETATM   12  C   UNK N   1      25.734  19.973   3.182  0.00  0.00     0.214 C 
ENDBRANCH   9  11
BRANCH   9  13
HETATM   13  O   UNK N   1      26.281  17.362   4.445  0.00  0.00    -0.303 OA
HETATM   14  C   UNK N   1      27.113  17.389   5.570  0.00  0.00     0.214 C 
ENDBRANCH   9  13
ENDBRANCH   7   9
ENDBRANCH   5   7
BRANCH   4  15
HETATM   15  O   UNK N   1      21.347  17.243   5.378  0.00  0.00    -0.389 OA
HETATM   16  H   UNK N   1      21.499  16.321   5.120  0.00  0.00     0.210 HD
ENDBRANCH   4  15
BRANCH   3  17
HETATM   17  O   UNK N   1      19.476  16.606   3.416  0.00  0.00    -0.390 OA
HETATM   18  H   UNK N   1      18.787  16.809   4.068  0.00  0.00     0.210 HD
ENDBRANCH   3  17
BRANCH   1  19
HETATM   19  C   UNK N   1      20.623  20.900   1.219  0.00  0.00     0.198 C 
BRANCH  19  20
HETATM   20  O   UNK N   1      20.568  20.158   0.037  0.00  0.00    -0.398 OA
HETATM   21  H   UNK N   1      20.727  19.207  -0.061  0.00  0.00     0.209 HD
ENDBRANCH  19  20
ENDBRANCH   1  19
BRANCH   2  22
HETATM   22  O   UNK N   1      18.626  18.815   2.291  0.00  0.00    -0.390 OA
HETATM   23  H   UNK N   1      17.995  18.740   3.022  0.00  0.00     0.210 HD
ENDBRANCH   2  22
TORSDOF 9
ENDMDL
MODEL 6
REMARK VINA RESULT:      -5.0      3.007      6.233
REMARK  9 active torsions:
REMARK  status: ('A' for Active; 'I' for Inactive)
REMARK    1  A    between atoms: C_4  and  C_3 
REMARK    2  A    between atoms: O_10  and  C_3 
REMARK    3  A    between atoms: C_5  and  O_11 
REMARK    4  A    between atoms: C_6  and  O_12 
REMARK    5  A    between atoms: C_7  and  O_13 
REMARK    6  A    between atoms: C_8  and  N_9 
REMARK    7  A    between atoms: P_18  and  N_9 
REMARK    8  A    between atoms: P_18  and  O_15 
REMARK    9  A    between atoms: P_18  and  O_16 
ROOT
HETATM    1  C   UNK N   1      28.843  17.257   7.839  0.00  0.00     0.179 C 
HETATM    2  C   UNK N   1      28.527  18.173   6.619  0.00  0.00     0.180 C 
HETATM    3  C   UNK N   1      29.486  17.892   5.438  0.00  0.00     0.182 C 
HETATM    4  C   UNK N   1      30.019  16.471   5.558  0.00  0.00     0.198 C 
HETATM    5  C   UNK N   1      30.852  16.403   6.884  0.00  0.00     0.257 C 
HETATM    6  O   UNK N   1      30.237  17.063   7.999  0.00  0.00    -0.354 OA
ENDROOT
BRANCH   5   7
HETATM    7  N   UNK N   1      32.162  17.070   6.672  0.00  0.00    -0.299 N 
HETATM    8  H   UNK N   1      32.203  18.016   6.293  0.00  0.00     0.167 HD
BRANCH   7   9
HETATM    9  P   UNK N   1      33.710  16.171   7.102  0.00  0.00     0.431 P 
HETATM   10  O   UNK N   1      33.292  15.273   5.904  0.00  0.00    -0.234 OA
BRANCH   9  11
HETATM   11  O   UNK N   1      34.182  17.814   6.770  0.00  0.00    -0.303 OA
HETATM   12  C   UNK N   1      34.424  18.379   8.029  0.00  0.00     0.214 C 
ENDBRANCH   9  11
BRANCH   9  13
HETATM   13  O   UNK N   1      35.027  16.296   5.965  0.00  0.00    -0.303 OA
HETATM   14  C   UNK N   1      35.516  14.993   5.814  0.00  0.00     0.214 C 
ENDBRANCH   9  13
ENDBRANCH   7   9
ENDBRANCH   5   7
BRANCH   4  15
HETATM   15  O   UNK N   1      30.796  16.128   4.451  0.00  0.00    -0.389 OA
HETATM   16  H   UNK N   1      30.996  15.197   4.267  0.00  0.00     0.210 HD
ENDBRANCH   4  15
BRANCH   3  17
HETATM   17  O   UNK N   1      28.852  18.108   4.210  0.00  0.00    -0.390 OA
HETATM   18  H   UNK N   1      28.350  17.397   3.782  0.00  0.00     0.210 HD
ENDBRANCH   3  17
BRANCH   1  19
HETATM   19  C   UNK N   1      28.263  17.837   9.125  0.00  0.00     0.198 C 
BRANCH  19  20
HETATM   20  O   UNK N   1      27.493  18.972   8.860  0.00  0.00    -0.398 OA
HETATM   21  H   UNK N   1      26.774  19.049   8.215  0.00  0.00     0.209 HD
ENDBRANCH  19  20
ENDBRANCH   1  19
BRANCH   2  22
HETATM   22  O   UNK N   1      27.199  17.939   6.237  0.00  0.00    -0.390 OA
HETATM   23  H   UNK N   1      26.672  17.143   6.069  0.00  0.00     0.210 HD
ENDBRANCH   2  22
TORSDOF 9
ENDMDL
MODEL 7
REMARK VINA RESULT:      -5.0      6.425      9.549
REMARK  9 active torsions:
REMARK  status: ('A' for Active; 'I' for Inactive)
REMARK    1  A    between atoms: C_4  and  C_3 
REMARK    2  A    between atoms: O_10  and  C_3 
REMARK    3  A    between atoms: C_5  and  O_11 
REMARK    4  A    between atoms: C_6  and  O_12 
REMARK    5  A    between atoms: C_7  and  O_13 
REMARK    6  A    between atoms: C_8  and  N_9 
REMARK    7  A    between atoms: P_18  and  N_9 
REMARK    8  A    between atoms: P_18  and  O_15 
REMARK    9  A    between atoms: P_18  and  O_16 
ROOT
HETATM    1  C   UNK N   1      34.214  17.230   9.200  0.00  0.00     0.179 C 
HETATM    2  C   UNK N   1      33.043  16.284   8.800  0.00  0.00     0.180 C 
HETATM    3  C   UNK N   1      33.154  14.915   9.512  0.00  0.00     0.182 C 
HETATM    4  C   UNK N   1      33.960  15.085  10.793  0.00  0.00     0.198 C 
HETATM    5  C   UNK N   1      35.402  15.531  10.373  0.00  0.00     0.257 C 
HETATM    6  O   UNK N   1      35.434  16.524   9.338  0.00  0.00    -0.354 OA
ENDROOT
BRANCH   5   7
HETATM    7  N   UNK N   1      36.143  14.356   9.849  0.00  0.00    -0.299 N 
HETATM    8  H   UNK N   1      36.023  14.061   8.879  0.00  0.00     0.167 HD
BRANCH   7   9
HETATM    9  P   UNK N   1      37.282  13.436  10.966  0.00  0.00     0.431 P 
HETATM   10  O   UNK N   1      36.783  14.474  12.011  0.00  0.00    -0.234 OA
BRANCH   9  11
HETATM   11  O   UNK N   1      36.143  12.264  10.367  0.00  0.00    -0.303 OA
HETATM   12  C   UNK N   1      36.320  12.271   8.978  0.00  0.00     0.214 C 
ENDBRANCH   9  11
BRANCH   9  13
HETATM   13  O   UNK N   1      36.540  12.486  12.227  0.00  0.00    -0.303 OA
HETATM   14  C   UNK N   1      37.445  11.453  12.499  0.00  0.00     0.214 C 
ENDBRANCH   9  13
ENDBRANCH   7   9
ENDBRANCH   5   7
BRANCH   4  15
HETATM   15  O   UNK N   1      33.989  13.903  11.532  0.00  0.00    -0.389 OA
HETATM   16  H   UNK N   1      34.831  13.562  11.872  0.00  0.00     0.210 HD
ENDBRANCH   4  15
BRANCH   3  17
HETATM   17  O   UNK N   1      31.891  14.370   9.761  0.00  0.00    -0.390 OA
HETATM   18  H   UNK N   1      31.090  14.903   9.633  0.00  0.00     0.210 HD
ENDBRANCH   3  17
BRANCH   1  19
HETATM   19  C   UNK N   1      34.390  18.348   8.176  0.00  0.00     0.198 C 
BRANCH  19  20
HETATM   20  O   UNK N   1      35.398  19.231   8.567  0.00  0.00    -0.398 OA
HETATM   21  H   UNK N   1      35.317  20.190   8.685  0.00  0.00     0.209 HD
ENDBRANCH  19  20
ENDBRANCH   1  19
BRANCH   2  22
HETATM   22  O   UNK N   1      31.841  16.917   9.143  0.00  0.00    -0.390 OA
HETATM   23  H   UNK N   1      30.904  16.692   9.046  0.00  0.00     0.210 HD
ENDBRANCH   2  22
TORSDOF 9
ENDMDL
MODEL 8
REMARK VINA RESULT:      -5.0      7.054      9.466
REMARK  9 active torsions:
REMARK  status: ('A' for Active; 'I' for Inactive)
REMARK    1  A    between atoms: C_4  and  C_3 
REMARK    2  A    between atoms: O_10  and  C_3 
REMARK    3  A    between atoms: C_5  and  O_11 
REMARK    4  A    between atoms: C_6  and  O_12 
REMARK    5  A    between atoms: C_7  and  O_13 
REMARK    6  A    between atoms: C_8  and  N_9 
REMARK    7  A    between atoms: P_18  and  N_9 
REMARK    8  A    between atoms: P_18  and  O_15 
REMARK    9  A    between atoms: P_18  and  O_16 
ROOT
HETATM    1  C   UNK N   1      35.437  13.230  13.276  0.00  0.00     0.179 C 
HETATM    2  C   UNK N   1      36.644  12.542  12.571  0.00  0.00     0.180 C 
HETATM    3  C   UNK N   1      37.107  13.345  11.332  0.00  0.00     0.182 C 
HETATM    4  C   UNK N   1      36.697  14.801  11.502  0.00  0.00     0.198 C 
HETATM    5  C   UNK N   1      35.131  14.837  11.544  0.00  0.00     0.257 C 
HETATM    6  O   UNK N   1      34.540  13.801  12.340  0.00  0.00    -0.354 OA
ENDROOT
BRANCH   5   7
HETATM    7  N   UNK N   1      34.602  14.659  10.167  0.00  0.00    -0.299 N 
HETATM    8  H   UNK N   1      34.569  13.732   9.743  0.00  0.00     0.167 HD
BRANCH   7   9
HETATM    9  P   UNK N   1      34.006  16.131   9.234  0.00  0.00     0.431 P 
HETATM   10  O   UNK N   1      34.548  16.896  10.475  0.00  0.00    -0.234 OA
BRANCH   9  11
HETATM   11  O   UNK N   1      35.154  15.334   8.196  0.00  0.00    -0.303 OA
HETATM   12  C   UNK N   1      34.387  14.816   7.146  0.00  0.00     0.214 C 
ENDBRANCH   9  11
BRANCH   9  13
HETATM   13  O   UNK N   1      35.228  17.204   8.604  0.00  0.00    -0.303 OA
HETATM   14  C   UNK N   1      34.545  18.361   8.213  0.00  0.00     0.214 C 
ENDBRANCH   9  13
ENDBRANCH   7   9
ENDBRANCH   5   7
BRANCH   4  15
HETATM   15  O   UNK N   1      37.196  15.590  10.465  0.00  0.00    -0.389 OA
HETATM   16  H   UNK N   1      36.793  16.452  10.273  0.00  0.00     0.210 HD
ENDBRANCH   4  15
BRANCH   3  17
HETATM   17  O   UNK N   1      38.484  13.212  11.130  0.00  0.00    -0.390 OA
HETATM   18  H   UNK N   1      38.965  12.453  11.495  0.00  0.00     0.210 HD
ENDBRANCH   3  17
BRANCH   1  19
HETATM   19  C   UNK N   1      34.683  12.242  14.162  0.00  0.00     0.198 C 
BRANCH  19  20
HETATM   20  O   UNK N   1      34.202  12.869  15.313  0.00  0.00    -0.398 OA
HETATM   21  H   UNK N   1      34.667  12.971  16.158  0.00  0.00     0.209 HD
ENDBRANCH  19  20
ENDBRANCH   1  19
BRANCH   2  22
HETATM   22  O   UNK N   1      37.685  12.438  13.503  0.00  0.00    -0.390 OA
HETATM   23  H   UNK N   1      38.325  13.061  13.878  0.00  0.00     0.210 HD
ENDBRANCH   2  22
TORSDOF 9
ENDMDL
MODEL 9
REMARK VINA RESULT:      -4.9      1.877      2.584
REMARK  9 active torsions:
REMARK  status: ('A' for Active; 'I' for Inactive)
REMARK    1  A    between atoms: C_4  and  C_3 
REMARK    2  A    between atoms: O_10  and  C_3 
REMARK    3  A    between atoms: C_5  and  O_11 
REMARK    4  A    between atoms: C_6  and  O_12 
REMARK    5  A    between atoms: C_7  and  O_13 
REMARK    6  A    between atoms: C_8  and  N_9 
REMARK    7  A    between atoms: P_18  and  N_9 
REMARK    8  A    between atoms: P_18  and  O_15 
REMARK    9  A    between atoms: P_18  and  O_16 
ROOT
HETATM    1  C   UNK N   1      30.773  17.267   8.013  0.00  0.00     0.179 C 
HETATM    2  C   UNK N   1      29.858  18.148   8.915  0.00  0.00     0.180 C 
HETATM    3  C   UNK N   1      28.415  18.214   8.363  0.00  0.00     0.182 C 
HETATM    4  C   UNK N   1      28.152  16.981   7.509  0.00  0.00     0.198 C 
HETATM    5  C   UNK N   1      29.139  17.044   6.293  0.00  0.00     0.257 C 
HETATM    6  O   UNK N   1      30.474  17.439   6.639  0.00  0.00    -0.354 OA
ENDROOT
BRANCH   5   7
HETATM    7  N   UNK N   1      28.646  18.048   5.316  0.00  0.00    -0.299 N 
HETATM    8  H   UNK N   1      28.784  19.045   5.487  0.00  0.00     0.167 HD
BRANCH   7   9
HETATM    9  P   UNK N   1      27.782  17.476   3.794  0.00  0.00     0.431 P 
HETATM   10  O   UNK N   1      28.067  16.070   4.395  0.00  0.00    -0.234 OA
BRANCH   9  11
HETATM   11  O   UNK N   1      26.656  18.510   4.627  0.00  0.00    -0.303 OA
HETATM   12  C   UNK N   1      26.374  19.537   3.719  0.00  0.00     0.214 C 
ENDBRANCH   9  11
BRANCH   9  13
HETATM   13  O   UNK N   1      26.210  16.752   4.014  0.00  0.00    -0.303 OA
HETATM   14  C   UNK N   1      26.097  15.789   3.005  0.00  0.00     0.214 C 
ENDBRANCH   9  13
ENDBRANCH   7   9
ENDBRANCH   5   7
BRANCH   4  15
HETATM   15  O   UNK N   1      26.824  16.934   7.084  0.00  0.00    -0.389 OA
HETATM   16  H   UNK N   1      26.368  16.081   7.011  0.00  0.00     0.210 HD
ENDBRANCH   4  15
BRANCH   3  17
HETATM   17  O   UNK N   1      27.483  18.338   9.398  0.00  0.00    -0.390 OA
HETATM   18  H   UNK N   1      27.755  18.228  10.322  0.00  0.00     0.210 HD
ENDBRANCH   3  17
BRANCH   1  19
HETATM   19  C   UNK N   1      32.247  17.582   8.253  0.00  0.00     0.198 C 
BRANCH  19  20
HETATM   20  O   UNK N   1      32.731  16.893   9.366  0.00  0.00    -0.398 OA
HETATM   21  H   UNK N   1      32.509  17.059  10.295  0.00  0.00     0.209 HD
ENDBRANCH  19  20
ENDBRANCH   1  19
BRANCH   2  22
HETATM   22  O   UNK N   1      29.864  17.597  10.203  0.00  0.00    -0.390 OA
HETATM   23  H   UNK N   1      30.096  16.730  10.569  0.00  0.00     0.210 HD
ENDBRANCH   2  22
TORSDOF 9
ENDMDL
