MODEL 1
REMARK VINA RESULT:      -5.8      0.000      0.000
REMARK  5 active torsions:
REMARK  status: ('A' for Active; 'I' for Inactive)
REMARK    1  A    between atoms: C_8  and  C_4 
REMARK    2  A    between atoms: O_14  and  C_4 
REMARK    3  A    between atoms: C_7  and  C_5 
REMARK    4  A    between atoms: C_6  and  O_15 
REMARK    5  A    between atoms: O_16  and  C_9 
ROOT
HETATM    1  C   UNK N   1      29.398  17.181   4.693  0.00  0.00     0.160 C 
HETATM    2  C   UNK N   1      30.635  17.179   6.773  0.00  0.00     0.109 A 
HETATM    3  C   UNK N   1      30.804  17.514   8.121  0.00  0.00     0.037 A 
HETATM    4  C   UNK N   1      29.808  18.297   8.736  0.00  0.00     0.154 A 
HETATM    5  C   UNK N   1      28.568  18.332   6.708  0.00  0.00     0.328 A 
HETATM    6  N   UNK N   1      28.718  18.685   8.022  0.00  0.00    -0.288 N 
ATOM      7  HN  UNK N   1      27.998  19.248   8.474  1.00  0.00     0.172 HD
HETATM    8  N   UNK N   1      29.530  17.571   6.088  0.00  0.00    -0.313 N 
HETATM    9  O   UNK N   1      27.583  18.707   6.093  0.00  0.00    -0.246 OA
ENDROOT
BRANCH   3  10
HETATM   10  C   UNK N   1      32.101  17.141   8.812  0.00  0.00     0.163 C 
HETATM   11  C   UNK N   1      33.345  17.603   8.064  0.00  0.00     0.071 C 
HETATM   12  C   UNK N   1      34.377  16.814   8.801  0.00  0.00     0.152 C 
HETATM   13  C   UNK N   1      33.641  15.480   8.897  0.00  0.00     0.174 C 
HETATM   14  O   UNK N   1      32.260  15.756   9.060  0.00  0.00    -0.371 OA
BRANCH  12  15
HETATM   15  O   UNK N   1      34.568  17.383  10.067  0.00  0.00    -0.393 OA
HETATM   16  H   UNK N   1      34.813  18.013  10.763  0.00  0.00     0.210 HD
ENDBRANCH  12  15
BRANCH  13  17
HETATM   17  C   UNK N   1      34.144  14.609  10.045  0.00  0.00     0.198 C 
BRANCH  17  18
HETATM   18  O   UNK N   1      33.476  14.911  11.232  0.00  0.00    -0.398 OA
HETATM   19  H   UNK N   1      32.638  15.399  11.270  0.00  0.00     0.209 HD
ENDBRANCH  17  18
ENDBRANCH  13  17
ENDBRANCH   3  10
BRANCH   4  20
HETATM   20  O   UNK N   1      29.932  18.702  10.011  0.00  0.00    -0.345 OA
HETATM   21  H   UNK N   1      29.587  19.530  10.280  0.00  0.00     0.219 HD
ENDBRANCH   4  20
TORSDOF 5
ENDMDL
MODEL 2
REMARK VINA RESULT:      -5.7      2.032      6.109
REMARK  5 active torsions:
REMARK  status: ('A' for Active; 'I' for Inactive)
REMARK    1  A    between atoms: C_8  and  C_4 
REMARK    2  A    between atoms: O_14  and  C_4 
REMARK    3  A    between atoms: C_7  and  C_5 
REMARK    4  A    between atoms: C_6  and  O_15 
REMARK    5  A    between atoms: O_16  and  C_9 
ROOT
HETATM    1  C   UNK N   1      31.883  15.106   6.359  0.00  0.00     0.160 C 
HETATM    2  C   UNK N   1      30.171  16.763   6.785  0.00  0.00     0.109 A 
HETATM    3  C   UNK N   1      29.514  17.694   7.598  0.00  0.00     0.037 A 
HETATM    4  C   UNK N   1      29.961  17.840   8.927  0.00  0.00     0.154 A 
HETATM    5  C   UNK N   1      31.647  16.208   8.551  0.00  0.00     0.328 A 
HETATM    6  N   UNK N   1      31.012  17.101   9.370  0.00  0.00    -0.288 N 
ATOM      7  HN  UNK N   1      31.333  17.215  10.332  1.00  0.00     0.172 HD
HETATM    8  N   UNK N   1      31.226  16.048   7.253  0.00  0.00    -0.313 N 
HETATM    9  O   UNK N   1      32.581  15.552   8.985  0.00  0.00    -0.246 OA
ENDROOT
BRANCH   3  10
HETATM   10  C   UNK N   1      28.280  18.393   7.063  0.00  0.00     0.163 C 
HETATM   11  C   UNK N   1      28.186  18.384   5.543  0.00  0.00     0.071 C 
HETATM   12  C   UNK N   1      27.101  19.395   5.363  0.00  0.00     0.152 C 
HETATM   13  C   UNK N   1      27.563  20.432   6.383  0.00  0.00     0.174 C 
HETATM   14  O   UNK N   1      28.139  19.739   7.477  0.00  0.00    -0.371 OA
BRANCH  12  15
HETATM   15  O   UNK N   1      25.877  18.822   5.736  0.00  0.00    -0.393 OA
HETATM   16  H   UNK N   1      24.949  18.733   6.002  0.00  0.00     0.210 HD
ENDBRANCH  12  15
BRANCH  13  17
HETATM   17  C   UNK N   1      26.427  21.331   6.867  0.00  0.00     0.198 C 
BRANCH  17  18
HETATM   18  O   UNK N   1      25.903  20.869   8.074  0.00  0.00    -0.398 OA
HETATM   19  H   UNK N   1      25.023  20.468   8.161  0.00  0.00     0.209 HD
ENDBRANCH  17  18
ENDBRANCH  13  17
ENDBRANCH   3  10
BRANCH   4  20
HETATM   20  O   UNK N   1      29.341  18.674   9.779  0.00  0.00    -0.345 OA
HETATM   21  H   UNK N   1      29.155  18.402  10.655  0.00  0.00     0.219 HD
ENDBRANCH   4  20
TORSDOF 5
ENDMDL
MODEL 3
REMARK VINA RESULT:      -5.6      4.369      6.875
REMARK  5 active torsions:
REMARK  status: ('A' for Active; 'I' for Inactive)
REMARK    1  A    between atoms: C_8  and  C_4 
REMARK    2  A    between atoms: O_14  and  C_4 
REMARK    3  A    between atoms: C_7  and  C_5 
REMARK    4  A    between atoms: C_6  and  O_15 
REMARK    5  A    between atoms: O_16  and  C_9 
ROOT
HETATM    1  C   UNK N   1      34.920  12.302  12.597  0.00  0.00     0.160 C 
HETATM    2  C   UNK N   1      34.545  13.991  10.904  0.00  0.00     0.109 A 
HETATM    3  C   UNK N   1      34.768  15.247  10.327  0.00  0.00     0.037 A 
HETATM    4  C   UNK N   1      35.639  16.132  10.992  0.00  0.00     0.154 A 
HETATM    5  C   UNK N   1      36.024  14.505  12.681  0.00  0.00     0.328 A 
HETATM    6  N   UNK N   1      36.246  15.744  12.144  0.00  0.00    -0.288 N 
ATOM      7  HN  UNK N   1      36.879  16.388  12.618  1.00  0.00     0.172 HD
HETATM    8  N   UNK N   1      35.175  13.627  12.050  0.00  0.00    -0.313 N 
HETATM    9  O   UNK N   1      36.576  14.192  13.723  0.00  0.00    -0.246 OA
ENDROOT
BRANCH   3  10
HETATM   10  C   UNK N   1      33.964  15.645   9.105  0.00  0.00     0.163 C 
HETATM   11  C   UNK N   1      32.970  14.580   8.656  0.00  0.00     0.071 C 
HETATM   12  C   UNK N   1      32.623  15.128   7.310  0.00  0.00     0.152 C 
HETATM   13  C   UNK N   1      34.020  15.527   6.843  0.00  0.00     0.174 C 
HETATM   14  O   UNK N   1      34.743  15.985   7.973  0.00  0.00    -0.371 OA
BRANCH  12  15
HETATM   15  O   UNK N   1      31.799  16.249   7.472  0.00  0.00    -0.393 OA
HETATM   16  H   UNK N   1      31.506  17.172   7.532  0.00  0.00     0.210 HD
ENDBRANCH  12  15
BRANCH  13  17
HETATM   17  C   UNK N   1      33.995  16.606   5.761  0.00  0.00     0.198 C 
BRANCH  17  18
HETATM   18  O   UNK N   1      34.247  17.866   6.305  0.00  0.00    -0.398 OA
HETATM   19  H   UNK N   1      35.109  18.309   6.259  0.00  0.00     0.209 HD
ENDBRANCH  17  18
ENDBRANCH  13  17
ENDBRANCH   3  10
BRANCH   4  20
HETATM   20  O   UNK N   1      35.855  17.373  10.524  0.00  0.00    -0.345 OA
HETATM   21  H   UNK N   1      36.523  17.529   9.886  0.00  0.00     0.219 HD
ENDBRANCH   4  20
TORSDOF 5
ENDMDL
MODEL 4
REMARK VINA RESULT:      -5.5      3.762      6.750
REMARK  5 active torsions:
REMARK  status: ('A' for Active; 'I' for Inactive)
REMARK    1  A    between atoms: C_8  and  C_4 
REMARK    2  A    between atoms: O_14  and  C_4 
REMARK    3  A    between atoms: C_7  and  C_5 
REMARK    4  A    between atoms: C_6  and  O_15 
REMARK    5  A    between atoms: O_16  and  C_9 
ROOT
HETATM    1  C   UNK N   1      38.190  13.282  10.555  0.00  0.00     0.160 C 
HETATM    2  C   UNK N   1      36.344  14.617   9.737  0.00  0.00     0.109 A 
HETATM    3  C   UNK N   1      35.043  15.124   9.818  0.00  0.00     0.037 A 
HETATM    4  C   UNK N   1      34.235  14.699  10.892  0.00  0.00     0.154 A 
HETATM    5  C   UNK N   1      36.020  13.366  11.721  0.00  0.00     0.328 A 
HETATM    6  N   UNK N   1      34.739  13.837  11.814  0.00  0.00    -0.288 N 
ATOM      7  HN  UNK N   1      34.150  13.536  12.591  1.00  0.00     0.172 HD
HETATM    8  N   UNK N   1      36.824  13.766  10.680  0.00  0.00    -0.313 N 
HETATM    9  O   UNK N   1      36.437  12.584  12.561  0.00  0.00    -0.246 OA
ENDROOT
BRANCH   3  10
HETATM   10  C   UNK N   1      34.521  15.989   8.687  0.00  0.00     0.163 C 
HETATM   11  C   UNK N   1      34.580  17.482   8.985  0.00  0.00     0.071 C 
HETATM   12  C   UNK N   1      33.720  17.984   7.871  0.00  0.00     0.152 C 
HETATM   13  C   UNK N   1      32.608  16.941   7.934  0.00  0.00     0.174 C 
HETATM   14  O   UNK N   1      33.193  15.700   8.290  0.00  0.00    -0.371 OA
BRANCH  12  15
HETATM   15  O   UNK N   1      34.435  17.895   6.668  0.00  0.00    -0.393 OA
HETATM   16  H   UNK N   1      34.644  17.914   5.722  0.00  0.00     0.210 HD
ENDBRANCH  12  15
BRANCH  13  17
HETATM   17  C   UNK N   1      31.848  16.807   6.616  0.00  0.00     0.198 C 
BRANCH  17  18
HETATM   18  O   UNK N   1      30.611  17.448   6.684  0.00  0.00    -0.398 OA
HETATM   19  H   UNK N   1      30.061  17.640   5.908  0.00  0.00     0.209 HD
ENDBRANCH  17  18
ENDBRANCH  13  17
ENDBRANCH   3  10
BRANCH   4  20
HETATM   20  O   UNK N   1      32.958  15.102  11.001  0.00  0.00    -0.345 OA
HETATM   21  H   UNK N   1      32.509  15.454  10.259  0.00  0.00     0.219 HD
ENDBRANCH   4  20
TORSDOF 5
ENDMDL
MODEL 5
REMARK VINA RESULT:      -5.5      9.531     11.908
REMARK  5 active torsions:
REMARK  status: ('A' for Active; 'I' for Inactive)
REMARK    1  A    between atoms: C_8  and  C_4 
REMARK    2  A    between atoms: O_14  and  C_4 
REMARK    3  A    between atoms: C_7  and  C_5 
REMARK    4  A    between atoms: C_6  and  O_15 
REMARK    5  A    between atoms: O_16  and  C_9 
ROOT
HETATM    1  C   UNK N   1      24.558  12.310   9.968  0.00  0.00     0.160 C 
HETATM    2  C   UNK N   1      22.876  13.571   8.769  0.00  0.00     0.109 A 
HETATM    3  C   UNK N   1      21.594  14.113   8.625  0.00  0.00     0.037 A 
HETATM    4  C   UNK N   1      20.647  13.843   9.632  0.00  0.00     0.154 A 
HETATM    5  C   UNK N   1      22.267  12.587  10.835  0.00  0.00     0.328 A 
HETATM    6  N   UNK N   1      21.002  13.094  10.709  0.00  0.00    -0.288 N 
ATOM      7  HN  UNK N   1      20.314  12.906  11.437  1.00  0.00     0.172 HD
HETATM    8  N   UNK N   1      23.205  12.835   9.861  0.00  0.00    -0.313 N 
HETATM    9  O   UNK N   1      22.550  11.908  11.809  0.00  0.00    -0.246 OA
ENDROOT
BRANCH   3  10
HETATM   10  C   UNK N   1      21.245  14.840   7.340  0.00  0.00     0.163 C 
HETATM   11  C   UNK N   1      21.374  16.354   7.443  0.00  0.00     0.071 C 
HETATM   12  C   UNK N   1      20.665  16.742   6.187  0.00  0.00     0.152 C 
HETATM   13  C   UNK N   1      19.484  15.778   6.267  0.00  0.00     0.174 C 
HETATM   14  O   UNK N   1      19.948  14.569   6.844  0.00  0.00    -0.371 OA
BRANCH  12  15
HETATM   15  O   UNK N   1      21.487  16.451   5.090  0.00  0.00    -0.393 OA
HETATM   16  H   UNK N   1      22.003  16.558   4.276  0.00  0.00     0.210 HD
ENDBRANCH  12  15
BRANCH  13  17
HETATM   17  C   UNK N   1      18.852  15.504   4.904  0.00  0.00     0.198 C 
BRANCH  17  18
HETATM   18  O   UNK N   1      18.800  16.666   4.134  0.00  0.00    -0.398 OA
HETATM   19  H   UNK N   1      18.342  17.475   4.411  0.00  0.00     0.209 HD
ENDBRANCH  17  18
ENDBRANCH  13  17
ENDBRANCH   3  10
BRANCH   4  20
HETATM   20  O   UNK N   1      19.382  14.285   9.531  0.00  0.00    -0.345 OA
HETATM   21  H   UNK N   1      18.667  13.728   9.765  0.00  0.00     0.219 HD
ENDBRANCH   4  20
TORSDOF 5
ENDMDL
MODEL 6
REMARK VINA RESULT:      -5.4      4.099      5.048
REMARK  5 active torsions:
REMARK  status: ('A' for Active; 'I' for Inactive)
REMARK    1  A    between atoms: C_8  and  C_4 
REMARK    2  A    between atoms: O_14  and  C_4 
REMARK    3  A    between atoms: C_7  and  C_5 
REMARK    4  A    between atoms: C_6  and  O_15 
REMARK    5  A    between atoms: O_16  and  C_9 
ROOT
HETATM    1  C   UNK N   1      34.358  15.154   5.618  0.00  0.00     0.160 C 
HETATM    2  C   UNK N   1      34.887  14.988   7.974  0.00  0.00     0.109 A 
HETATM    3  C   UNK N   1      35.054  15.530   9.253  0.00  0.00     0.037 A 
HETATM    4  C   UNK N   1      34.880  16.919   9.409  0.00  0.00     0.154 A 
HETATM    5  C   UNK N   1      34.367  17.126   7.098  0.00  0.00     0.328 A 
HETATM    6  N   UNK N   1      34.540  17.681   8.337  0.00  0.00    -0.288 N 
ATOM      7  HN  UNK N   1      34.411  18.686   8.457  1.00  0.00     0.172 HD
HETATM    8  N   UNK N   1      34.535  15.773   6.923  0.00  0.00    -0.313 N 
HETATM    9  O   UNK N   1      34.073  17.841   6.153  0.00  0.00    -0.246 OA
ENDROOT
BRANCH   3  10
HETATM   10  C   UNK N   1      35.546  14.631  10.371  0.00  0.00     0.163 C 
HETATM   11  C   UNK N   1      36.956  14.099  10.149  0.00  0.00     0.071 C 
HETATM   12  C   UNK N   1      36.983  13.041  11.204  0.00  0.00     0.152 C 
HETATM   13  C   UNK N   1      35.590  12.453  10.993  0.00  0.00     0.174 C 
HETATM   14  O   UNK N   1      34.720  13.513  10.635  0.00  0.00    -0.371 OA
BRANCH  12  15
HETATM   15  O   UNK N   1      37.094  13.652  12.460  0.00  0.00    -0.393 OA
HETATM   16  H   UNK N   1      37.325  13.803  13.389  0.00  0.00     0.210 HD
ENDBRANCH  12  15
BRANCH  13  17
HETATM   17  C   UNK N   1      35.061  11.731  12.230  0.00  0.00     0.198 C 
BRANCH  17  18
HETATM   18  O   UNK N   1      34.448  12.626  13.108  0.00  0.00    -0.398 OA
HETATM   19  H   UNK N   1      33.724  12.382  13.707  0.00  0.00     0.209 HD
ENDBRANCH  17  18
ENDBRANCH  13  17
ENDBRANCH   3  10
BRANCH   4  20
HETATM   20  O   UNK N   1      35.080  17.514  10.597  0.00  0.00    -0.345 OA
HETATM   21  H   UNK N   1      35.130  17.002  11.380  0.00  0.00     0.219 HD
ENDBRANCH   4  20
TORSDOF 5
ENDMDL
MODEL 7
REMARK VINA RESULT:      -5.3      1.400      2.119
REMARK  5 active torsions:
REMARK  status: ('A' for Active; 'I' for Inactive)
REMARK    1  A    between atoms: C_8  and  C_4 
REMARK    2  A    between atoms: O_14  and  C_4 
REMARK    3  A    between atoms: C_7  and  C_5 
REMARK    4  A    between atoms: C_6  and  O_15 
REMARK    5  A    between atoms: O_16  and  C_9 
ROOT
HETATM    1  C   UNK N   1      28.078  19.072   7.878  0.00  0.00     0.160 C 
HETATM    2  C   UNK N   1      30.150  17.856   8.167  0.00  0.00     0.109 A 
HETATM    3  C   UNK N   1      31.068  16.858   7.817  0.00  0.00     0.037 A 
HETATM    4  C   UNK N   1      30.731  15.996   6.755  0.00  0.00     0.154 A 
HETATM    5  C   UNK N   1      28.680  17.157   6.447  0.00  0.00     0.328 A 
HETATM    6  N   UNK N   1      29.555  16.164   6.096  0.00  0.00    -0.288 N 
ATOM      7  HN  UNK N   1      29.319  15.539   5.326  1.00  0.00     0.172 HD
HETATM    8  N   UNK N   1      28.988  18.007   7.483  0.00  0.00    -0.313 N 
HETATM    9  O   UNK N   1      27.627  17.273   5.842  0.00  0.00    -0.246 OA
ENDROOT
BRANCH   3  10
HETATM   10  C   UNK N   1      32.303  16.664   8.676  0.00  0.00     0.163 C 
HETATM   11  C   UNK N   1      33.574  17.222   8.048  0.00  0.00     0.071 C 
HETATM   12  C   UNK N   1      34.584  16.588   8.947  0.00  0.00     0.152 C 
HETATM   13  C   UNK N   1      33.983  15.189   9.041  0.00  0.00     0.174 C 
HETATM   14  O   UNK N   1      32.571  15.320   9.026  0.00  0.00    -0.371 OA
BRANCH  12  15
HETATM   15  O   UNK N   1      34.561  17.237  10.189  0.00  0.00    -0.393 OA
HETATM   16  H   UNK N   1      34.675  17.917  10.871  0.00  0.00     0.210 HD
ENDBRANCH  12  15
BRANCH  13  17
HETATM   17  C   UNK N   1      34.429  14.436  10.292  0.00  0.00     0.198 C 
BRANCH  17  18
HETATM   18  O   UNK N   1      33.644  14.782  11.392  0.00  0.00    -0.398 OA
HETATM   19  H   UNK N   1      33.924  14.663  12.313  0.00  0.00     0.209 HD
ENDBRANCH  17  18
ENDBRANCH  13  17
ENDBRANCH   3  10
BRANCH   4  20
HETATM   20  O   UNK N   1      31.539  14.982   6.403  0.00  0.00    -0.345 OA
HETATM   21  H   UNK N   1      32.461  15.036   6.558  0.00  0.00     0.219 HD
ENDBRANCH   4  20
TORSDOF 5
ENDMDL
MODEL 8
REMARK VINA RESULT:      -5.3     11.030     12.440
REMARK  5 active torsions:
REMARK  status: ('A' for Active; 'I' for Inactive)
REMARK    1  A    between atoms: C_8  and  C_4 
REMARK    2  A    between atoms: O_14  and  C_4 
REMARK    3  A    between atoms: C_7  and  C_5 
REMARK    4  A    between atoms: C_6  and  O_15 
REMARK    5  A    between atoms: O_16  and  C_9 
ROOT
HETATM    1  C   UNK N   1      20.295  12.471   5.722  0.00  0.00     0.160 C 
HETATM    2  C   UNK N   1      20.283  14.830   5.179  0.00  0.00     0.109 A 
HETATM    3  C   UNK N   1      20.432  16.183   5.503  0.00  0.00     0.037 A 
HETATM    4  C   UNK N   1      20.721  16.512   6.843  0.00  0.00     0.154 A 
HETATM    5  C   UNK N   1      20.729  14.206   7.419  0.00  0.00     0.328 A 
HETATM    6  N   UNK N   1      20.864  15.523   7.764  0.00  0.00    -0.288 N 
ATOM      7  HN  UNK N   1      21.078  15.768   8.731  1.00  0.00     0.172 HD
HETATM    8  N   UNK N   1      20.444  13.863   6.119  0.00  0.00    -0.313 N 
HETATM    9  O   UNK N   1      20.853  13.344   8.274  0.00  0.00    -0.246 OA
ENDROOT
BRANCH   3  10
HETATM   10  C   UNK N   1      20.142  17.227   4.443  0.00  0.00     0.163 C 
HETATM   11  C   UNK N   1      20.074  16.659   3.031  0.00  0.00     0.071 C 
HETATM   12  C   UNK N   1      20.117  17.936   2.256  0.00  0.00     0.152 C 
HETATM   13  C   UNK N   1      21.200  18.664   3.046  0.00  0.00     0.174 C 
HETATM   14  O   UNK N   1      21.060  18.304   4.410  0.00  0.00    -0.371 OA
BRANCH  12  15
HETATM   15  O   UNK N   1      18.879  18.582   2.373  0.00  0.00    -0.393 OA
HETATM   16  H   UNK N   1      18.067  18.947   2.757  0.00  0.00     0.210 HD
ENDBRANCH  12  15
BRANCH  13  17
HETATM   17  C   UNK N   1      21.126  20.181   2.891  0.00  0.00     0.198 C 
BRANCH  17  18
HETATM   18  O   UNK N   1      20.262  20.739   3.833  0.00  0.00    -0.398 OA
HETATM   19  H   UNK N   1      19.641  20.220   4.368  0.00  0.00     0.209 HD
ENDBRANCH  17  18
ENDBRANCH  13  17
ENDBRANCH   3  10
BRANCH   4  20
HETATM   20  O   UNK N   1      20.821  17.793   7.236  0.00  0.00    -0.345 OA
HETATM   21  H   UNK N   1      21.054  18.459   6.620  0.00  0.00     0.219 HD
ENDBRANCH   4  20
TORSDOF 5
ENDMDL
MODEL 9
REMARK VINA RESULT:      -5.3     10.274     11.407
REMARK  5 active torsions:
REMARK  status: ('A' for Active; 'I' for Inactive)
REMARK    1  A    between atoms: C_8  and  C_4 
REMARK    2  A    between atoms: O_14  and  C_4 
REMARK    3  A    between atoms: C_7  and  C_5 
REMARK    4  A    between atoms: C_6  and  O_15 
REMARK    5  A    between atoms: O_16  and  C_9 
ROOT
HETATM    1  C   UNK N   1      23.412  20.906   2.692  0.00  0.00     0.160 C 
HETATM    2  C   UNK N   1      22.128  19.164   3.777  0.00  0.00     0.109 A 
HETATM    3  C   UNK N   1      21.006  18.337   3.899  0.00  0.00     0.037 A 
HETATM    4  C   UNK N   1      19.955  18.511   2.977  0.00  0.00     0.154 A 
HETATM    5  C   UNK N   1      21.179  20.235   1.891  0.00  0.00     0.328 A 
HETATM    6  N   UNK N   1      20.065  19.448   1.999  0.00  0.00    -0.288 N 
ATOM      7  HN  UNK N   1      19.302  19.567   1.332  1.00  0.00     0.172 HD
HETATM    8  N   UNK N   1      22.214  20.083   2.782  0.00  0.00    -0.313 N 
HETATM    9  O   UNK N   1      21.240  21.075   1.008  0.00  0.00    -0.246 OA
ENDROOT
BRANCH   3  10
HETATM   10  C   UNK N   1      20.913  17.398   5.086  0.00  0.00     0.163 C 
HETATM   11  C   UNK N   1      22.194  17.326   5.908  0.00  0.00     0.071 C 
HETATM   12  C   UNK N   1      21.881  16.123   6.737  0.00  0.00     0.152 C 
HETATM   13  C   UNK N   1      21.272  15.234   5.656  0.00  0.00     0.174 C 
HETATM   14  O   UNK N   1      20.558  16.068   4.758  0.00  0.00    -0.371 OA
BRANCH  12  15
HETATM   15  O   UNK N   1      20.930  16.472   7.706  0.00  0.00    -0.393 OA
HETATM   16  H   UNK N   1      20.524  16.867   8.493  0.00  0.00     0.210 HD
ENDBRANCH  12  15
BRANCH  13  17
HETATM   17  C   UNK N   1      20.349  14.160   6.226  0.00  0.00     0.198 C 
BRANCH  17  18
HETATM   18  O   UNK N   1      20.903  13.576   7.365  0.00  0.00    -0.398 OA
HETATM   19  H   UNK N   1      21.472  14.051   7.991  0.00  0.00     0.209 HD
ENDBRANCH  17  18
ENDBRANCH  13  17
ENDBRANCH   3  10
BRANCH   4  20
HETATM   20  O   UNK N   1      18.825  17.790   3.070  0.00  0.00    -0.345 OA
HETATM   21  H   UNK N   1      18.056  18.055   2.606  0.00  0.00     0.219 HD
ENDBRANCH   4  20
TORSDOF 5
ENDMDL
