MODEL 1
REMARK VINA RESULT:      -8.1      0.000      0.000
REMARK  22 active torsions:
REMARK  status: ('A' for Active; 'I' for Inactive)
REMARK    1  A    between atoms: C_10  and  C_5 
REMARK    2  A    between atoms: O_44  and  C_5 
REMARK    3  A    between atoms: C_11  and  C_6 
REMARK    4  A    between atoms: O_45  and  C_6 
REMARK    5  A    between atoms: C_18  and  C_9 
REMARK    6  A    between atoms: C_13  and  O_33 
REMARK    7  A    between atoms: C_14  and  O_34 
REMARK    8  A    between atoms: C_15  and  O_35 
REMARK    9  A    between atoms: C_16  and  O_48 
REMARK   10  A    between atoms: N_22  and  C_17 
REMARK   11  A    between atoms: N_23  and  C_18 
REMARK   12  A    between atoms: O_36  and  C_18 
REMARK   13  A    between atoms: C_20  and  N_31 
REMARK   14  A    between atoms: C_21  and  N_32 
REMARK   15  A    between atoms: P_50  and  O_38 
REMARK   16  A    between atoms: P_50  and  O_39 
REMARK   17  A    between atoms: P_51  and  O_40 
REMARK   18  A    between atoms: P_51  and  O_44 
REMARK   19  A    between atoms: P_52  and  O_45 
REMARK   20  A    between atoms: P_50  and  O_48 
REMARK   21  A    between atoms: P_51  and  O_49 
REMARK   22  A    between atoms: P_52  and  O_49 
ROOT
HETATM    1  O   UNK N   1      32.784  15.379   6.841  0.00  0.00    -0.287 OA
ENDROOT
BRANCH   1   2
HETATM    2  C   UNK N   1      32.374  14.954   5.568  0.00  0.00     0.216 C 
BRANCH   2   3
HETATM    3  C   UNK N   1      31.033  15.650   5.344  0.00  0.00     0.180 C 
HETATM    4  C   UNK N   1      30.380  15.242   4.042  0.00  0.00     0.183 C 
HETATM    5  C   UNK N   1      29.146  16.105   4.178  0.00  0.00     0.214 C 
HETATM    6  C   UNK N   1      29.809  17.406   4.696  0.00  0.00     0.263 C 
HETATM    7  O   UNK N   1      31.054  17.056   5.311  0.00  0.00    -0.353 OA
BRANCH   4   8
HETATM    8  O   UNK N   1      31.169  15.657   2.958  0.00  0.00    -0.390 OA
HETATM    9  H   UNK N   1      31.980  15.752   2.434  0.00  0.00     0.210 HD
ENDBRANCH   4   8
BRANCH   5  10
HETATM   10  O   UNK N   1      28.392  16.363   3.007  0.00  0.00    -0.284 OA
BRANCH  10  11
HETATM   11  P   UNK N   1      26.666  16.183   3.269  0.00  0.00     0.391 P 
HETATM   12  O   UNK N   1      26.486  15.559   4.679  0.00  0.00    -0.632 OA
BRANCH  11  13
HETATM   13  O   UNK N   1      25.987  15.043   2.150  0.00  0.00    -0.307 OA
HETATM   14  H   UNK N   1      26.535  14.591   1.489  0.00  0.00     0.222 HD
ENDBRANCH  11  13
BRANCH  11  15
HETATM   15  O   UNK N   1      25.773  17.672   3.237  0.00  0.00    -0.307 OA
HETATM   16  H   UNK N   1      25.198  18.376   2.896  0.00  0.00     0.222 HD
ENDBRANCH  11  15
ENDBRANCH  10  11
ENDBRANCH   5  10
BRANCH   6  17
HETATM   17  N   UNK N   1      28.953  18.125   5.651  0.00  0.00    -0.297 N 
HETATM   18  C   UNK N   1      28.851  17.859   6.982  0.00  0.00     0.188 A 
HETATM   19  N   UNK N   1      27.978  18.706   7.596  0.00  0.00    -0.346 N 
HETATM   20  C   UNK N   1      27.529  19.497   6.605  0.00  0.00     0.122 A 
ATOM     21  HN  UNK N   1      27.723  18.733   8.583  1.00  0.00     0.167 HD
HETATM   22  C   UNK N   1      26.605  20.526   6.644  0.00  0.00     0.131 A 
HETATM   23  C   UNK N   1      28.115  19.151   5.441  0.00  0.00     0.142 A 
HETATM   24  N   UNK N   1      26.303  21.158   5.471  0.00  0.00    -0.337 N 
HETATM   25  C   UNK N   1      26.903  20.784   4.292  0.00  0.00     0.183 A 
ATOM     26  HN  UNK N   1      25.621  21.918   5.471  1.00  0.00     0.168 HD
HETATM   27  N   UNK N   1      27.825  19.772   4.272  0.00  0.00    -0.336 N 
ATOM     28  HN  UNK N   1      28.280  19.493   3.402  1.00  0.00     0.168 HD
BRANCH  22  29
HETATM   29  N   UNK N   1      25.988  20.913   7.851  0.00  0.00    -0.383 N 
HETATM   30  H   UNK N   1      26.018  21.818   8.238  0.00  0.00     0.157 HD
HETATM   31  H   UNK N   1      25.487  20.224   8.345  0.00  0.00     0.157 HD
ENDBRANCH  22  29
ENDBRANCH   6  17
ENDBRANCH   2   3
ENDBRANCH   1   2
BRANCH   1  32
HETATM   32  P   UNK N   1      34.453  15.868   6.856  0.00  0.00     0.417 P 
HETATM   33  O   UNK N   1      35.198  15.264   5.635  0.00  0.00    -0.624 OA
HETATM   34  O   UNK N   1      34.444  17.572   6.537  0.00  0.00    -0.624 OA
BRANCH  32  35
HETATM   35  O   UNK N   1      35.343  15.635   8.342  0.00  0.00    -0.188 OA
BRANCH  35  36
HETATM   36  P   UNK N   1      34.562  16.523   9.623  0.00  0.00     0.402 P 
HETATM   37  O   UNK N   1      35.458  17.764   9.894  0.00  0.00    -0.631 OA
BRANCH  36  38
HETATM   38  O   UNK N   1      33.019  17.109   9.087  0.00  0.00    -0.307 OA
HETATM   39  H   UNK N   1      32.526  17.801   8.619  0.00  0.00     0.222 HD
ENDBRANCH  36  38
BRANCH  36  40
HETATM   40  O   UNK N   1      34.439  15.626  11.108  0.00  0.00    -0.294 OA
BRANCH  40  41
HETATM   41  C   UNK N   1      35.680  15.716  11.733  0.00  0.00     0.215 C 
BRANCH  41  42
HETATM   42  C   UNK N   1      35.992  14.398  12.430  0.00  0.00     0.180 C 
HETATM   43  C   UNK N   1      36.876  13.485  11.614  0.00  0.00     0.182 C 
HETATM   44  C   UNK N   1      36.684  12.180  12.362  0.00  0.00     0.198 C 
HETATM   45  C   UNK N   1      35.274  12.362  12.999  0.00  0.00     0.259 C 
HETATM   46  O   UNK N   1      34.817  13.652  12.614  0.00  0.00    -0.353 OA
BRANCH  43  47
HETATM   47  O   UNK N   1      36.336  13.370  10.327  0.00  0.00    -0.390 OA
HETATM   48  H   UNK N   1      36.313  12.701   9.625  0.00  0.00     0.210 HD
ENDBRANCH  43  47
BRANCH  44  49
HETATM   49  O   UNK N   1      37.674  12.057  13.342  0.00  0.00    -0.388 OA
HETATM   50  H   UNK N   1      38.573  12.050  13.704  0.00  0.00     0.210 HD
ENDBRANCH  44  49
BRANCH  45  51
HETATM   51  N   UNK N   1      35.284  12.279  14.477  0.00  0.00    -0.336 N 
HETATM   52  C   UNK N   1      34.966  11.119  15.127  0.00  0.00     0.093 A 
HETATM   53  C   UNK N   1      35.002  11.062  16.527  0.00  0.00     0.018 A 
HETATM   54  C   UNK N   1      35.372  12.196  17.256  0.00  0.00     0.018 A 
HETATM   55  C   UNK N   1      35.691  13.378  16.580  0.00  0.00     0.030 A 
HETATM   56  C   UNK N   1      35.629  13.388  15.194  0.00  0.00     0.108 A 
BRANCH  55  57
HETATM   57  C   UNK N   1      36.111  14.606  17.283  0.00  0.00     0.145 C 
BRANCH  57  58
HETATM   58  N   UNK N   1      37.017  15.366  16.790  0.00  0.00    -0.379 N 
HETATM   59  H   UNK N   1      37.910  15.056  16.511  0.00  0.00     0.158 HD
ATOM     60  HN  UNK N   1      36.801  16.356  16.680  1.00  0.00     0.158 HD
ENDBRANCH  57  58
BRANCH  57  61
HETATM   61  O   UNK N   1      35.526  14.945  18.452  0.00  0.00    -0.346 OA
HETATM   62  H   UNK N   1      34.999  14.399  19.000  0.00  0.00     0.219 HD
ENDBRANCH  57  61
ENDBRANCH  55  57
ENDBRANCH  45  51
ENDBRANCH  41  42
ENDBRANCH  40  41
ENDBRANCH  36  40
ENDBRANCH  35  36
ENDBRANCH  32  35
ENDBRANCH   1  32
TORSDOF 22
ENDMDL
MODEL 2
REMARK VINA RESULT:      -8.1      7.344     12.882
REMARK  22 active torsions:
REMARK  status: ('A' for Active; 'I' for Inactive)
REMARK    1  A    between atoms: C_10  and  C_5 
REMARK    2  A    between atoms: O_44  and  C_5 
REMARK    3  A    between atoms: C_11  and  C_6 
REMARK    4  A    between atoms: O_45  and  C_6 
REMARK    5  A    between atoms: C_18  and  C_9 
REMARK    6  A    between atoms: C_13  and  O_33 
REMARK    7  A    between atoms: C_14  and  O_34 
REMARK    8  A    between atoms: C_15  and  O_35 
REMARK    9  A    between atoms: C_16  and  O_48 
REMARK   10  A    between atoms: N_22  and  C_17 
REMARK   11  A    between atoms: N_23  and  C_18 
REMARK   12  A    between atoms: O_36  and  C_18 
REMARK   13  A    between atoms: C_20  and  N_31 
REMARK   14  A    between atoms: C_21  and  N_32 
REMARK   15  A    between atoms: P_50  and  O_38 
REMARK   16  A    between atoms: P_50  and  O_39 
REMARK   17  A    between atoms: P_51  and  O_40 
REMARK   18  A    between atoms: P_51  and  O_44 
REMARK   19  A    between atoms: P_52  and  O_45 
REMARK   20  A    between atoms: P_50  and  O_48 
REMARK   21  A    between atoms: P_51  and  O_49 
REMARK   22  A    between atoms: P_52  and  O_49 
ROOT
HETATM    1  O   UNK N   1      25.207  20.538   4.055  0.00  0.00    -0.287 OA
ENDROOT
BRANCH   1   2
HETATM    2  C   UNK N   1      26.391  20.403   3.314  0.00  0.00     0.216 C 
BRANCH   2   3
HETATM    3  C   UNK N   1      27.044  19.137   3.863  0.00  0.00     0.180 C 
HETATM    4  C   UNK N   1      26.414  17.876   3.314  0.00  0.00     0.183 C 
HETATM    5  C   UNK N   1      27.288  16.894   4.062  0.00  0.00     0.214 C 
HETATM    6  C   UNK N   1      27.301  17.582   5.450  0.00  0.00     0.263 C 
HETATM    7  O   UNK N   1      27.018  18.973   5.259  0.00  0.00    -0.353 OA
BRANCH   4   8
HETATM    8  O   UNK N   1      25.078  17.785   3.732  0.00  0.00    -0.390 OA
HETATM    9  H   UNK N   1      24.116  17.720   3.627  0.00  0.00     0.210 HD
ENDBRANCH   4   8
BRANCH   5  10
HETATM   10  O   UNK N   1      26.829  15.559   4.173  0.00  0.00    -0.284 OA
BRANCH  10  11
HETATM   11  P   UNK N   1      26.936  14.687   2.653  0.00  0.00     0.391 P 
HETATM   12  O   UNK N   1      26.947  13.174   3.001  0.00  0.00    -0.632 OA
BRANCH  11  13
HETATM   13  O   UNK N   1      28.447  15.007   1.863  0.00  0.00    -0.307 OA
HETATM   14  H   UNK N   1      29.009  14.290   1.529  0.00  0.00     0.222 HD
ENDBRANCH  11  13
BRANCH  11  15
HETATM   15  O   UNK N   1      25.610  14.965   1.567  0.00  0.00    -0.307 OA
HETATM   16  H   UNK N   1      25.058  15.418   0.910  0.00  0.00     0.222 HD
ENDBRANCH  11  15
ENDBRANCH  10  11
ENDBRANCH   5  10
BRANCH   6  17
HETATM   17  N   UNK N   1      28.586  17.414   6.143  0.00  0.00    -0.297 N 
HETATM   18  C   UNK N   1      29.794  17.229   5.543  0.00  0.00     0.188 A 
HETATM   19  N   UNK N   1      30.795  17.111   6.459  0.00  0.00    -0.346 N 
HETATM   20  C   UNK N   1      30.173  17.214   7.647  0.00  0.00     0.122 A 
ATOM     21  HN  UNK N   1      31.790  16.976   6.283  1.00  0.00     0.167 HD
HETATM   22  C   UNK N   1      30.694  17.145   8.927  0.00  0.00     0.131 A 
HETATM   23  C   UNK N   1      28.851  17.398   7.458  0.00  0.00     0.142 A 
HETATM   24  N   UNK N   1      29.826  17.253   9.976  0.00  0.00    -0.337 N 
HETATM   25  C   UNK N   1      28.479  17.430   9.764  0.00  0.00     0.183 A 
ATOM     26  HN  UNK N   1      30.182  17.201  10.931  1.00  0.00     0.168 HD
HETATM   27  N   UNK N   1      27.981  17.509   8.491  0.00  0.00    -0.336 N 
ATOM     28  HN  UNK N   1      26.983  17.647   8.325  1.00  0.00     0.168 HD
BRANCH  22  29
HETATM   29  N   UNK N   1      32.074  16.965   9.149  0.00  0.00    -0.383 N 
HETATM   30  H   UNK N   1      32.764  17.657   9.025  0.00  0.00     0.157 HD
HETATM   31  H   UNK N   1      32.372  16.078   9.454  0.00  0.00     0.157 HD
ENDBRANCH  22  29
ENDBRANCH   6  17
ENDBRANCH   2   3
ENDBRANCH   1   2
BRANCH   1  32
HETATM   32  P   UNK N   1      23.802  20.581   3.030  0.00  0.00     0.417 P 
HETATM   33  O   UNK N   1      23.162  21.996   3.059  0.00  0.00    -0.624 OA
HETATM   34  O   UNK N   1      24.399  20.427   1.410  0.00  0.00    -0.624 OA
BRANCH  32  35
HETATM   35  O   UNK N   1      22.608  19.323   3.253  0.00  0.00    -0.188 OA
BRANCH  35  36
HETATM   36  P   UNK N   1      21.100  19.832   2.540  0.00  0.00     0.402 P 
HETATM   37  O   UNK N   1      20.321  20.571   3.663  0.00  0.00    -0.631 OA
BRANCH  36  38
HETATM   38  O   UNK N   1      21.398  20.984   1.276  0.00  0.00    -0.307 OA
HETATM   39  H   UNK N   1      21.989  21.284   0.568  0.00  0.00     0.222 HD
ENDBRANCH  36  38
BRANCH  36  40
HETATM   40  O   UNK N   1      20.114  18.507   1.995  0.00  0.00    -0.294 OA
BRANCH  40  41
HETATM   41  C   UNK N   1      19.246  18.199   3.041  0.00  0.00     0.215 C 
BRANCH  41  42
HETATM   42  C   UNK N   1      19.799  17.016   3.824  0.00  0.00     0.180 C 
HETATM   43  C   UNK N   1      20.425  15.958   2.948  0.00  0.00     0.182 C 
HETATM   44  C   UNK N   1      20.513  14.807   3.931  0.00  0.00     0.198 C 
HETATM   45  C   UNK N   1      19.357  15.125   4.925  0.00  0.00     0.259 C 
HETATM   46  O   UNK N   1      18.762  16.337   4.482  0.00  0.00    -0.353 OA
BRANCH  43  47
HETATM   47  O   UNK N   1      19.525  15.632   1.926  0.00  0.00    -0.390 OA
HETATM   48  H   UNK N   1      18.760  16.044   1.497  0.00  0.00     0.210 HD
ENDBRANCH  43  47
BRANCH  44  49
HETATM   49  O   UNK N   1      21.757  14.836   4.569  0.00  0.00    -0.388 OA
HETATM   50  H   UNK N   1      22.472  14.519   5.143  0.00  0.00     0.210 HD
ENDBRANCH  44  49
BRANCH  45  51
HETATM   51  N   UNK N   1      19.816  15.299   6.322  0.00  0.00    -0.336 N 
HETATM   52  C   UNK N   1      20.645  14.390   6.917  0.00  0.00     0.093 A 
HETATM   53  C   UNK N   1      21.081  14.589   8.234  0.00  0.00     0.018 A 
HETATM   54  C   UNK N   1      20.669  15.727   8.934  0.00  0.00     0.018 A 
HETATM   55  C   UNK N   1      19.817  16.647   8.316  0.00  0.00     0.030 A 
HETATM   56  C   UNK N   1      19.403  16.400   7.015  0.00  0.00     0.108 A 
BRANCH  55  57
HETATM   57  C   UNK N   1      19.359  17.880   8.987  0.00  0.00     0.145 C 
BRANCH  57  58
HETATM   58  N   UNK N   1      18.202  17.937   9.534  0.00  0.00    -0.379 N 
HETATM   59  H   UNK N   1      17.722  18.774   9.734  0.00  0.00     0.158 HD
ATOM     60  HN  UNK N   1      17.747  17.058   9.780  1.00  0.00     0.158 HD
ENDBRANCH  57  58
BRANCH  57  61
HETATM   61  O   UNK N   1      20.170  18.958   9.039  0.00  0.00    -0.346 OA
HETATM   62  H   UNK N   1      20.105  19.687   9.623  0.00  0.00     0.219 HD
ENDBRANCH  57  61
ENDBRANCH  55  57
ENDBRANCH  45  51
ENDBRANCH  41  42
ENDBRANCH  40  41
ENDBRANCH  36  40
ENDBRANCH  35  36
ENDBRANCH  32  35
ENDBRANCH   1  32
TORSDOF 22
ENDMDL
MODEL 3
REMARK VINA RESULT:      -8.1      7.450     12.911
REMARK  22 active torsions:
REMARK  status: ('A' for Active; 'I' for Inactive)
REMARK    1  A    between atoms: C_10  and  C_5 
REMARK    2  A    between atoms: O_44  and  C_5 
REMARK    3  A    between atoms: C_11  and  C_6 
REMARK    4  A    between atoms: O_45  and  C_6 
REMARK    5  A    between atoms: C_18  and  C_9 
REMARK    6  A    between atoms: C_13  and  O_33 
REMARK    7  A    between atoms: C_14  and  O_34 
REMARK    8  A    between atoms: C_15  and  O_35 
REMARK    9  A    between atoms: C_16  and  O_48 
REMARK   10  A    between atoms: N_22  and  C_17 
REMARK   11  A    between atoms: N_23  and  C_18 
REMARK   12  A    between atoms: O_36  and  C_18 
REMARK   13  A    between atoms: C_20  and  N_31 
REMARK   14  A    between atoms: C_21  and  N_32 
REMARK   15  A    between atoms: P_50  and  O_38 
REMARK   16  A    between atoms: P_50  and  O_39 
REMARK   17  A    between atoms: P_51  and  O_40 
REMARK   18  A    between atoms: P_51  and  O_44 
REMARK   19  A    between atoms: P_52  and  O_45 
REMARK   20  A    between atoms: P_50  and  O_48 
REMARK   21  A    between atoms: P_51  and  O_49 
REMARK   22  A    between atoms: P_52  and  O_49 
ROOT
HETATM    1  O   UNK N   1      25.117  20.341   4.085  0.00  0.00    -0.287 OA
ENDROOT
BRANCH   1   2
HETATM    2  C   UNK N   1      26.312  20.180   3.366  0.00  0.00     0.216 C 
BRANCH   2   3
HETATM    3  C   UNK N   1      26.919  18.890   3.916  0.00  0.00     0.180 C 
HETATM    4  C   UNK N   1      26.184  17.656   3.439  0.00  0.00     0.183 C 
HETATM    5  C   UNK N   1      27.038  16.643   4.167  0.00  0.00     0.214 C 
HETATM    6  C   UNK N   1      27.171  17.364   5.531  0.00  0.00     0.263 C 
HETATM    7  O   UNK N   1      26.962  18.764   5.316  0.00  0.00    -0.353 OA
BRANCH   4   8
HETATM    8  O   UNK N   1      24.871  17.658   3.933  0.00  0.00    -0.390 OA
HETATM    9  H   UNK N   1      23.905  17.736   3.889  0.00  0.00     0.210 HD
ENDBRANCH   4   8
BRANCH   5  10
HETATM   10  O   UNK N   1      26.507  15.341   4.342  0.00  0.00    -0.284 OA
BRANCH  10  11
HETATM   11  P   UNK N   1      26.333  14.480   2.822  0.00  0.00     0.391 P 
HETATM   12  O   UNK N   1      26.505  12.970   3.138  0.00  0.00    -0.632 OA
BRANCH  11  13
HETATM   13  O   UNK N   1      27.617  14.891   1.729  0.00  0.00    -0.307 OA
HETATM   14  H   UNK N   1      28.133  14.209   1.271  0.00  0.00     0.222 HD
ENDBRANCH  11  13
BRANCH  11  15
HETATM   15  O   UNK N   1      24.790  14.681   2.052  0.00  0.00    -0.307 OA
HETATM   16  H   UNK N   1      24.072  15.115   1.564  0.00  0.00     0.222 HD
ENDBRANCH  11  15
ENDBRANCH  10  11
ENDBRANCH   5  10
BRANCH   6  17
HETATM   17  N   UNK N   1      28.481  17.135   6.157  0.00  0.00    -0.297 N 
HETATM   18  C   UNK N   1      29.505  16.419   5.618  0.00  0.00     0.188 A 
HETATM   19  N   UNK N   1      30.589  16.396   6.442  0.00  0.00    -0.346 N 
HETATM   20  C   UNK N   1      30.205  17.107   7.517  0.00  0.00     0.122 A 
ATOM     21  HN  UNK N   1      31.488  15.942   6.280  1.00  0.00     0.167 HD
HETATM   22  C   UNK N   1      30.896  17.396   8.680  0.00  0.00     0.131 A 
HETATM   23  C   UNK N   1      28.944  17.552   7.345  0.00  0.00     0.142 A 
HETATM   24  N   UNK N   1      30.254  18.124   9.641  0.00  0.00    -0.337 N 
HETATM   25  C   UNK N   1      28.964  18.561   9.452  0.00  0.00     0.183 A 
ATOM     26  HN  UNK N   1      30.739  18.348  10.511  1.00  0.00     0.168 HD
HETATM   27  N   UNK N   1      28.298  18.278   8.290  0.00  0.00    -0.336 N 
ATOM     28  HN  UNK N   1      27.343  18.604   8.139  1.00  0.00     0.168 HD
BRANCH  22  29
HETATM   29  N   UNK N   1      32.219  16.951   8.877  0.00  0.00    -0.383 N 
HETATM   30  H   UNK N   1      32.918  16.924   8.183  0.00  0.00     0.157 HD
HETATM   31  H   UNK N   1      32.464  16.643   9.779  0.00  0.00     0.157 HD
ENDBRANCH  22  29
ENDBRANCH   6  17
ENDBRANCH   2   3
ENDBRANCH   1   2
BRANCH   1  32
HETATM   32  P   UNK N   1      23.748  20.541   3.031  0.00  0.00     0.417 P 
HETATM   33  O   UNK N   1      23.224  22.001   3.108  0.00  0.00    -0.624 OA
HETATM   34  O   UNK N   1      24.375  20.409   1.420  0.00  0.00    -0.624 OA
BRANCH  32  35
HETATM   35  O   UNK N   1      22.453  19.376   3.168  0.00  0.00    -0.188 OA
BRANCH  35  36
HETATM   36  P   UNK N   1      20.980  20.084   2.560  0.00  0.00     0.402 P 
HETATM   37  O   UNK N   1      20.351  20.859   3.751  0.00  0.00    -0.631 OA
BRANCH  36  38
HETATM   38  O   UNK N   1      21.344  21.246   1.324  0.00  0.00    -0.307 OA
HETATM   39  H   UNK N   1      21.928  21.506   0.594  0.00  0.00     0.222 HD
ENDBRANCH  36  38
BRANCH  36  40
HETATM   40  O   UNK N   1      19.818  18.905   2.025  0.00  0.00    -0.294 OA
BRANCH  40  41
HETATM   41  C   UNK N   1      19.732  17.945   3.030  0.00  0.00     0.215 C 
BRANCH  41  42
HETATM   42  C   UNK N   1      20.380  16.653   2.553  0.00  0.00     0.180 C 
HETATM   43  C   UNK N   1      20.343  16.483   1.053  0.00  0.00     0.182 C 
HETATM   44  C   UNK N   1      20.685  15.010   0.937  0.00  0.00     0.198 C 
HETATM   45  C   UNK N   1      20.192  14.442   2.301  0.00  0.00     0.259 C 
HETATM   46  O   UNK N   1      19.670  15.542   3.035  0.00  0.00    -0.353 OA
BRANCH  43  47
HETATM   47  O   UNK N   1      19.032  16.695   0.610  0.00  0.00    -0.390 OA
HETATM   48  H   UNK N   1      18.193  16.993   0.994  0.00  0.00     0.210 HD
ENDBRANCH  43  47
BRANCH  44  49
HETATM   49  O   UNK N   1      22.068  14.865   0.793  0.00  0.00    -0.388 OA
HETATM   50  H   UNK N   1      22.901  14.408   0.598  0.00  0.00     0.210 HD
ENDBRANCH  44  49
BRANCH  45  51
HETATM   51  N   UNK N   1      21.269  13.806   3.093  0.00  0.00    -0.336 N 
HETATM   52  C   UNK N   1      21.809  12.605   2.726  0.00  0.00     0.093 A 
HETATM   53  C   UNK N   1      22.840  12.034   3.483  0.00  0.00     0.018 A 
HETATM   54  C   UNK N   1      23.320  12.703   4.614  0.00  0.00     0.018 A 
HETATM   55  C   UNK N   1      22.756  13.928   4.983  0.00  0.00     0.030 A 
HETATM   56  C   UNK N   1      21.729  14.447   4.208  0.00  0.00     0.108 A 
BRANCH  55  57
HETATM   57  C   UNK N   1      23.226  14.699   6.151  0.00  0.00     0.145 C 
BRANCH  57  58
HETATM   58  N   UNK N   1      22.795  14.433   7.327  0.00  0.00    -0.379 N 
HETATM   59  H   UNK N   1      23.105  13.674   7.873  0.00  0.00     0.158 HD
ATOM     60  HN  UNK N   1      22.084  15.046   7.725  1.00  0.00     0.158 HD
ENDBRANCH  57  58
BRANCH  57  61
HETATM   61  O   UNK N   1      24.130  15.688   5.984  0.00  0.00    -0.346 OA
HETATM   62  H   UNK N   1      24.893  15.850   6.503  0.00  0.00     0.219 HD
ENDBRANCH  57  61
ENDBRANCH  55  57
ENDBRANCH  45  51
ENDBRANCH  41  42
ENDBRANCH  40  41
ENDBRANCH  36  40
ENDBRANCH  35  36
ENDBRANCH  32  35
ENDBRANCH   1  32
TORSDOF 22
ENDMDL
MODEL 4
REMARK VINA RESULT:      -8.1     10.244     13.883
REMARK  22 active torsions:
REMARK  status: ('A' for Active; 'I' for Inactive)
REMARK    1  A    between atoms: C_10  and  C_5 
REMARK    2  A    between atoms: O_44  and  C_5 
REMARK    3  A    between atoms: C_11  and  C_6 
REMARK    4  A    between atoms: O_45  and  C_6 
REMARK    5  A    between atoms: C_18  and  C_9 
REMARK    6  A    between atoms: C_13  and  O_33 
REMARK    7  A    between atoms: C_14  and  O_34 
REMARK    8  A    between atoms: C_15  and  O_35 
REMARK    9  A    between atoms: C_16  and  O_48 
REMARK   10  A    between atoms: N_22  and  C_17 
REMARK   11  A    between atoms: N_23  and  C_18 
REMARK   12  A    between atoms: O_36  and  C_18 
REMARK   13  A    between atoms: C_20  and  N_31 
REMARK   14  A    between atoms: C_21  and  N_32 
REMARK   15  A    between atoms: P_50  and  O_38 
REMARK   16  A    between atoms: P_50  and  O_39 
REMARK   17  A    between atoms: P_51  and  O_40 
REMARK   18  A    between atoms: P_51  and  O_44 
REMARK   19  A    between atoms: P_52  and  O_45 
REMARK   20  A    between atoms: P_50  and  O_48 
REMARK   21  A    between atoms: P_51  and  O_49 
REMARK   22  A    between atoms: P_52  and  O_49 
ROOT
HETATM    1  O   UNK N   1      20.983  15.105   6.985  0.00  0.00    -0.287 OA
ENDROOT
BRANCH   1   2
HETATM    2  C   UNK N   1      20.906  16.451   7.374  0.00  0.00     0.216 C 
BRANCH   2   3
HETATM    3  C   UNK N   1      21.658  17.209   6.282  0.00  0.00     0.180 C 
HETATM    4  C   UNK N   1      20.756  17.622   5.139  0.00  0.00     0.183 C 
HETATM    5  C   UNK N   1      21.818  18.303   4.305  0.00  0.00     0.214 C 
HETATM    6  C   UNK N   1      22.960  17.269   4.464  0.00  0.00     0.263 C 
HETATM    7  O   UNK N   1      22.726  16.531   5.669  0.00  0.00    -0.353 OA
BRANCH   4   8
HETATM    8  O   UNK N   1      20.255  16.484   4.488  0.00  0.00    -0.390 OA
HETATM    9  H   UNK N   1      20.091  15.538   4.352  0.00  0.00     0.210 HD
ENDBRANCH   4   8
BRANCH   5  10
HETATM   10  O   UNK N   1      21.534  18.525   2.935  0.00  0.00    -0.284 OA
BRANCH  10  11
HETATM   11  P   UNK N   1      21.201  20.212   2.586  0.00  0.00     0.391 P 
HETATM   12  O   UNK N   1      22.557  20.965   2.659  0.00  0.00    -0.632 OA
BRANCH  11  13
HETATM   13  O   UNK N   1      20.198  20.912   3.817  0.00  0.00    -0.307 OA
HETATM   14  H   UNK N   1      20.196  20.571   4.725  0.00  0.00     0.222 HD
ENDBRANCH  11  13
BRANCH  11  15
HETATM   15  O   UNK N   1      20.525  20.503   1.012  0.00  0.00    -0.307 OA
HETATM   16  H   UNK N   1      20.173  20.999   0.256  0.00  0.00     0.222 HD
ENDBRANCH  11  15
ENDBRANCH  10  11
ENDBRANCH   5  10
BRANCH   6  17
HETATM   17  N   UNK N   1      24.285  17.904   4.504  0.00  0.00    -0.297 N 
HETATM   18  C   UNK N   1      24.548  19.165   4.942  0.00  0.00     0.188 A 
HETATM   19  N   UNK N   1      25.876  19.458   4.857  0.00  0.00    -0.346 N 
HETATM   20  C   UNK N   1      26.429  18.346   4.340  0.00  0.00     0.122 A 
ATOM     21  HN  UNK N   1      26.344  20.323   5.125  1.00  0.00     0.167 HD
HETATM   22  C   UNK N   1      27.748  18.082   4.016  0.00  0.00     0.131 A 
HETATM   23  C   UNK N   1      25.477  17.415   4.131  0.00  0.00     0.142 A 
HETATM   24  N   UNK N   1      28.041  16.865   3.469  0.00  0.00    -0.337 N 
HETATM   25  C   UNK N   1      27.054  15.932   3.254  0.00  0.00     0.183 A 
ATOM     26  HN  UNK N   1      29.005  16.646   3.217  1.00  0.00     0.168 HD
HETATM   27  N   UNK N   1      25.756  16.203   3.591  0.00  0.00    -0.336 N 
ATOM     28  HN  UNK N   1      25.019  15.513   3.442  1.00  0.00     0.168 HD
BRANCH  22  29
HETATM   29  N   UNK N   1      28.763  19.036   4.236  0.00  0.00    -0.383 N 
HETATM   30  H   UNK N   1      28.721  19.767   4.895  0.00  0.00     0.157 HD
HETATM   31  H   UNK N   1      29.577  18.966   3.687  0.00  0.00     0.157 HD
ENDBRANCH  22  29
ENDBRANCH   6  17
ENDBRANCH   2   3
ENDBRANCH   1   2
BRANCH   1  32
HETATM   32  P   UNK N   1      21.016  14.035   8.356  0.00  0.00     0.417 P 
HETATM   33  O   UNK N   1      22.145  14.455   9.336  0.00  0.00    -0.624 OA
HETATM   34  O   UNK N   1      19.558  14.358   9.236  0.00  0.00    -0.624 OA
BRANCH  32  35
HETATM   35  O   UNK N   1      21.042  12.317   8.031  0.00  0.00    -0.188 OA
BRANCH  35  36
HETATM   36  P   UNK N   1      21.478  12.056   6.363  0.00  0.00     0.402 P 
HETATM   37  O   UNK N   1      21.294  10.535   6.103  0.00  0.00    -0.631 OA
BRANCH  36  38
HETATM   38  O   UNK N   1      20.371  12.894   5.321  0.00  0.00    -0.307 OA
HETATM   39  H   UNK N   1      19.548  12.861   4.808  0.00  0.00     0.222 HD
ENDBRANCH  36  38
BRANCH  36  40
HETATM   40  O   UNK N   1      23.133  12.457   6.012  0.00  0.00    -0.294 OA
BRANCH  40  41
HETATM   41  C   UNK N   1      23.543  11.603   4.991  0.00  0.00     0.215 C 
BRANCH  41  42
HETATM   42  C   UNK N   1      23.314  12.278   3.645  0.00  0.00     0.180 C 
HETATM   43  C   UNK N   1      24.563  12.370   2.802  0.00  0.00     0.182 C 
HETATM   44  C   UNK N   1      24.118  13.383   1.766  0.00  0.00     0.198 C 
HETATM   45  C   UNK N   1      23.029  14.192   2.532  0.00  0.00     0.259 C 
HETATM   46  O   UNK N   1      22.932  13.616   3.828  0.00  0.00    -0.353 OA
BRANCH  43  47
HETATM   47  O   UNK N   1      25.590  12.918   3.580  0.00  0.00    -0.390 OA
HETATM   48  H   UNK N   1      26.368  12.592   4.059  0.00  0.00     0.210 HD
ENDBRANCH  43  47
BRANCH  44  49
HETATM   49  O   UNK N   1      23.575  12.713   0.665  0.00  0.00    -0.388 OA
HETATM   50  H   UNK N   1      23.505  12.023  -0.013  0.00  0.00     0.210 HD
ENDBRANCH  44  49
BRANCH  45  51
HETATM   51  N   UNK N   1      21.699  14.142   1.885  0.00  0.00    -0.336 N 
HETATM   52  C   UNK N   1      20.961  12.991   1.860  0.00  0.00     0.093 A 
HETATM   53  C   UNK N   1      19.696  12.977   1.257  0.00  0.00     0.018 A 
HETATM   54  C   UNK N   1      19.189  14.149   0.687  0.00  0.00     0.018 A 
HETATM   55  C   UNK N   1      19.955  15.318   0.714  0.00  0.00     0.030 A 
HETATM   56  C   UNK N   1      21.206  15.279   1.311  0.00  0.00     0.108 A 
BRANCH  55  57
HETATM   57  C   UNK N   1      19.474  16.595   0.151  0.00  0.00     0.145 C 
BRANCH  57  58
HETATM   58  N   UNK N   1      18.254  16.732  -0.215  0.00  0.00    -0.379 N 
HETATM   59  H   UNK N   1      17.918  16.524  -1.117  0.00  0.00     0.158 HD
ATOM     60  HN  UNK N   1      17.586  17.079   0.473  1.00  0.00     0.158 HD
ENDBRANCH  57  58
BRANCH  57  61
HETATM   61  O   UNK N   1      20.322  17.639   0.032  0.00  0.00    -0.346 OA
HETATM   62  H   UNK N   1      21.258  17.614   0.065  0.00  0.00     0.219 HD
ENDBRANCH  57  61
ENDBRANCH  55  57
ENDBRANCH  45  51
ENDBRANCH  41  42
ENDBRANCH  40  41
ENDBRANCH  36  40
ENDBRANCH  35  36
ENDBRANCH  32  35
ENDBRANCH   1  32
TORSDOF 22
ENDMDL
MODEL 5
REMARK VINA RESULT:      -8.1      9.220     11.805
REMARK  22 active torsions:
REMARK  status: ('A' for Active; 'I' for Inactive)
REMARK    1  A    between atoms: C_10  and  C_5 
REMARK    2  A    between atoms: O_44  and  C_5 
REMARK    3  A    between atoms: C_11  and  C_6 
REMARK    4  A    between atoms: O_45  and  C_6 
REMARK    5  A    between atoms: C_18  and  C_9 
REMARK    6  A    between atoms: C_13  and  O_33 
REMARK    7  A    between atoms: C_14  and  O_34 
REMARK    8  A    between atoms: C_15  and  O_35 
REMARK    9  A    between atoms: C_16  and  O_48 
REMARK   10  A    between atoms: N_22  and  C_17 
REMARK   11  A    between atoms: N_23  and  C_18 
REMARK   12  A    between atoms: O_36  and  C_18 
REMARK   13  A    between atoms: C_20  and  N_31 
REMARK   14  A    between atoms: C_21  and  N_32 
REMARK   15  A    between atoms: P_50  and  O_38 
REMARK   16  A    between atoms: P_50  and  O_39 
REMARK   17  A    between atoms: P_51  and  O_40 
REMARK   18  A    between atoms: P_51  and  O_44 
REMARK   19  A    between atoms: P_52  and  O_45 
REMARK   20  A    between atoms: P_50  and  O_48 
REMARK   21  A    between atoms: P_51  and  O_49 
REMARK   22  A    between atoms: P_52  and  O_49 
ROOT
HETATM    1  O   UNK N   1      21.122  16.896   7.415  0.00  0.00    -0.287 OA
ENDROOT
BRANCH   1   2
HETATM    2  C   UNK N   1      21.080  18.258   7.076  0.00  0.00     0.216 C 
BRANCH   2   3
HETATM    3  C   UNK N   1      21.972  18.374   5.843  0.00  0.00     0.180 C 
HETATM    4  C   UNK N   1      21.224  18.896   4.635  0.00  0.00     0.183 C 
HETATM    5  C   UNK N   1      22.389  18.862   3.671  0.00  0.00     0.214 C 
HETATM    6  C   UNK N   1      22.993  17.490   4.060  0.00  0.00     0.263 C 
HETATM    7  O   UNK N   1      22.587  17.189   5.400  0.00  0.00    -0.353 OA
BRANCH   4   8
HETATM    8  O   UNK N   1      20.228  17.984   4.256  0.00  0.00    -0.390 OA
HETATM    9  H   UNK N   1      19.345  17.699   3.972  0.00  0.00     0.210 HD
ENDBRANCH   4   8
BRANCH   5  10
HETATM   10  O   UNK N   1      22.095  18.902   2.286  0.00  0.00    -0.284 OA
BRANCH  10  11
HETATM   11  P   UNK N   1      21.078  20.266   1.856  0.00  0.00     0.391 P 
HETATM   12  O   UNK N   1      21.354  20.582   0.362  0.00  0.00    -0.632 OA
BRANCH  11  13
HETATM   13  O   UNK N   1      21.542  21.685   2.740  0.00  0.00    -0.307 OA
HETATM   14  H   UNK N   1      21.617  21.680   3.707  0.00  0.00     0.222 HD
ENDBRANCH  11  13
BRANCH  11  15
HETATM   15  O   UNK N   1      19.373  19.976   2.023  0.00  0.00    -0.307 OA
HETATM   16  H   UNK N   1      18.426  20.170   2.099  0.00  0.00     0.222 HD
ENDBRANCH  11  15
ENDBRANCH  10  11
ENDBRANCH   5  10
BRANCH   6  17
HETATM   17  N   UNK N   1      24.460  17.478   3.957  0.00  0.00    -0.297 N 
HETATM   18  C   UNK N   1      25.201  16.562   3.275  0.00  0.00     0.188 A 
HETATM   19  N   UNK N   1      26.534  16.828   3.366  0.00  0.00    -0.346 N 
HETATM   20  C   UNK N   1      26.601  17.929   4.137  0.00  0.00     0.122 A 
ATOM     21  HN  UNK N   1      27.304  16.311   2.946  1.00  0.00     0.167 HD
HETATM   22  C   UNK N   1      27.707  18.633   4.579  0.00  0.00     0.131 A 
HETATM   23  C   UNK N   1      25.359  18.319   4.488  0.00  0.00     0.142 A 
HETATM   24  N   UNK N   1      27.494  19.714   5.387  0.00  0.00    -0.337 N 
HETATM   25  C   UNK N   1      26.221  20.091   5.742  0.00  0.00     0.183 A 
ATOM     26  HN  UNK N   1      28.293  20.249   5.731  1.00  0.00     0.168 HD
HETATM   27  N   UNK N   1      25.136  19.392   5.286  0.00  0.00    -0.336 N 
ATOM     28  HN  UNK N   1      24.188  19.669   5.540  1.00  0.00     0.168 HD
BRANCH  22  29
HETATM   29  N   UNK N   1      29.014  18.250   4.216  0.00  0.00    -0.383 N 
HETATM   30  H   UNK N   1      29.282  17.345   3.933  0.00  0.00     0.157 HD
HETATM   31  H   UNK N   1      29.714  18.942   4.246  0.00  0.00     0.157 HD
ENDBRANCH  22  29
ENDBRANCH   6  17
ENDBRANCH   2   3
ENDBRANCH   1   2
BRANCH   1  32
HETATM   32  P   UNK N   1      19.528  16.219   7.578  0.00  0.00     0.417 P 
HETATM   33  O   UNK N   1      19.575  14.952   8.476  0.00  0.00    -0.624 OA
HETATM   34  O   UNK N   1      18.628  17.363   8.519  0.00  0.00    -0.624 OA
BRANCH  32  35
HETATM   35  O   UNK N   1      18.620  15.943   6.110  0.00  0.00    -0.188 OA
BRANCH  35  36
HETATM   36  P   UNK N   1      19.352  14.633   5.222  0.00  0.00     0.402 P 
HETATM   37  O   UNK N   1      18.183  13.717   4.764  0.00  0.00    -0.631 OA
BRANCH  36  38
HETATM   38  O   UNK N   1      20.121  15.242   3.790  0.00  0.00    -0.307 OA
HETATM   39  H   UNK N   1      20.119  15.294   2.821  0.00  0.00     0.222 HD
ENDBRANCH  36  38
BRANCH  36  40
HETATM   40  O   UNK N   1      20.435  13.669   6.183  0.00  0.00    -0.294 OA
BRANCH  40  41
HETATM   41  C   UNK N   1      21.691  13.767   5.588  0.00  0.00     0.215 C 
BRANCH  41  42
HETATM   42  C   UNK N   1      22.766  13.485   6.629  0.00  0.00     0.180 C 
HETATM   43  C   UNK N   1      24.161  13.814   6.152  0.00  0.00     0.182 C 
HETATM   44  C   UNK N   1      24.984  13.092   7.201  0.00  0.00     0.198 C 
HETATM   45  C   UNK N   1      24.024  11.955   7.658  0.00  0.00     0.259 C 
HETATM   46  O   UNK N   1      22.824  12.111   6.914  0.00  0.00    -0.353 OA
BRANCH  43  47
HETATM   47  O   UNK N   1      24.362  13.212   4.905  0.00  0.00    -0.390 OA
HETATM   48  H   UNK N   1      25.024  12.634   4.495  0.00  0.00     0.210 HD
ENDBRANCH  43  47
BRANCH  44  49
HETATM   49  O   UNK N   1      25.271  13.970   8.251  0.00  0.00    -0.388 OA
HETATM   50  H   UNK N   1      25.260  14.305   9.161  0.00  0.00     0.210 HD
ENDBRANCH  44  49
BRANCH  45  51
HETATM   51  N   UNK N   1      23.702  12.005   9.102  0.00  0.00    -0.336 N 
HETATM   52  C   UNK N   1      24.685  11.976  10.052  0.00  0.00     0.093 A 
HETATM   53  C   UNK N   1      24.353  12.045  11.412  0.00  0.00     0.018 A 
HETATM   54  C   UNK N   1      23.011  12.149  11.793  0.00  0.00     0.018 A 
HETATM   55  C   UNK N   1      22.015  12.172  10.812  0.00  0.00     0.030 A 
HETATM   56  C   UNK N   1      22.393  12.090   9.480  0.00  0.00     0.108 A 
BRANCH  55  57
HETATM   57  C   UNK N   1      20.581  12.303  11.139  0.00  0.00     0.145 C 
BRANCH  57  58
HETATM   58  N   UNK N   1      20.057  11.602  12.075  0.00  0.00    -0.379 N 
HETATM   59  H   UNK N   1      19.788  11.959  12.952  0.00  0.00     0.158 HD
ATOM     60  HN  UNK N   1      19.909  10.608  11.900  1.00  0.00     0.158 HD
ENDBRANCH  57  58
BRANCH  57  61
HETATM   61  O   UNK N   1      19.813  13.179  10.457  0.00  0.00    -0.346 OA
HETATM   62  H   UNK N   1      19.781  14.108  10.567  0.00  0.00     0.219 HD
ENDBRANCH  57  61
ENDBRANCH  55  57
ENDBRANCH  45  51
ENDBRANCH  41  42
ENDBRANCH  40  41
ENDBRANCH  36  40
ENDBRANCH  35  36
ENDBRANCH  32  35
ENDBRANCH   1  32
TORSDOF 22
ENDMDL
MODEL 6
REMARK VINA RESULT:      -8.0      8.716     11.781
REMARK  22 active torsions:
REMARK  status: ('A' for Active; 'I' for Inactive)
REMARK    1  A    between atoms: C_10  and  C_5 
REMARK    2  A    between atoms: O_44  and  C_5 
REMARK    3  A    between atoms: C_11  and  C_6 
REMARK    4  A    between atoms: O_45  and  C_6 
REMARK    5  A    between atoms: C_18  and  C_9 
REMARK    6  A    between atoms: C_13  and  O_33 
REMARK    7  A    between atoms: C_14  and  O_34 
REMARK    8  A    between atoms: C_15  and  O_35 
REMARK    9  A    between atoms: C_16  and  O_48 
REMARK   10  A    between atoms: N_22  and  C_17 
REMARK   11  A    between atoms: N_23  and  C_18 
REMARK   12  A    between atoms: O_36  and  C_18 
REMARK   13  A    between atoms: C_20  and  N_31 
REMARK   14  A    between atoms: C_21  and  N_32 
REMARK   15  A    between atoms: P_50  and  O_38 
REMARK   16  A    between atoms: P_50  and  O_39 
REMARK   17  A    between atoms: P_51  and  O_40 
REMARK   18  A    between atoms: P_51  and  O_44 
REMARK   19  A    between atoms: P_52  and  O_45 
REMARK   20  A    between atoms: P_50  and  O_48 
REMARK   21  A    between atoms: P_51  and  O_49 
REMARK   22  A    between atoms: P_52  and  O_49 
ROOT
HETATM    1  O   UNK N   1      24.157  14.476   3.411  0.00  0.00    -0.287 OA
ENDROOT
BRANCH   1   2
HETATM    2  C   UNK N   1      25.391  15.029   3.788  0.00  0.00     0.216 C 
BRANCH   2   3
HETATM    3  C   UNK N   1      25.124  16.530   3.886  0.00  0.00     0.180 C 
HETATM    4  C   UNK N   1      26.000  17.207   4.917  0.00  0.00     0.183 C 
HETATM    5  C   UNK N   1      25.457  18.606   4.727  0.00  0.00     0.214 C 
HETATM    6  C   UNK N   1      23.947  18.276   4.639  0.00  0.00     0.263 C 
HETATM    7  O   UNK N   1      23.813  16.913   4.222  0.00  0.00    -0.353 OA
BRANCH   4   8
HETATM    8  O   UNK N   1      25.701  16.718   6.197  0.00  0.00    -0.390 OA
HETATM    9  H   UNK N   1      25.288  16.132   6.851  0.00  0.00     0.210 HD
ENDBRANCH   4   8
BRANCH   5  10
HETATM   10  O   UNK N   1      25.702  19.550   5.754  0.00  0.00    -0.284 OA
BRANCH  10  11
HETATM   11  P   UNK N   1      27.362  20.122   5.756  0.00  0.00     0.391 P 
HETATM   12  O   UNK N   1      28.109  19.335   6.866  0.00  0.00    -0.632 OA
BRANCH  11  13
HETATM   13  O   UNK N   1      27.439  21.793   6.217  0.00  0.00    -0.307 OA
HETATM   14  H   UNK N   1      26.821  22.449   5.858  0.00  0.00     0.222 HD
ENDBRANCH  11  13
BRANCH  11  15
HETATM   15  O   UNK N   1      28.215  19.862   4.265  0.00  0.00    -0.307 OA
HETATM   16  H   UNK N   1      28.893  19.527   3.657  0.00  0.00     0.222 HD
ENDBRANCH  11  15
ENDBRANCH  10  11
ENDBRANCH   5  10
BRANCH   6  17
HETATM   17  N   UNK N   1      23.235  19.166   3.710  0.00  0.00    -0.297 N 
HETATM   18  C   UNK N   1      23.752  20.283   3.128  0.00  0.00     0.188 A 
HETATM   19  N   UNK N   1      22.844  20.888   2.313  0.00  0.00    -0.346 N 
HETATM   20  C   UNK N   1      21.742  20.124   2.416  0.00  0.00     0.122 A 
ATOM     21  HN  UNK N   1      22.971  21.730   1.752  1.00  0.00     0.167 HD
HETATM   22  C   UNK N   1      20.501  20.274   1.823  0.00  0.00     0.131 A 
HETATM   23  C   UNK N   1      21.978  19.091   3.251  0.00  0.00     0.142 A 
HETATM   24  N   UNK N   1      19.533  19.358   2.125  0.00  0.00    -0.337 N 
HETATM   25  C   UNK N   1      19.789  18.318   2.986  0.00  0.00     0.183 A 
ATOM     26  HN  UNK N   1      18.608  19.448   1.705  1.00  0.00     0.168 HD
HETATM   27  N   UNK N   1      21.026  18.175   3.556  0.00  0.00    -0.336 N 
ATOM     28  HN  UNK N   1      21.226  17.401   4.190  1.00  0.00     0.168 HD
BRANCH  22  29
HETATM   29  N   UNK N   1      20.235  21.339   0.939  0.00  0.00    -0.383 N 
HETATM   30  H   UNK N   1      20.695  22.210   0.946  0.00  0.00     0.157 HD
HETATM   31  H   UNK N   1      19.535  21.202   0.261  0.00  0.00     0.157 HD
ENDBRANCH  22  29
ENDBRANCH   6  17
ENDBRANCH   2   3
ENDBRANCH   1   2
BRANCH   1  32
HETATM   32  P   UNK N   1      24.191  13.864   1.783  0.00  0.00     0.417 P 
HETATM   33  O   UNK N   1      24.834  14.911   0.832  0.00  0.00    -0.624 OA
HETATM   34  O   UNK N   1      25.332  12.559   1.798  0.00  0.00    -0.624 OA
BRANCH  32  35
HETATM   35  O   UNK N   1      22.698  13.227   1.135  0.00  0.00    -0.188 OA
BRANCH  35  36
HETATM   36  P   UNK N   1      21.354  14.073   1.854  0.00  0.00     0.402 P 
HETATM   37  O   UNK N   1      21.748  15.577   1.865  0.00  0.00    -0.631 OA
BRANCH  36  38
HETATM   38  O   UNK N   1      19.946  13.917   0.851  0.00  0.00    -0.307 OA
HETATM   39  H   UNK N   1      19.536  14.083  -0.012  0.00  0.00     0.222 HD
ENDBRANCH  36  38
BRANCH  36  40
HETATM   40  O   UNK N   1      21.040  13.598   3.498  0.00  0.00    -0.294 OA
BRANCH  40  41
HETATM   41  C   UNK N   1      20.800  14.769   4.213  0.00  0.00     0.215 C 
BRANCH  41  42
HETATM   42  C   UNK N   1      20.955  14.492   5.702  0.00  0.00     0.180 C 
HETATM   43  C   UNK N   1      20.049  15.337   6.566  0.00  0.00     0.182 C 
HETATM   44  C   UNK N   1      20.690  15.124   7.923  0.00  0.00     0.198 C 
HETATM   45  C   UNK N   1      22.168  14.804   7.551  0.00  0.00     0.259 C 
HETATM   46  O   UNK N   1      22.246  14.837   6.133  0.00  0.00    -0.353 OA
BRANCH  43  47
HETATM   47  O   UNK N   1      20.191  16.678   6.188  0.00  0.00    -0.390 OA
HETATM   48  H   UNK N   1      19.686  17.326   5.673  0.00  0.00     0.210 HD
ENDBRANCH  43  47
BRANCH  44  49
HETATM   49  O   UNK N   1      20.078  14.040   8.560  0.00  0.00    -0.388 OA
HETATM   50  H   UNK N   1      19.460  13.300   8.664  0.00  0.00     0.210 HD
ENDBRANCH  44  49
BRANCH  45  51
HETATM   51  N   UNK N   1      22.616  13.475   8.025  0.00  0.00    -0.336 N 
HETATM   52  C   UNK N   1      22.734  12.416   7.168  0.00  0.00     0.093 A 
HETATM   53  C   UNK N   1      23.179  11.173   7.639  0.00  0.00     0.018 A 
HETATM   54  C   UNK N   1      23.510  11.024   8.990  0.00  0.00     0.018 A 
HETATM   55  C   UNK N   1      23.380  12.113   9.857  0.00  0.00     0.030 A 
HETATM   56  C   UNK N   1      22.924  13.319   9.346  0.00  0.00     0.108 A 
BRANCH  55  57
HETATM   57  C   UNK N   1      23.731  12.033  11.289  0.00  0.00     0.145 C 
BRANCH  57  58
HETATM   58  N   UNK N   1      22.878  11.617  12.150  0.00  0.00    -0.379 N 
HETATM   59  H   UNK N   1      21.921  11.479  11.961  0.00  0.00     0.158 HD
ATOM     60  HN  UNK N   1      23.211  11.416  13.093  1.00  0.00     0.158 HD
ENDBRANCH  57  58
BRANCH  57  61
HETATM   61  O   UNK N   1      24.967  12.389  11.699  0.00  0.00    -0.346 OA
HETATM   62  H   UNK N   1      25.445  12.039  12.424  0.00  0.00     0.219 HD
ENDBRANCH  57  61
ENDBRANCH  55  57
ENDBRANCH  45  51
ENDBRANCH  41  42
ENDBRANCH  40  41
ENDBRANCH  36  40
ENDBRANCH  35  36
ENDBRANCH  32  35
ENDBRANCH   1  32
TORSDOF 22
ENDMDL
MODEL 7
REMARK VINA RESULT:      -8.0      9.684     13.214
REMARK  22 active torsions:
REMARK  status: ('A' for Active; 'I' for Inactive)
REMARK    1  A    between atoms: C_10  and  C_5 
REMARK    2  A    between atoms: O_44  and  C_5 
REMARK    3  A    between atoms: C_11  and  C_6 
REMARK    4  A    between atoms: O_45  and  C_6 
REMARK    5  A    between atoms: C_18  and  C_9 
REMARK    6  A    between atoms: C_13  and  O_33 
REMARK    7  A    between atoms: C_14  and  O_34 
REMARK    8  A    between atoms: C_15  and  O_35 
REMARK    9  A    between atoms: C_16  and  O_48 
REMARK   10  A    between atoms: N_22  and  C_17 
REMARK   11  A    between atoms: N_23  and  C_18 
REMARK   12  A    between atoms: O_36  and  C_18 
REMARK   13  A    between atoms: C_20  and  N_31 
REMARK   14  A    between atoms: C_21  and  N_32 
REMARK   15  A    between atoms: P_50  and  O_38 
REMARK   16  A    between atoms: P_50  and  O_39 
REMARK   17  A    between atoms: P_51  and  O_40 
REMARK   18  A    between atoms: P_51  and  O_44 
REMARK   19  A    between atoms: P_52  and  O_45 
REMARK   20  A    between atoms: P_50  and  O_48 
REMARK   21  A    between atoms: P_51  and  O_49 
REMARK   22  A    between atoms: P_52  and  O_49 
ROOT
HETATM    1  O   UNK N   1      19.009  16.322   6.815  0.00  0.00    -0.287 OA
ENDROOT
BRANCH   1   2
HETATM    2  C   UNK N   1      19.282  15.715   5.579  0.00  0.00     0.216 C 
BRANCH   2   3
HETATM    3  C   UNK N   1      20.358  16.597   4.949  0.00  0.00     0.180 C 
HETATM    4  C   UNK N   1      19.819  17.448   3.819  0.00  0.00     0.183 C 
HETATM    5  C   UNK N   1      21.121  18.135   3.472  0.00  0.00     0.214 C 
HETATM    6  C   UNK N   1      22.074  16.916   3.550  0.00  0.00     0.263 C 
HETATM    7  O   UNK N   1      21.470  15.934   4.401  0.00  0.00    -0.353 OA
BRANCH   4   8
HETATM    8  O   UNK N   1      19.384  16.629   2.767  0.00  0.00    -0.390 OA
HETATM    9  H   UNK N   1      19.280  15.804   2.266  0.00  0.00     0.210 HD
ENDBRANCH   4   8
BRANCH   5  10
HETATM   10  O   UNK N   1      21.216  18.760   2.205  0.00  0.00    -0.284 OA
BRANCH  10  11
HETATM   11  P   UNK N   1      21.082  20.507   2.308  0.00  0.00     0.391 P 
HETATM   12  O   UNK N   1      22.513  21.055   2.555  0.00  0.00    -0.632 OA
BRANCH  11  13
HETATM   13  O   UNK N   1      20.145  20.974   3.692  0.00  0.00    -0.307 OA
HETATM   14  H   UNK N   1      20.546  21.065   4.571  0.00  0.00     0.222 HD
ENDBRANCH  11  13
BRANCH  11  15
HETATM   15  O   UNK N   1      20.470  21.270   0.873  0.00  0.00    -0.307 OA
HETATM   16  H   UNK N   1      19.834  21.530   0.188  0.00  0.00     0.222 HD
ENDBRANCH  11  15
ENDBRANCH  10  11
ENDBRANCH   5  10
BRANCH   6  17
HETATM   17  N   UNK N   1      23.405  17.280   4.057  0.00  0.00    -0.297 N 
HETATM   18  C   UNK N   1      24.168  18.315   3.611  0.00  0.00     0.188 A 
HETATM   19  N   UNK N   1      25.348  18.394   4.287  0.00  0.00    -0.346 N 
HETATM   20  C   UNK N   1      25.303  17.369   5.156  0.00  0.00     0.122 A 
ATOM     21  HN  UNK N   1      26.096  19.076   4.161  1.00  0.00     0.167 HD
HETATM   22  C   UNK N   1      26.242  16.952   6.082  0.00  0.00     0.131 A 
HETATM   23  C   UNK N   1      24.138  16.704   5.020  0.00  0.00     0.142 A 
HETATM   24  N   UNK N   1      25.954  15.847   6.832  0.00  0.00    -0.337 N 
HETATM   25  C   UNK N   1      24.765  15.175   6.672  0.00  0.00     0.183 A 
ATOM     26  HN  UNK N   1      26.631  15.515   7.519  1.00  0.00     0.168 HD
HETATM   27  N   UNK N   1      23.840  15.607   5.760  0.00  0.00    -0.336 N 
ATOM     28  HN  UNK N   1      22.952  15.119   5.640  1.00  0.00     0.168 HD
BRANCH  22  29
HETATM   29  N   UNK N   1      27.463  17.638   6.250  0.00  0.00    -0.383 N 
HETATM   30  H   UNK N   1      27.924  17.773   7.110  0.00  0.00     0.157 HD
HETATM   31  H   UNK N   1      27.887  18.011   5.444  0.00  0.00     0.157 HD
ENDBRANCH  22  29
ENDBRANCH   6  17
ENDBRANCH   2   3
ENDBRANCH   1   2
BRANCH   1  32
HETATM   32  P   UNK N   1      20.466  16.760   7.658  0.00  0.00     0.417 P 
HETATM   33  O   UNK N   1      21.093  18.028   7.017  0.00  0.00    -0.624 OA
HETATM   34  O   UNK N   1      19.957  17.294   9.226  0.00  0.00    -0.624 OA
BRANCH  32  35
HETATM   35  O   UNK N   1      21.655  15.503   7.911  0.00  0.00    -0.188 OA
BRANCH  35  36
HETATM   36  P   UNK N   1      20.904  14.163   8.735  0.00  0.00     0.402 P 
HETATM   37  O   UNK N   1      21.837  13.813   9.927  0.00  0.00    -0.631 OA
BRANCH  36  38
HETATM   38  O   UNK N   1      19.378  14.652   9.401  0.00  0.00    -0.307 OA
HETATM   39  H   UNK N   1      18.886  14.949  10.182  0.00  0.00     0.222 HD
ENDBRANCH  36  38
BRANCH  36  40
HETATM   40  O   UNK N   1      20.756  12.740   7.744  0.00  0.00    -0.294 OA
BRANCH  40  41
HETATM   41  C   UNK N   1      21.952  12.619   7.040  0.00  0.00     0.215 C 
BRANCH  41  42
HETATM   42  C   UNK N   1      21.676  12.755   5.549  0.00  0.00     0.180 C 
HETATM   43  C   UNK N   1      20.246  12.449   5.174  0.00  0.00     0.182 C 
HETATM   44  C   UNK N   1      20.384  12.293   3.673  0.00  0.00     0.198 C 
HETATM   45  C   UNK N   1      21.870  11.851   3.516  0.00  0.00     0.259 C 
HETATM   46  O   UNK N   1      22.422  11.810   4.825  0.00  0.00    -0.353 OA
BRANCH  43  47
HETATM   47  O   UNK N   1      19.886  11.220   5.740  0.00  0.00    -0.390 OA
HETATM   48  H   UNK N   1      19.091  10.668   5.790  0.00  0.00     0.210 HD
ENDBRANCH  43  47
BRANCH  44  49
HETATM   49  O   UNK N   1      20.151  13.525   3.054  0.00  0.00    -0.388 OA
HETATM   50  H   UNK N   1      19.751  14.145   2.425  0.00  0.00     0.210 HD
ENDBRANCH  44  49
BRANCH  45  51
HETATM   51  N   UNK N   1      22.672  12.778   2.686  0.00  0.00    -0.336 N 
HETATM   52  C   UNK N   1      22.211  13.238   1.484  0.00  0.00     0.093 A 
HETATM   53  C   UNK N   1      22.983  14.130   0.728  0.00  0.00     0.018 A 
HETATM   54  C   UNK N   1      24.225  14.553   1.212  0.00  0.00     0.018 A 
HETATM   55  C   UNK N   1      24.688  14.071   2.440  0.00  0.00     0.030 A 
HETATM   56  C   UNK N   1      23.893  13.180   3.146  0.00  0.00     0.108 A 
BRANCH  55  57
HETATM   57  C   UNK N   1      25.979  14.489   3.022  0.00  0.00     0.145 C 
BRANCH  57  58
HETATM   58  N   UNK N   1      26.720  15.345   2.422  0.00  0.00    -0.379 N 
HETATM   59  H   UNK N   1      27.334  15.965   2.879  0.00  0.00     0.158 HD
ATOM     60  HN  UNK N   1      26.671  15.388   1.404  1.00  0.00     0.158 HD
ENDBRANCH  57  58
BRANCH  57  61
HETATM   61  O   UNK N   1      26.379  13.978   4.205  0.00  0.00    -0.346 OA
HETATM   62  H   UNK N   1      25.903  13.391   4.758  0.00  0.00     0.219 HD
ENDBRANCH  57  61
ENDBRANCH  55  57
ENDBRANCH  45  51
ENDBRANCH  41  42
ENDBRANCH  40  41
ENDBRANCH  36  40
ENDBRANCH  35  36
ENDBRANCH  32  35
ENDBRANCH   1  32
TORSDOF 22
ENDMDL
MODEL 8
REMARK VINA RESULT:      -7.9      5.830     12.291
REMARK  22 active torsions:
REMARK  status: ('A' for Active; 'I' for Inactive)
REMARK    1  A    between atoms: C_10  and  C_5 
REMARK    2  A    between atoms: O_44  and  C_5 
REMARK    3  A    between atoms: C_11  and  C_6 
REMARK    4  A    between atoms: O_45  and  C_6 
REMARK    5  A    between atoms: C_18  and  C_9 
REMARK    6  A    between atoms: C_13  and  O_33 
REMARK    7  A    between atoms: C_14  and  O_34 
REMARK    8  A    between atoms: C_15  and  O_35 
REMARK    9  A    between atoms: C_16  and  O_48 
REMARK   10  A    between atoms: N_22  and  C_17 
REMARK   11  A    between atoms: N_23  and  C_18 
REMARK   12  A    between atoms: O_36  and  C_18 
REMARK   13  A    between atoms: C_20  and  N_31 
REMARK   14  A    between atoms: C_21  and  N_32 
REMARK   15  A    between atoms: P_50  and  O_38 
REMARK   16  A    between atoms: P_50  and  O_39 
REMARK   17  A    between atoms: P_51  and  O_40 
REMARK   18  A    between atoms: P_51  and  O_44 
REMARK   19  A    between atoms: P_52  and  O_45 
REMARK   20  A    between atoms: P_50  and  O_48 
REMARK   21  A    between atoms: P_51  and  O_49 
REMARK   22  A    between atoms: P_52  and  O_49 
ROOT
HETATM    1  O   UNK N   1      29.684  13.956   4.475  0.00  0.00    -0.287 OA
ENDROOT
BRANCH   1   2
HETATM    2  C   UNK N   1      30.810  14.752   4.216  0.00  0.00     0.216 C 
BRANCH   2   3
HETATM    3  C   UNK N   1      30.755  15.849   5.277  0.00  0.00     0.180 C 
HETATM    4  C   UNK N   1      32.088  16.056   5.964  0.00  0.00     0.183 C 
HETATM    5  C   UNK N   1      31.643  17.159   6.898  0.00  0.00     0.214 C 
HETATM    6  C   UNK N   1      30.277  16.575   7.338  0.00  0.00     0.263 C 
HETATM    7  O   UNK N   1      29.837  15.664   6.325  0.00  0.00    -0.353 OA
BRANCH   4   8
HETATM    8  O   UNK N   1      32.444  14.902   6.678  0.00  0.00    -0.390 OA
HETATM    9  H   UNK N   1      32.933  14.084   6.858  0.00  0.00     0.210 HD
ENDBRANCH   4   8
BRANCH   5  10
HETATM   10  O   UNK N   1      32.454  17.431   8.026  0.00  0.00    -0.284 OA
BRANCH  10  11
HETATM   11  P   UNK N   1      34.136  17.692   7.594  0.00  0.00     0.391 P 
HETATM   12  O   UNK N   1      34.165  18.028   6.078  0.00  0.00    -0.632 OA
BRANCH  11  13
HETATM   13  O   UNK N   1      35.055  16.232   7.779  0.00  0.00    -0.307 OA
HETATM   14  H   UNK N   1      35.388  15.947   8.645  0.00  0.00     0.222 HD
ENDBRANCH  11  13
BRANCH  11  15
HETATM   15  O   UNK N   1      34.901  19.005   8.435  0.00  0.00    -0.307 OA
HETATM   16  H   UNK N   1      34.993  19.774   9.019  0.00  0.00     0.222 HD
ENDBRANCH  11  15
ENDBRANCH  10  11
ENDBRANCH   5  10
BRANCH   6  17
HETATM   17  N   UNK N   1      29.268  17.622   7.556  0.00  0.00    -0.297 N 
HETATM   18  C   UNK N   1      28.706  17.946   8.752  0.00  0.00     0.188 A 
HETATM   19  N   UNK N   1      27.808  18.963   8.625  0.00  0.00    -0.346 N 
HETATM   20  C   UNK N   1      27.818  19.252   7.311  0.00  0.00     0.122 A 
ATOM     21  HN  UNK N   1      27.255  19.404   9.359  1.00  0.00     0.167 HD
HETATM   22  C   UNK N   1      27.083  20.188   6.606  0.00  0.00     0.131 A 
HETATM   23  C   UNK N   1      28.693  18.450   6.672  0.00  0.00     0.142 A 
HETATM   24  N   UNK N   1      27.266  20.257   5.254  0.00  0.00    -0.337 N 
HETATM   25  C   UNK N   1      28.156  19.425   4.618  0.00  0.00     0.183 A 
ATOM     26  HN  UNK N   1      26.734  20.936   4.708  1.00  0.00     0.168 HD
HETATM   27  N   UNK N   1      28.885  18.512   5.331  0.00  0.00    -0.336 N 
ATOM     28  HN  UNK N   1      29.553  17.895   4.868  1.00  0.00     0.168 HD
BRANCH  22  29
HETATM   29  N   UNK N   1      26.170  21.044   7.254  0.00  0.00    -0.383 N 
HETATM   30  H   UNK N   1      26.280  21.407   8.163  0.00  0.00     0.157 HD
HETATM   31  H   UNK N   1      25.359  21.301   6.759  0.00  0.00     0.157 HD
ENDBRANCH  22  29
ENDBRANCH   6  17
ENDBRANCH   2   3
ENDBRANCH   1   2
BRANCH   1  32
HETATM   32  P   UNK N   1      28.481  14.109   3.229  0.00  0.00     0.417 P 
HETATM   33  O   UNK N   1      28.200  15.608   2.938  0.00  0.00    -0.624 OA
HETATM   34  O   UNK N   1      29.236  13.538   1.777  0.00  0.00    -0.624 OA
BRANCH  32  35
HETATM   35  O   UNK N   1      27.002  13.196   3.425  0.00  0.00    -0.188 OA
BRANCH  35  36
HETATM   36  P   UNK N   1      26.220  13.684   4.905  0.00  0.00     0.402 P 
HETATM   37  O   UNK N   1      25.981  12.380   5.715  0.00  0.00    -0.631 OA
BRANCH  36  38
HETATM   38  O   UNK N   1      27.287  14.684   5.840  0.00  0.00    -0.307 OA
HETATM   39  H   UNK N   1      28.198  14.971   6.010  0.00  0.00     0.222 HD
ENDBRANCH  36  38
BRANCH  36  40
HETATM   40  O   UNK N   1      24.675  14.440   4.651  0.00  0.00    -0.294 OA
BRANCH  40  41
HETATM   41  C   UNK N   1      24.790  15.206   3.493  0.00  0.00     0.215 C 
BRANCH  41  42
HETATM   42  C   UNK N   1      24.149  16.568   3.721  0.00  0.00     0.180 C 
HETATM   43  C   UNK N   1      25.060  17.548   4.422  0.00  0.00     0.182 C 
HETATM   44  C   UNK N   1      24.056  18.607   4.832  0.00  0.00     0.198 C 
HETATM   45  C   UNK N   1      22.731  17.793   4.934  0.00  0.00     0.259 C 
HETATM   46  O   UNK N   1      23.050  16.453   4.586  0.00  0.00    -0.353 OA
BRANCH  43  47
HETATM   47  O   UNK N   1      25.585  16.934   5.565  0.00  0.00    -0.390 OA
HETATM   48  H   UNK N   1      26.447  16.872   6.004  0.00  0.00     0.210 HD
ENDBRANCH  43  47
BRANCH  44  49
HETATM   49  O   UNK N   1      23.978  19.584   3.836  0.00  0.00    -0.388 OA
HETATM   50  H   UNK N   1      24.123  19.981   2.963  0.00  0.00     0.210 HD
ENDBRANCH  44  49
BRANCH  45  51
HETATM   51  N   UNK N   1      21.671  18.285   4.026  0.00  0.00    -0.336 N 
HETATM   52  C   UNK N   1      21.094  19.512   4.203  0.00  0.00     0.093 A 
HETATM   53  C   UNK N   1      20.105  19.961   3.317  0.00  0.00     0.018 A 
HETATM   54  C   UNK N   1      19.716  19.150   2.246  0.00  0.00     0.018 A 
HETATM   55  C   UNK N   1      20.310  17.895   2.079  0.00  0.00     0.030 A 
HETATM   56  C   UNK N   1      21.275  17.490   2.989  0.00  0.00     0.108 A 
BRANCH  55  57
HETATM   57  C   UNK N   1      19.964  16.996   0.960  0.00  0.00     0.145 C 
BRANCH  57  58
HETATM   58  N   UNK N   1      19.372  15.880   1.175  0.00  0.00    -0.379 N 
HETATM   59  H   UNK N   1      19.128  15.236   0.472  0.00  0.00     0.158 HD
ATOM     60  HN  UNK N   1      19.137  15.644   2.139  1.00  0.00     0.158 HD
ENDBRANCH  57  58
BRANCH  57  61
HETATM   61  O   UNK N   1      20.260  17.355  -0.307  0.00  0.00    -0.346 OA
HETATM   62  H   UNK N   1      20.478  16.788  -1.020  0.00  0.00     0.219 HD
ENDBRANCH  57  61
ENDBRANCH  55  57
ENDBRANCH  45  51
ENDBRANCH  41  42
ENDBRANCH  40  41
ENDBRANCH  36  40
ENDBRANCH  35  36
ENDBRANCH  32  35
ENDBRANCH   1  32
TORSDOF 22
ENDMDL
MODEL 9
REMARK VINA RESULT:      -7.9      3.512      5.692
REMARK  22 active torsions:
REMARK  status: ('A' for Active; 'I' for Inactive)
REMARK    1  A    between atoms: C_10  and  C_5 
REMARK    2  A    between atoms: O_44  and  C_5 
REMARK    3  A    between atoms: C_11  and  C_6 
REMARK    4  A    between atoms: O_45  and  C_6 
REMARK    5  A    between atoms: C_18  and  C_9 
REMARK    6  A    between atoms: C_13  and  O_33 
REMARK    7  A    between atoms: C_14  and  O_34 
REMARK    8  A    between atoms: C_15  and  O_35 
REMARK    9  A    between atoms: C_16  and  O_48 
REMARK   10  A    between atoms: N_22  and  C_17 
REMARK   11  A    between atoms: N_23  and  C_18 
REMARK   12  A    between atoms: O_36  and  C_18 
REMARK   13  A    between atoms: C_20  and  N_31 
REMARK   14  A    between atoms: C_21  and  N_32 
REMARK   15  A    between atoms: P_50  and  O_38 
REMARK   16  A    between atoms: P_50  and  O_39 
REMARK   17  A    between atoms: P_51  and  O_40 
REMARK   18  A    between atoms: P_51  and  O_44 
REMARK   19  A    between atoms: P_52  and  O_45 
REMARK   20  A    between atoms: P_50  and  O_48 
REMARK   21  A    between atoms: P_51  and  O_49 
REMARK   22  A    between atoms: P_52  and  O_49 
ROOT
HETATM    1  O   UNK N   1      35.485  11.486   7.229  0.00  0.00    -0.287 OA
ENDROOT
BRANCH   1   2
HETATM    2  C   UNK N   1      34.285  11.476   6.502  0.00  0.00     0.216 C 
BRANCH   2   3
HETATM    3  C   UNK N   1      33.753  12.902   6.621  0.00  0.00     0.180 C 
HETATM    4  C   UNK N   1      34.332  13.638   7.811  0.00  0.00     0.183 C 
HETATM    5  C   UNK N   1      33.593  14.940   7.597  0.00  0.00     0.214 C 
HETATM    6  C   UNK N   1      32.193  14.378   7.248  0.00  0.00     0.263 C 
HETATM    7  O   UNK N   1      32.360  13.044   6.754  0.00  0.00    -0.353 OA
BRANCH   4   8
HETATM    8  O   UNK N   1      33.927  13.017   9.002  0.00  0.00    -0.390 OA
HETATM    9  H   UNK N   1      34.041  12.554   9.847  0.00  0.00     0.210 HD
ENDBRANCH   4   8
BRANCH   5  10
HETATM   10  O   UNK N   1      33.512  15.836   8.691  0.00  0.00    -0.284 OA
BRANCH  10  11
HETATM   11  P   UNK N   1      34.003  17.465   8.261  0.00  0.00     0.391 P 
HETATM   12  O   UNK N   1      32.734  18.355   8.340  0.00  0.00    -0.632 OA
BRANCH  11  13
HETATM   13  O   UNK N   1      34.535  17.534   6.611  0.00  0.00    -0.307 OA
HETATM   14  H   UNK N   1      34.513  16.753   6.036  0.00  0.00     0.222 HD
ENDBRANCH  11  13
BRANCH  11  15
HETATM   15  O   UNK N   1      35.196  18.161   9.315  0.00  0.00    -0.307 OA
HETATM   16  H   UNK N   1      35.778  18.833   9.704  0.00  0.00     0.222 HD
ENDBRANCH  11  15
ENDBRANCH  10  11
ENDBRANCH   5  10
BRANCH   6  17
HETATM   17  N   UNK N   1      31.492  15.205   6.256  0.00  0.00    -0.297 N 
HETATM   18  C   UNK N   1      31.626  15.109   4.905  0.00  0.00     0.188 A 
HETATM   19  N   UNK N   1      30.838  16.011   4.257  0.00  0.00    -0.346 N 
HETATM   20  C   UNK N   1      30.219  16.682   5.246  0.00  0.00     0.122 A 
ATOM     21  HN  UNK N   1      30.739  16.148   3.252  1.00  0.00     0.167 HD
HETATM   22  C   UNK N   1      29.317  17.728   5.176  0.00  0.00     0.131 A 
HETATM   23  C   UNK N   1      30.609  16.197   6.442  0.00  0.00     0.142 A 
HETATM   24  N   UNK N   1      28.856  18.254   6.350  0.00  0.00    -0.337 N 
HETATM   25  C   UNK N   1      29.273  17.753   7.560  0.00  0.00     0.183 A 
ATOM     26  HN  UNK N   1      28.193  19.030   6.327  1.00  0.00     0.168 HD
HETATM   27  N   UNK N   1      30.156  16.708   7.613  0.00  0.00    -0.336 N 
ATOM     28  HN  UNK N   1      30.465  16.326   8.507  1.00  0.00     0.168 HD
BRANCH  22  29
HETATM   29  N   UNK N   1      28.887  18.244   3.937  0.00  0.00    -0.383 N 
HETATM   30  H   UNK N   1      28.013  18.063   3.520  0.00  0.00     0.157 HD
HETATM   31  H   UNK N   1      29.508  18.833   3.451  0.00  0.00     0.157 HD
ENDBRANCH  22  29
ENDBRANCH   6  17
ENDBRANCH   2   3
ENDBRANCH   1   2
BRANCH   1  32
HETATM   32  P   UNK N   1      36.775  10.705   6.362  0.00  0.00     0.417 P 
HETATM   33  O   UNK N   1      36.368   9.252   5.992  0.00  0.00    -0.624 OA
HETATM   34  O   UNK N   1      36.866  11.514   4.832  0.00  0.00    -0.624 OA
BRANCH  32  35
HETATM   35  O   UNK N   1      38.372  10.773   7.069  0.00  0.00    -0.188 OA
BRANCH  35  36
HETATM   36  P   UNK N   1      38.637  12.363   7.733  0.00  0.00     0.402 P 
HETATM   37  O   UNK N   1      40.134  12.694   7.476  0.00  0.00    -0.631 OA
BRANCH  36  38
HETATM   38  O   UNK N   1      37.694  13.535   6.867  0.00  0.00    -0.307 OA
HETATM   39  H   UNK N   1      37.477  14.471   6.733  0.00  0.00     0.222 HD
ENDBRANCH  36  38
BRANCH  36  40
HETATM   40  O   UNK N   1      38.364  12.447   9.449  0.00  0.00    -0.294 OA
BRANCH  40  41
HETATM   41  C   UNK N   1      38.034  13.770   9.737  0.00  0.00     0.215 C 
BRANCH  41  42
HETATM   42  C   UNK N   1      36.815  13.800  10.648  0.00  0.00     0.180 C 
HETATM   43  C   UNK N   1      36.120  15.140  10.673  0.00  0.00     0.182 C 
HETATM   44  C   UNK N   1      35.244  14.970  11.899  0.00  0.00     0.198 C 
HETATM   45  C   UNK N   1      36.039  13.926  12.738  0.00  0.00     0.259 C 
HETATM   46  O   UNK N   1      37.197  13.596  11.984  0.00  0.00    -0.353 OA
BRANCH  43  47
HETATM   47  O   UNK N   1      37.074  16.136  10.914  0.00  0.00    -0.390 OA
HETATM   48  H   UNK N   1      37.096  17.106  10.939  0.00  0.00     0.210 HD
ENDBRANCH  43  47
BRANCH  44  49
HETATM   49  O   UNK N   1      33.997  14.471  11.513  0.00  0.00    -0.388 OA
HETATM   50  H   UNK N   1      33.346  14.055  10.927  0.00  0.00     0.210 HD
ENDBRANCH  44  49
BRANCH  45  51
HETATM   51  N   UNK N   1      35.274  12.688  13.010  0.00  0.00    -0.336 N 
HETATM   52  C   UNK N   1      34.711  12.454  14.233  0.00  0.00     0.093 A 
HETATM   53  C   UNK N   1      33.975  11.282  14.457  0.00  0.00     0.018 A 
HETATM   54  C   UNK N   1      33.815  10.357  13.420  0.00  0.00     0.018 A 
HETATM   55  C   UNK N   1      34.400  10.606  12.175  0.00  0.00     0.030 A 
HETATM   56  C   UNK N   1      35.129  11.774  12.006  0.00  0.00     0.108 A 
BRANCH  55  57
HETATM   57  C   UNK N   1      34.255   9.685  11.031  0.00  0.00     0.145 C 
BRANCH  57  58
HETATM   58  N   UNK N   1      34.223   8.417  11.210  0.00  0.00    -0.379 N 
HETATM   59  H   UNK N   1      34.709   7.945  11.925  0.00  0.00     0.158 HD
ATOM     60  HN  UNK N   1      33.658   7.859  10.570  1.00  0.00     0.158 HD
ENDBRANCH  57  58
BRANCH  57  61
HETATM   61  O   UNK N   1      34.139  10.181   9.780  0.00  0.00    -0.346 OA
HETATM   62  H   UNK N   1      34.739  10.748   9.338  0.00  0.00     0.219 HD
ENDBRANCH  57  61
ENDBRANCH  55  57
ENDBRANCH  45  51
ENDBRANCH  41  42
ENDBRANCH  40  41
ENDBRANCH  36  40
ENDBRANCH  35  36
ENDBRANCH  32  35
ENDBRANCH   1  32
TORSDOF 22
ENDMDL
