MODEL 1
REMARK VINA RESULT:      -5.1      0.000      0.000
REMARK  6 active torsions:
REMARK  status: ('A' for Active; 'I' for Inactive)
REMARK    1  A    between atoms: C_2  and  C_1 
REMARK    2  A    between atoms: O_8  and  C_1 
REMARK    3  A    between atoms: C_3  and  O_9 
REMARK    4  A    between atoms: C_4  and  O_10 
REMARK    5  A    between atoms: C_5  and  O_11 
REMARK    6  A    between atoms: C_6  and  N_7 
ROOT
HETATM    1  C   UNK N   1      36.383  13.804  10.188  0.00  0.00     0.104 C 
HETATM    2  C   UNK N   1      36.048  15.194  10.769  0.00  0.00     0.165 C 
HETATM    3  C   UNK N   1      34.972  15.906   9.926  0.00  0.00     0.179 C 
HETATM    4  C   UNK N   1      33.651  15.118   9.831  0.00  0.00     0.181 C 
HETATM    5  C   UNK N   1      33.868  13.722   9.230  0.00  0.00     0.169 C 
HETATM    6  S   UNK N   1      34.931  12.705  10.307  0.00  0.00    -0.132 SA
ENDROOT
BRANCH   1   7
HETATM    7  C   UNK N   1      37.514  13.124  10.956  0.00  0.00     0.181 C 
BRANCH   7   8
HETATM    8  O   UNK N   1      37.434  13.412  12.321  0.00  0.00    -0.400 OA
HETATM    9  H   UNK N   1      38.178  13.625  12.906  0.00  0.00     0.209 HD
ENDBRANCH   7   8
ENDBRANCH   1   7
BRANCH   2  10
HETATM   10  O   UNK N   1      37.195  15.995  10.781  0.00  0.00    -0.392 OA
HETATM   11  H   UNK N   1      37.627  16.268  11.606  0.00  0.00     0.210 HD
ENDBRANCH   2  10
BRANCH   3  12
HETATM   12  O   UNK N   1      34.714  17.168  10.465  0.00  0.00    -0.390 OA
HETATM   13  H   UNK N   1      33.999  17.728  10.126  0.00  0.00     0.210 HD
ENDBRANCH   3  12
BRANCH   5  14
HETATM   14  N   UNK N   1      32.586  13.053   9.084  0.00  0.00    -0.416 N 
HETATM   15  H   UNK N   1      31.934  13.327   8.350  0.00  0.00     0.151 HD
HETATM   16  H   UNK N   1      32.336  12.299   9.725  0.00  0.00     0.151 HD
ENDBRANCH   5  14
BRANCH   4  17
HETATM   17  O   UNK N   1      33.058  15.014  11.094  0.00  0.00    -0.390 OA
HETATM   18  H   UNK N   1      32.413  14.948  11.815  0.00  0.00     0.210 HD
ENDBRANCH   4  17
TORSDOF 6
ENDMDL
MODEL 2
REMARK VINA RESULT:      -4.7      2.471      4.135
REMARK  6 active torsions:
REMARK  status: ('A' for Active; 'I' for Inactive)
REMARK    1  A    between atoms: C_2  and  C_1 
REMARK    2  A    between atoms: O_8  and  C_1 
REMARK    3  A    between atoms: C_3  and  O_9 
REMARK    4  A    between atoms: C_4  and  O_10 
REMARK    5  A    between atoms: C_5  and  O_11 
REMARK    6  A    between atoms: C_6  and  N_7 
ROOT
HETATM    1  C   UNK N   1      35.304  14.893   9.948  0.00  0.00     0.104 C 
HETATM    2  C   UNK N   1      34.649  14.687  11.330  0.00  0.00     0.165 C 
HETATM    3  C   UNK N   1      35.022  13.314  11.925  0.00  0.00     0.179 C 
HETATM    4  C   UNK N   1      36.540  13.119  12.102  0.00  0.00     0.181 C 
HETATM    5  C   UNK N   1      37.289  13.270  10.771  0.00  0.00     0.169 C 
HETATM    6  S   UNK N   1      37.119  14.963  10.116  0.00  0.00    -0.132 SA
ENDROOT
BRANCH   1   7
HETATM    7  C   UNK N   1      34.870  16.207   9.304  0.00  0.00     0.181 C 
BRANCH   7   8
HETATM    8  O   UNK N   1      34.651  17.190  10.272  0.00  0.00    -0.400 OA
HETATM    9  H   UNK N   1      35.001  17.190  11.177  0.00  0.00     0.209 HD
ENDBRANCH   7   8
ENDBRANCH   1   7
BRANCH   2  10
HETATM   10  O   UNK N   1      33.256  14.748  11.212  0.00  0.00    -0.392 OA
HETATM   11  H   UNK N   1      32.805  15.498  10.792  0.00  0.00     0.210 HD
ENDBRANCH   2  10
BRANCH   3  12
HETATM   12  O   UNK N   1      34.391  13.152  13.160  0.00  0.00    -0.390 OA
HETATM   13  H   UNK N   1      33.451  12.924  13.223  0.00  0.00     0.210 HD
ENDBRANCH   3  12
BRANCH   5  14
HETATM   14  N   UNK N   1      38.701  12.995  10.976  0.00  0.00    -0.416 N 
HETATM   15  H   UNK N   1      39.055  12.734  11.895  0.00  0.00     0.151 HD
HETATM   16  H   UNK N   1      39.347  13.065  10.188  0.00  0.00     0.151 HD
ENDBRANCH   5  14
BRANCH   4  17
HETATM   17  O   UNK N   1      37.038  14.026  13.044  0.00  0.00    -0.390 OA
HETATM   18  H   UNK N   1      37.475  14.781  13.465  0.00  0.00     0.210 HD
ENDBRANCH   4  17
TORSDOF 6
ENDMDL
MODEL 3
REMARK VINA RESULT:      -4.7     16.570     17.617
REMARK  6 active torsions:
REMARK  status: ('A' for Active; 'I' for Inactive)
REMARK    1  A    between atoms: C_2  and  C_1 
REMARK    2  A    between atoms: O_8  and  C_1 
REMARK    3  A    between atoms: C_3  and  O_9 
REMARK    4  A    between atoms: C_4  and  O_10 
REMARK    5  A    between atoms: C_5  and  O_11 
REMARK    6  A    between atoms: C_6  and  N_7 
ROOT
HETATM    1  C   UNK N   1      20.931  19.397   1.962  0.00  0.00     0.104 C 
HETATM    2  C   UNK N   1      20.046  18.243   1.445  0.00  0.00     0.165 C 
HETATM    3  C   UNK N   1      20.466  16.897   2.067  0.00  0.00     0.179 C 
HETATM    4  C   UNK N   1      20.384  16.884   3.605  0.00  0.00     0.181 C 
HETATM    5  C   UNK N   1      21.261  17.980   4.227  0.00  0.00     0.169 C 
HETATM    6  S   UNK N   1      20.669  19.637   3.752  0.00  0.00    -0.132 SA
ENDROOT
BRANCH   1   7
HETATM    7  C   UNK N   1      20.589  20.723   1.285  0.00  0.00     0.181 C 
BRANCH   7   8
HETATM    8  O   UNK N   1      20.976  20.712  -0.057  0.00  0.00    -0.400 OA
HETATM    9  H   UNK N   1      21.851  20.947  -0.403  0.00  0.00     0.209 HD
ENDBRANCH   7   8
ENDBRANCH   1   7
BRANCH   2  10
HETATM   10  O   UNK N   1      20.164  18.139   0.054  0.00  0.00    -0.392 OA
HETATM   11  H   UNK N   1      19.400  17.959  -0.517  0.00  0.00     0.210 HD
ENDBRANCH   2  10
BRANCH   3  12
HETATM   12  O   UNK N   1      19.663  15.875   1.557  0.00  0.00    -0.390 OA
HETATM   13  H   UNK N   1      19.059  15.372   2.126  0.00  0.00     0.210 HD
ENDBRANCH   3  12
BRANCH   5  14
HETATM   14  N   UNK N   1      21.215  17.873   5.676  0.00  0.00    -0.416 N 
HETATM   15  H   UNK N   1      21.856  18.408   6.260  0.00  0.00     0.151 HD
HETATM   16  H   UNK N   1      20.532  17.254   6.114  0.00  0.00     0.151 HD
ENDBRANCH   5  14
BRANCH   4  17
HETATM   17  O   UNK N   1      19.056  17.033   4.021  0.00  0.00    -0.390 OA
HETATM   18  H   UNK N   1      18.176  17.393   4.206  0.00  0.00     0.210 HD
ENDBRANCH   4  17
TORSDOF 6
ENDMDL
MODEL 4
REMARK VINA RESULT:      -4.7     14.427     15.851
REMARK  6 active torsions:
REMARK  status: ('A' for Active; 'I' for Inactive)
REMARK    1  A    between atoms: C_2  and  C_1 
REMARK    2  A    between atoms: O_8  and  C_1 
REMARK    3  A    between atoms: C_3  and  O_9 
REMARK    4  A    between atoms: C_4  and  O_10 
REMARK    5  A    between atoms: C_5  and  O_11 
REMARK    6  A    between atoms: C_6  and  N_7 
ROOT
HETATM    1  C   UNK N   1      22.483  17.989   3.521  0.00  0.00     0.104 C 
HETATM    2  C   UNK N   1      22.836  19.479   3.713  0.00  0.00     0.165 C 
HETATM    3  C   UNK N   1      22.151  20.355   2.646  0.00  0.00     0.179 C 
HETATM    4  C   UNK N   1      20.614  20.242   2.658  0.00  0.00     0.181 C 
HETATM    5  C   UNK N   1      20.153  18.794   2.440  0.00  0.00     0.169 C 
HETATM    6  S   UNK N   1      20.701  17.722   3.809  0.00  0.00    -0.132 SA
ENDROOT
BRANCH   1   7
HETATM    7  C   UNK N   1      23.228  17.097   4.512  0.00  0.00     0.181 C 
BRANCH   7   8
HETATM    8  O   UNK N   1      23.504  17.787   5.695  0.00  0.00    -0.400 OA
HETATM    9  H   UNK N   1      22.861  18.262   6.245  0.00  0.00     0.209 HD
ENDBRANCH   7   8
ENDBRANCH   1   7
BRANCH   2  10
HETATM   10  O   UNK N   1      24.219  19.660   3.605  0.00  0.00    -0.392 OA
HETATM   11  H   UNK N   1      24.772  19.888   4.369  0.00  0.00     0.210 HD
ENDBRANCH   2  10
BRANCH   3  12
HETATM   12  O   UNK N   1      22.512  21.691   2.834  0.00  0.00    -0.390 OA
HETATM   13  H   UNK N   1      23.216  22.104   2.309  0.00  0.00     0.210 HD
ENDBRANCH   3  12
BRANCH   5  14
HETATM   14  N   UNK N   1      18.701  18.752   2.377  0.00  0.00    -0.416 N 
HETATM   15  H   UNK N   1      18.145  18.626   3.221  0.00  0.00     0.151 HD
HETATM   16  H   UNK N   1      18.234  18.851   1.475  0.00  0.00     0.151 HD
ENDBRANCH   5  14
BRANCH   4  17
HETATM   17  O   UNK N   1      20.101  20.738   3.862  0.00  0.00    -0.390 OA
HETATM   18  H   UNK N   1      19.509  20.978   4.590  0.00  0.00     0.210 HD
ENDBRANCH   4  17
TORSDOF 6
ENDMDL
MODEL 5
REMARK VINA RESULT:      -4.5      2.708      3.508
REMARK  6 active torsions:
REMARK  status: ('A' for Active; 'I' for Inactive)
REMARK    1  A    between atoms: C_2  and  C_1 
REMARK    2  A    between atoms: O_8  and  C_1 
REMARK    3  A    between atoms: C_3  and  O_9 
REMARK    4  A    between atoms: C_4  and  O_10 
REMARK    5  A    between atoms: C_5  and  O_11 
REMARK    6  A    between atoms: C_6  and  N_7 
ROOT
HETATM    1  C   UNK N   1      34.421  15.577   9.322  0.00  0.00     0.104 C 
HETATM    2  C   UNK N   1      34.570  17.101   9.517  0.00  0.00     0.165 C 
HETATM    3  C   UNK N   1      34.709  17.825   8.163  0.00  0.00     0.179 C 
HETATM    4  C   UNK N   1      33.510  17.597   7.223  0.00  0.00     0.181 C 
HETATM    5  C   UNK N   1      33.294  16.105   6.935  0.00  0.00     0.169 C 
HETATM    6  S   UNK N   1      32.859  15.203   8.458  0.00  0.00    -0.132 SA
ENDROOT
BRANCH   1   7
HETATM    7  C   UNK N   1      34.376  14.836  10.655  0.00  0.00     0.181 C 
BRANCH   7   8
HETATM    8  O   UNK N   1      33.096  14.886  11.212  0.00  0.00    -0.400 OA
HETATM    9  H   UNK N   1      32.494  14.135  11.335  0.00  0.00     0.209 HD
ENDBRANCH   7   8
ENDBRANCH   1   7
BRANCH   2  10
HETATM   10  O   UNK N   1      35.711  17.376  10.279  0.00  0.00    -0.392 OA
HETATM   11  H   UNK N   1      36.108  18.260  10.314  0.00  0.00     0.210 HD
ENDBRANCH   2  10
BRANCH   3  12
HETATM   12  O   UNK N   1      34.868  19.196   8.380  0.00  0.00    -0.390 OA
HETATM   13  H   UNK N   1      34.125  19.754   8.660  0.00  0.00     0.210 HD
ENDBRANCH   3  12
BRANCH   5  14
HETATM   14  N   UNK N   1      32.208  15.949   5.981  0.00  0.00    -0.416 N 
HETATM   15  H   UNK N   1      31.254  15.778   6.299  0.00  0.00     0.151 HD
HETATM   16  H   UNK N   1      32.403  16.011   4.981  0.00  0.00     0.151 HD
ENDBRANCH   5  14
BRANCH   4  17
HETATM   17  O   UNK N   1      32.351  18.158   7.773  0.00  0.00    -0.390 OA
HETATM   18  H   UNK N   1      31.427  18.373   7.970  0.00  0.00     0.210 HD
ENDBRANCH   4  17
TORSDOF 6
ENDMDL
MODEL 6
REMARK VINA RESULT:      -4.5     13.083     13.894
REMARK  6 active torsions:
REMARK  status: ('A' for Active; 'I' for Inactive)
REMARK    1  A    between atoms: C_2  and  C_1 
REMARK    2  A    between atoms: O_8  and  C_1 
REMARK    3  A    between atoms: C_3  and  O_9 
REMARK    4  A    between atoms: C_4  and  O_10 
REMARK    5  A    between atoms: C_5  and  O_11 
REMARK    6  A    between atoms: C_6  and  N_7 
ROOT
HETATM    1  C   UNK N   1      42.367  22.179   2.724  0.00  0.00     0.104 C 
HETATM    2  C   UNK N   1      43.758  22.745   3.081  0.00  0.00     0.165 C 
HETATM    3  C   UNK N   1      44.544  21.768   3.978  0.00  0.00     0.179 C 
HETATM    4  C   UNK N   1      44.762  20.387   3.331  0.00  0.00     0.181 C 
HETATM    5  C   UNK N   1      43.430  19.717   2.966  0.00  0.00     0.169 C 
HETATM    6  S   UNK N   1      42.541  20.681   1.698  0.00  0.00    -0.132 SA
ENDROOT
BRANCH   1   7
HETATM    7  C   UNK N   1      41.540  23.174   1.914  0.00  0.00     0.181 C 
BRANCH   7   8
HETATM    8  O   UNK N   1      42.362  24.114   1.286  0.00  0.00    -0.400 OA
HETATM    9  H   UNK N   1      42.321  24.379   0.354  0.00  0.00     0.209 HD
ENDBRANCH   7   8
ENDBRANCH   1   7
BRANCH   2  10
HETATM   10  O   UNK N   1      43.618  23.955   3.769  0.00  0.00    -0.392 OA
HETATM   11  H   UNK N   1      44.369  24.395   4.199  0.00  0.00     0.210 HD
ENDBRANCH   2  10
BRANCH   3  12
HETATM   12  O   UNK N   1      45.783  22.324   4.301  0.00  0.00    -0.390 OA
HETATM   13  H   UNK N   1      45.877  22.974   5.015  0.00  0.00     0.210 HD
ENDBRANCH   3  12
BRANCH   5  14
HETATM   14  N   UNK N   1      43.685  18.387   2.437  0.00  0.00    -0.416 N 
HETATM   15  H   UNK N   1      43.858  18.244   1.443  0.00  0.00     0.151 HD
HETATM   16  H   UNK N   1      43.691  17.587   3.071  0.00  0.00     0.151 HD
ENDBRANCH   5  14
BRANCH   4  17
HETATM   17  O   UNK N   1      45.571  20.507   2.196  0.00  0.00    -0.390 OA
HETATM   18  H   UNK N   1      45.886  20.646   1.290  0.00  0.00     0.210 HD
ENDBRANCH   4  17
TORSDOF 6
ENDMDL
MODEL 7
REMARK VINA RESULT:      -4.4     12.641     13.234
REMARK  6 active torsions:
REMARK  status: ('A' for Active; 'I' for Inactive)
REMARK    1  A    between atoms: C_2  and  C_1 
REMARK    2  A    between atoms: O_8  and  C_1 
REMARK    3  A    between atoms: C_3  and  O_9 
REMARK    4  A    between atoms: C_4  and  O_10 
REMARK    5  A    between atoms: C_5  and  O_11 
REMARK    6  A    between atoms: C_6  and  N_7 
ROOT
HETATM    1  C   UNK N   1      43.873  21.687   2.912  0.00  0.00     0.104 C 
HETATM    2  C   UNK N   1      42.918  22.881   3.126  0.00  0.00     0.165 C 
HETATM    3  C   UNK N   1      42.053  23.134   1.875  0.00  0.00     0.179 C 
HETATM    4  C   UNK N   1      41.190  21.921   1.475  0.00  0.00     0.181 C 
HETATM    5  C   UNK N   1      42.052  20.680   1.204  0.00  0.00     0.169 C 
HETATM    6  S   UNK N   1      42.918  20.145   2.716  0.00  0.00    -0.132 SA
ENDROOT
BRANCH   1   7
HETATM    7  C   UNK N   1      44.802  21.482   4.106  0.00  0.00     0.181 C 
BRANCH   7   8
HETATM    8  O   UNK N   1      45.821  22.438   4.116  0.00  0.00    -0.400 OA
HETATM    9  H   UNK N   1      46.167  22.914   3.345  0.00  0.00     0.209 HD
ENDBRANCH   7   8
ENDBRANCH   1   7
BRANCH   2  10
HETATM   10  O   UNK N   1      43.655  24.041   3.389  0.00  0.00    -0.392 OA
HETATM   11  H   UNK N   1      43.235  24.865   3.681  0.00  0.00     0.210 HD
ENDBRANCH   2  10
BRANCH   3  12
HETATM   12  O   UNK N   1      41.222  24.234   2.095  0.00  0.00    -0.390 OA
HETATM   13  H   UNK N   1      40.284  24.219   1.849  0.00  0.00     0.210 HD
ENDBRANCH   3  12
BRANCH   5  14
HETATM   14  N   UNK N   1      41.202  19.590   0.751  0.00  0.00    -0.416 N 
HETATM   15  H   UNK N   1      40.509  19.738   0.019  0.00  0.00     0.151 HD
HETATM   16  H   UNK N   1      41.302  18.666   1.172  0.00  0.00     0.151 HD
ENDBRANCH   5  14
BRANCH   4  17
HETATM   17  O   UNK N   1      40.247  21.649   2.472  0.00  0.00    -0.390 OA
HETATM   18  H   UNK N   1      39.602  21.206   3.044  0.00  0.00     0.210 HD
ENDBRANCH   4  17
TORSDOF 6
ENDMDL
MODEL 8
REMARK VINA RESULT:      -4.3      2.200      3.627
REMARK  6 active torsions:
REMARK  status: ('A' for Active; 'I' for Inactive)
REMARK    1  A    between atoms: C_2  and  C_1 
REMARK    2  A    between atoms: O_8  and  C_1 
REMARK    3  A    between atoms: C_3  and  O_9 
REMARK    4  A    between atoms: C_4  and  O_10 
REMARK    5  A    between atoms: C_5  and  O_11 
REMARK    6  A    between atoms: C_6  and  N_7 
ROOT
HETATM    1  C   UNK N   1      34.096  16.996   8.909  0.00  0.00     0.104 C 
HETATM    2  C   UNK N   1      35.272  16.589   9.822  0.00  0.00     0.165 C 
HETATM    3  C   UNK N   1      34.803  15.645  10.947  0.00  0.00     0.179 C 
HETATM    4  C   UNK N   1      34.155  14.348  10.426  0.00  0.00     0.181 C 
HETATM    5  C   UNK N   1      32.946  14.641   9.528  0.00  0.00     0.169 C 
HETATM    6  S   UNK N   1      33.452  15.537   8.023  0.00  0.00    -0.132 SA
ENDROOT
BRANCH   1   7
HETATM    7  C   UNK N   1      34.525  18.004   7.846  0.00  0.00     0.181 C 
BRANCH   7   8
HETATM    8  O   UNK N   1      34.862  19.229   8.426  0.00  0.00    -0.400 OA
HETATM    9  H   UNK N   1      35.457  19.361   9.180  0.00  0.00     0.209 HD
ENDBRANCH   7   8
ENDBRANCH   1   7
BRANCH   2  10
HETATM   10  O   UNK N   1      35.835  17.726  10.411  0.00  0.00    -0.392 OA
HETATM   11  H   UNK N   1      35.510  18.087  11.251  0.00  0.00     0.210 HD
ENDBRANCH   2  10
BRANCH   3  12
HETATM   12  O   UNK N   1      35.885  15.319  11.767  0.00  0.00    -0.390 OA
HETATM   13  H   UNK N   1      35.886  15.530  12.714  0.00  0.00     0.210 HD
ENDBRANCH   3  12
BRANCH   5  14
HETATM   14  N   UNK N   1      32.322  13.390   9.130  0.00  0.00    -0.416 N 
HETATM   15  H   UNK N   1      31.725  12.875   9.777  0.00  0.00     0.151 HD
HETATM   16  H   UNK N   1      32.484  13.022   8.192  0.00  0.00     0.151 HD
ENDBRANCH   5  14
BRANCH   4  17
HETATM   17  O   UNK N   1      35.099  13.581   9.732  0.00  0.00    -0.390 OA
HETATM   18  H   UNK N   1      35.525  12.897   9.194  0.00  0.00     0.210 HD
ENDBRANCH   4  17
TORSDOF 6
ENDMDL
MODEL 9
REMARK VINA RESULT:      -4.2      3.617      4.144
REMARK  6 active torsions:
REMARK  status: ('A' for Active; 'I' for Inactive)
REMARK    1  A    between atoms: C_2  and  C_1 
REMARK    2  A    between atoms: O_8  and  C_1 
REMARK    3  A    between atoms: C_3  and  O_9 
REMARK    4  A    between atoms: C_4  and  O_10 
REMARK    5  A    between atoms: C_5  and  O_11 
REMARK    6  A    between atoms: C_6  and  N_7 
ROOT
HETATM    1  C   UNK N   1      35.913  12.340  14.892  0.00  0.00     0.104 C 
HETATM    2  C   UNK N   1      36.111  13.792  14.406  0.00  0.00     0.165 C 
HETATM    3  C   UNK N   1      36.430  13.836  12.899  0.00  0.00     0.179 C 
HETATM    4  C   UNK N   1      35.330  13.205  12.024  0.00  0.00     0.181 C 
HETATM    5  C   UNK N   1      35.076  11.739  12.405  0.00  0.00     0.169 C 
HETATM    6  S   UNK N   1      34.437  11.609  14.107  0.00  0.00    -0.132 SA
ENDROOT
BRANCH   1   7
HETATM    7  C   UNK N   1      35.690  12.272  16.401  0.00  0.00     0.181 C 
BRANCH   7   8
HETATM    8  O   UNK N   1      34.938  13.363  16.844  0.00  0.00    -0.400 OA
HETATM    9  H   UNK N   1      35.183  14.298  16.763  0.00  0.00     0.209 HD
ENDBRANCH   7   8
ENDBRANCH   1   7
BRANCH   2  10
HETATM   10  O   UNK N   1      37.175  14.385  15.095  0.00  0.00    -0.392 OA
HETATM   11  H   UNK N   1      38.101  14.192  14.881  0.00  0.00     0.210 HD
ENDBRANCH   2  10
BRANCH   3  12
HETATM   12  O   UNK N   1      36.628  15.160  12.501  0.00  0.00    -0.390 OA
HETATM   13  H   UNK N   1      36.115  15.887  12.886  0.00  0.00     0.210 HD
ENDBRANCH   3  12
BRANCH   5  14
HETATM   14  N   UNK N   1      34.093  11.167  11.500  0.00  0.00    -0.416 N 
HETATM   15  H   UNK N   1      33.114  11.094  11.770  0.00  0.00     0.151 HD
HETATM   16  H   UNK N   1      34.389  10.833  10.582  0.00  0.00     0.151 HD
ENDBRANCH   5  14
BRANCH   4  17
HETATM   17  O   UNK N   1      34.146  13.944  12.126  0.00  0.00    -0.390 OA
HETATM   18  H   UNK N   1      33.465  14.571  12.412  0.00  0.00     0.210 HD
ENDBRANCH   4  17
TORSDOF 6
ENDMDL
