REMARK  5 active torsions:
REMARK  status: ('A' for Active; 'I' for Inactive)
REMARK    1  A    between atoms: C_2  and  O_3 
REMARK    2  A    between atoms: C_2  and  C_4 
REMARK    3  A    between atoms: C_4  and  N_5 
REMARK    4  A    between atoms: C_4  and  C_6 
REMARK    5  A    between atoms: C_6  and  O_7 
ROOT
HETATM    1  C   UNK N   1       1.621   1.107   0.455  0.00  0.00     0.202 C 
ENDROOT
BRANCH   1   2
HETATM    2  C   UNK N   1       1.025   2.265  -0.353  0.00  0.00     0.146 C 
HETATM    3  C   UNK N   1       1.706   3.574   0.009  0.00  0.00     0.042 C 
BRANCH   2   4
HETATM    4  O   UNK N   1      -0.338   2.391  -0.078  0.00  0.00    -0.393 OA
HETATM    5  H   UNK N   1      -0.735   3.256   0.112  0.00  0.00     0.210 HD
ENDBRANCH   2   4
ENDBRANCH   1   2
BRANCH   1   6
HETATM    6  N   UNK N   1       3.060   1.037   0.238  0.00  0.00    -0.416 N 
HETATM    7  H   UNK N   1       3.521   0.139   0.086  0.00  0.00     0.150 HD
HETATM    8  H   UNK N   1       3.612   1.894   0.238  0.00  0.00     0.150 HD
ENDBRANCH   1   6
BRANCH   1   9
HETATM    9  C   UNK N   1       0.986  -0.219   0.112  0.00  0.00     0.165 C 
HETATM   10  O   UNK N   1      -0.221  -0.363   0.206  0.00  0.00    -0.648 OA
BRANCH   9  11
HETATM   11  O   UNK N   1       1.750  -1.266  -0.263  0.00  0.00    -0.775 OA
HETATM   12  H   UNK N   1       1.386  -2.089  -0.523  0.00  0.00     0.167 HD
ENDBRANCH   9  11
ENDBRANCH   1   9
TORSDOF 5
