REMARK  3 active torsions:
REMARK  status: ('A' for Active; 'I' for Inactive)
REMARK    1  A    between atoms: N_1  and  C_2 
REMARK    2  A    between atoms: C_2  and  N_4 
REMARK    3  A    between atoms: N_4  and  C_5 
ROOT
HETATM    1  N   UNK N   1       0.988   2.441   0.019  0.00  0.00    -0.334 N 
HETATM    2  H   UNK N   1       1.858   2.900   0.046  0.00  0.00     0.168 HD
ENDROOT
BRANCH   1   3
HETATM    3  C   UNK N   1      -0.161   3.302  -0.008  0.00  0.00     0.169 C 
HETATM    4  S   UNK N   1      -1.510   2.792  -0.000  0.00  0.00    -0.041 SA
BRANCH   3   5
HETATM    5  N   UNK N   1       0.032   4.696  -0.014  0.00  0.00    -0.376 N 
HETATM    6  H   UNK N   1       0.944   5.067  -0.018  0.00  0.00     0.158 HD
HETATM    7  H   UNK N   1      -0.745   5.301  -0.014  0.00  0.00     0.158 HD
ENDBRANCH   3   5
ENDBRANCH   1   3
BRANCH   1   8
HETATM    8  C   UNK N   1       1.049   1.017   0.012  0.00  0.00     0.034 A 
HETATM    9  C   UNK N   1       2.301   0.391   0.063  0.00  0.00     0.029 A 
HETATM   10  C   UNK N   1       2.399  -1.004   0.053  0.00  0.00     0.002 A 
HETATM   11  C   UNK N   1       1.243  -1.787  -0.010  0.00  0.00     0.000 A 
HETATM   12  C   UNK N   1      -0.010  -1.175  -0.061  0.00  0.00     0.002 A 
HETATM   13  C   UNK N   1      -0.105   0.216  -0.052  0.00  0.00     0.029 A 
ENDBRANCH   1   8
TORSDOF 3
