MODEL 1
REMARK VINA RESULT:     -13.3      0.000      0.000
REMARK  6 active torsions:
REMARK  status: ('A' for Active; 'I' for Inactive)
REMARK    1  A    between atoms: C_6  and  C_5 
REMARK    2  A    between atoms: P_28  and  O_23 
REMARK    3  A    between atoms: P_29  and  O_24 
REMARK    4  A    between atoms: P_30  and  O_25 
REMARK    5  A    between atoms: P_31  and  O_26 
REMARK    6  A    between atoms: P_32  and  O_27 
ROOT
HETATM    1  C   UNK N   1      20.550  18.786   1.337  0.00  0.00     0.182 A 
HETATM    2  C   UNK N   1      20.506  18.061   1.729  0.00  0.00     0.197 A 
HETATM    3  C   UNK N   1      20.700  19.477   1.762  0.00  0.00     0.197 A 
HETATM    4  C   UNK N   1      20.611  18.029   2.548  0.00  0.00     0.198 A 
HETATM    5  C   UNK N   1      20.805  19.444   2.579  0.00  0.00     0.198 A 
HETATM    6  C   UNK N   1      20.761  18.720   2.972  0.00  0.00     0.198 A 
HETATM    7  O   UNK N   1      20.445  18.818   0.520  0.00  0.00    -0.390 OA
HETATM    8  O   UNK N   1      20.145  17.435  -0.330  0.00  0.00    -0.307 OA
HETATM    9  O   UNK N   1      20.138  16.586   0.470  0.00  0.00    -0.307 OA
HETATM   10  O   UNK N   1      20.363  18.221   0.507  0.00  0.00    -0.632 OA
HETATM   11  O   UNK N   1      20.751  21.051   0.570  0.00  0.00    -0.307 OA
HETATM   12  O   UNK N   1      20.527  19.416   0.533  0.00  0.00    -0.307 OA
HETATM   13  O   UNK N   1      20.533  20.267  -0.266  0.00  0.00    -0.632 OA
HETATM   14  O   UNK N   1      20.382  17.051   1.817  0.00  0.00    -0.307 OA
HETATM   15  O   UNK N   1      20.453  16.177   3.216  0.00  0.00    -0.307 OA
HETATM   16  O   UNK N   1      20.267  15.922   2.092  0.00  0.00    -0.632 OA
HETATM   17  O   UNK N   1      21.044  21.583   2.218  0.00  0.00    -0.307 OA
HETATM   18  O   UNK N   1      21.147  21.240   3.329  0.00  0.00    -0.307 OA
HETATM   19  O   UNK N   1      20.852  20.479   1.894  0.00  0.00    -0.632 OA
HETATM   20  O   UNK N   1      20.778  17.240   4.576  0.00  0.00    -0.307 OA
HETATM   21  O   UNK N   1      20.675  17.583   3.465  0.00  0.00    -0.307 OA
HETATM   22  O   UNK N   1      20.970  18.344   4.900  0.00  0.00    -0.632 OA
HETATM   23  O   UNK N   1      20.356  17.371   1.305  0.00  0.00    -0.286 OA
HETATM   24  O   UNK N   1      20.744  20.200   1.369  0.00  0.00    -0.286 OA
HETATM   25  O   UNK N   1      20.567  17.304   2.941  0.00  0.00    -0.286 OA
HETATM   26  O   UNK N   1      20.955  20.136   3.004  0.00  0.00    -0.286 OA
HETATM   27  O   UNK N   1      20.867  18.687   3.790  0.00  0.00    -0.286 OA
HETATM   28  P   UNK N   1      20.250  17.403   0.488  0.00  0.00     0.391 P 
HETATM   29  P   UNK N   1      20.639  20.234   0.551  0.00  0.00     0.391 P 
HETATM   30  P   UNK N   1      20.417  16.614   2.517  0.00  0.00     0.391 P 
HETATM   31  P   UNK N   1      21.000  20.860   2.611  0.00  0.00     0.391 P 
HETATM   32  P   UNK N   1      20.822  17.963   4.183  0.00  0.00     0.391 P 
HETATM   33  H   UNK N   1      20.497  19.670   0.058  0.00  0.00     0.210 HD
HETATM   34  H   UNK N   1      20.197  18.288  -0.791  0.00  0.00     0.222 HD
HETATM   35  H   UNK N   1      19.965  16.138  -0.374  0.00  0.00     0.222 HD
HETATM   36  H   UNK N   1      20.924  21.498   1.414  0.00  0.00     0.222 HD
HETATM   37  H   UNK N   1      20.353  18.969  -0.310  0.00  0.00     0.222 HD
HETATM   38  H   UNK N   1      20.514  18.012   1.839  0.00  0.00     0.222 HD
HETATM   39  H   UNK N   1      20.321  15.215   3.194  0.00  0.00     0.222 HD
HETATM   40  H   UNK N   1      21.220  22.396   2.718  0.00  0.00     0.222 HD
HETATM   41  H   UNK N   1      21.189  20.726   4.151  0.00  0.00     0.222 HD
HETATM   42  H   UNK N   1      20.602  16.427   4.076  0.00  0.00     0.222 HD
HETATM   43  H   UNK N   1      20.633  18.097   2.643  0.00  0.00     0.222 HD
ENDROOT
TORSDOF 6
ENDMDL
MODEL 2
REMARK VINA RESULT:     -13.0      0.399      3.100
REMARK  6 active torsions:
REMARK  status: ('A' for Active; 'I' for Inactive)
REMARK    1  A    between atoms: C_6  and  C_5 
REMARK    2  A    between atoms: P_28  and  O_23 
REMARK    3  A    between atoms: P_29  and  O_24 
REMARK    4  A    between atoms: P_30  and  O_25 
REMARK    5  A    between atoms: P_31  and  O_26 
REMARK    6  A    between atoms: P_32  and  O_27 
ROOT
HETATM    1  C   UNK N   1      20.521  18.671   1.312  0.00  0.00     0.182 A 
HETATM    2  C   UNK N   1      20.685  19.331   1.778  0.00  0.00     0.197 A 
HETATM    3  C   UNK N   1      20.449  17.927   1.661  0.00  0.00     0.197 A 
HETATM    4  C   UNK N   1      20.775  19.247   2.595  0.00  0.00     0.198 A 
HETATM    5  C   UNK N   1      20.539  17.843   2.476  0.00  0.00     0.198 A 
HETATM    6  C   UNK N   1      20.703  18.503   2.943  0.00  0.00     0.198 A 
HETATM    7  O   UNK N   1      20.431  18.755   0.497  0.00  0.00    -0.390 OA
HETATM    8  O   UNK N   1      20.576  20.244  -0.201  0.00  0.00    -0.307 OA
HETATM    9  O   UNK N   1      20.803  20.970   0.684  0.00  0.00    -0.307 OA
HETATM   10  O   UNK N   1      20.530  19.348   0.547  0.00  0.00    -0.632 OA
HETATM   11  O   UNK N   1      20.058  16.539   0.310  0.00  0.00    -0.307 OA
HETATM   12  O   UNK N   1      20.331  18.162   0.447  0.00  0.00    -0.307 OA
HETATM   13  O   UNK N   1      20.104  17.434  -0.437  0.00  0.00    -0.632 OA
HETATM   14  O   UNK N   1      20.865  20.318   1.972  0.00  0.00    -0.307 OA
HETATM   15  O   UNK N   1      21.158  20.984   3.454  0.00  0.00    -0.307 OA
HETATM   16  O   UNK N   1      21.084  21.396   2.365  0.00  0.00    -0.632 OA
HETATM   17  O   UNK N   1      20.140  15.779   1.891  0.00  0.00    -0.307 OA
HETATM   18  O   UNK N   1      20.314  15.960   3.031  0.00  0.00    -0.307 OA
HETATM   19  O   UNK N   1      20.293  16.917   1.686  0.00  0.00    -0.632 OA
HETATM   20  O   UNK N   1      21.120  19.739   4.693  0.00  0.00    -0.307 OA
HETATM   21  O   UNK N   1      20.946  19.557   3.553  0.00  0.00    -0.307 OA
HETATM   22  O   UNK N   1      20.967  18.600   4.898  0.00  0.00    -0.632 OA
HETATM   23  O   UNK N   1      20.757  20.075   1.430  0.00  0.00    -0.286 OA
HETATM   24  O   UNK N   1      20.285  17.267   1.194  0.00  0.00    -0.286 OA
HETATM   25  O   UNK N   1      20.939  19.908   3.062  0.00  0.00    -0.286 OA
HETATM   26  O   UNK N   1      20.467  17.098   2.825  0.00  0.00    -0.286 OA
HETATM   27  O   UNK N   1      20.794  18.419   3.759  0.00  0.00    -0.286 OA
HETATM   28  P   UNK N   1      20.666  20.159   0.615  0.00  0.00     0.391 P 
HETATM   29  P   UNK N   1      20.194  17.350   0.378  0.00  0.00     0.391 P 
HETATM   30  P   UNK N   1      21.011  20.651   2.714  0.00  0.00     0.391 P 
HETATM   31  P   UNK N   1      20.303  16.438   2.358  0.00  0.00     0.391 P 
HETATM   32  P   UNK N   1      20.957  19.079   4.226  0.00  0.00     0.391 P 
HETATM   33  H   UNK N   1      20.238  17.978  -0.052  0.00  0.00     0.210 HD
HETATM   34  H   UNK N   1      20.384  19.467  -0.749  0.00  0.00     0.222 HD
HETATM   35  H   UNK N   1      20.790  21.533  -0.107  0.00  0.00     0.222 HD
HETATM   36  H   UNK N   1      20.071  15.977   1.101  0.00  0.00     0.222 HD
HETATM   37  H   UNK N   1      20.318  18.724  -0.344  0.00  0.00     0.222 HD
HETATM   38  H   UNK N   1      20.704  19.365   1.892  0.00  0.00     0.222 HD
HETATM   39  H   UNK N   1      21.318  21.938   3.534  0.00  0.00     0.222 HD
HETATM   40  H   UNK N   1      20.055  14.904   2.301  0.00  0.00     0.222 HD
HETATM   41  H   UNK N   1      20.487  16.351   3.902  0.00  0.00     0.222 HD
HETATM   42  H   UNK N   1      21.206  20.614   4.283  0.00  0.00     0.222 HD
HETATM   43  H   UNK N   1      20.774  19.166   2.683  0.00  0.00     0.222 HD
ENDROOT
TORSDOF 6
ENDMDL
MODEL 3
REMARK VINA RESULT:     -13.0      8.549     11.147
REMARK  6 active torsions:
REMARK  status: ('A' for Active; 'I' for Inactive)
REMARK    1  A    between atoms: C_6  and  C_5 
REMARK    2  A    between atoms: P_28  and  O_23 
REMARK    3  A    between atoms: P_29  and  O_24 
REMARK    4  A    between atoms: P_30  and  O_25 
REMARK    5  A    between atoms: P_31  and  O_26 
REMARK    6  A    between atoms: P_32  and  O_27 
ROOT
HETATM    1  C   UNK N   1      22.202  12.354  11.194  0.00  0.00     0.182 A 
HETATM    2  C   UNK N   1      21.735  12.661  10.588  0.00  0.00     0.197 A 
HETATM    3  C   UNK N   1      23.024  12.387  11.139  0.00  0.00     0.197 A 
HETATM    4  C   UNK N   1      22.091  13.002   9.926  0.00  0.00     0.198 A 
HETATM    5  C   UNK N   1      23.380  12.727  10.478  0.00  0.00     0.198 A 
HETATM    6  C   UNK N   1      22.914  13.035   9.870  0.00  0.00     0.198 A 
HETATM    7  O   UNK N   1      21.846  12.013  11.855  0.00  0.00    -0.390 OA
HETATM    8  O   UNK N   1      20.201  11.948  11.965  0.00  0.00    -0.307 OA
HETATM    9  O   UNK N   1      19.813  12.447  10.985  0.00  0.00    -0.307 OA
HETATM   10  O   UNK N   1      21.302  12.130  11.622  0.00  0.00    -0.632 OA
HETATM   11  O   UNK N   1      23.880  11.579  12.725  0.00  0.00    -0.307 OA
HETATM   12  O   UNK N   1      22.390  11.897  12.089  0.00  0.00    -0.307 OA
HETATM   13  O   UNK N   1      22.780  11.397  13.069  0.00  0.00    -0.632 OA
HETATM   14  O   UNK N   1      20.867  12.903  10.107  0.00  0.00    -0.307 OA
HETATM   15  O   UNK N   1      20.738  13.652   8.641  0.00  0.00    -0.307 OA
HETATM   16  O   UNK N   1      19.979  13.245   9.429  0.00  0.00    -0.632 OA
HETATM   17  O   UNK N   1      25.136  12.145  11.635  0.00  0.00    -0.307 OA
HETATM   18  O   UNK N   1      25.350  12.668  10.614  0.00  0.00    -0.307 OA
HETATM   19  O   UNK N   1      23.989  12.237  11.442  0.00  0.00    -0.632 OA
HETATM   20  O   UNK N   1      22.337  13.992   7.996  0.00  0.00    -0.307 OA
HETATM   21  O   UNK N   1      22.122  13.468   9.016  0.00  0.00    -0.307 OA
HETATM   22  O   UNK N   1      23.484  13.899   8.189  0.00  0.00    -0.632 OA
HETATM   23  O   UNK N   1      20.913  12.629  10.643  0.00  0.00    -0.286 OA
HETATM   24  O   UNK N   1      23.491  12.079  11.745  0.00  0.00    -0.286 OA
HETATM   25  O   UNK N   1      21.624  13.311   9.318  0.00  0.00    -0.286 OA
HETATM   26  O   UNK N   1      24.203  12.760  10.423  0.00  0.00    -0.286 OA
HETATM   27  O   UNK N   1      23.269  13.376   9.208  0.00  0.00    -0.286 OA
HETATM   28  P   UNK N   1      20.557  12.288  11.304  0.00  0.00     0.391 P 
HETATM   29  P   UNK N   1      23.135  11.738  12.407  0.00  0.00     0.391 P 
HETATM   30  P   UNK N   1      20.802  13.278   9.373  0.00  0.00     0.391 P 
HETATM   31  P   UNK N   1      24.669  12.452  11.029  0.00  0.00     0.391 P 
HETATM   32  P   UNK N   1      22.803  13.684   8.602  0.00  0.00     0.391 P 
HETATM   33  H   UNK N   1      22.395  11.651  12.569  0.00  0.00     0.210 HD
HETATM   34  H   UNK N   1      20.750  11.586  12.679  0.00  0.00     0.222 HD
HETATM   35  H   UNK N   1      19.012  12.194  11.472  0.00  0.00     0.222 HD
HETATM   36  H   UNK N   1      24.680  11.833  12.239  0.00  0.00     0.222 HD
HETATM   37  H   UNK N   1      21.591  11.643  12.575  0.00  0.00     0.222 HD
HETATM   38  H   UNK N   1      21.742  12.716  10.481  0.00  0.00     0.222 HD
HETATM   39  H   UNK N   1      19.862  13.839   8.267  0.00  0.00     0.222 HD
HETATM   40  H   UNK N   1      26.103  12.183  11.570  0.00  0.00     0.222 HD
HETATM   41  H   UNK N   1      25.275  13.109   9.753  0.00  0.00     0.222 HD
HETATM   42  H   UNK N   1      21.370  13.953   8.060  0.00  0.00     0.222 HD
HETATM   43  H   UNK N   1      22.197  13.028   9.877  0.00  0.00     0.222 HD
ENDROOT
TORSDOF 6
ENDMDL
MODEL 4
REMARK VINA RESULT:     -12.6      8.972     11.279
REMARK  6 active torsions:
REMARK  status: ('A' for Active; 'I' for Inactive)
REMARK    1  A    between atoms: C_6  and  C_5 
REMARK    2  A    between atoms: P_28  and  O_23 
REMARK    3  A    between atoms: P_29  and  O_24 
REMARK    4  A    between atoms: P_30  and  O_25 
REMARK    5  A    between atoms: P_31  and  O_26 
REMARK    6  A    between atoms: P_32  and  O_27 
ROOT
HETATM    1  C   UNK N   1      22.178  12.309  11.224  0.00  0.00     0.182 A 
HETATM    2  C   UNK N   1      23.002  12.313  11.191  0.00  0.00     0.197 A 
HETATM    3  C   UNK N   1      21.738  12.620  10.599  0.00  0.00     0.197 A 
HETATM    4  C   UNK N   1      23.386  12.628  10.532  0.00  0.00     0.198 A 
HETATM    5  C   UNK N   1      22.122  12.935   9.942  0.00  0.00     0.198 A 
HETATM    6  C   UNK N   1      22.946  12.939   9.907  0.00  0.00     0.198 A 
HETATM    7  O   UNK N   1      21.794  11.993  11.883  0.00  0.00    -0.390 OA
HETATM    8  O   UNK N   1      22.674  11.371  13.132  0.00  0.00    -0.307 OA
HETATM    9  O   UNK N   1      23.787  11.509  12.814  0.00  0.00    -0.307 OA
HETATM   10  O   UNK N   1      22.328  11.864  12.132  0.00  0.00    -0.632 OA
HETATM   11  O   UNK N   1      19.799  12.478  10.950  0.00  0.00    -0.307 OA
HETATM   12  O   UNK N   1      21.259  12.123  11.633  0.00  0.00    -0.307 OA
HETATM   13  O   UNK N   1      20.145  11.986  11.949  0.00  0.00    -0.632 OA
HETATM   14  O   UNK N   1      23.952  12.137  11.522  0.00  0.00    -0.307 OA
HETATM   15  O   UNK N   1      25.348  12.506  10.723  0.00  0.00    -0.307 OA
HETATM   16  O   UNK N   1      25.091  12.010  11.748  0.00  0.00    -0.632 OA
HETATM   17  O   UNK N   1      20.034  13.238   9.384  0.00  0.00    -0.307 OA
HETATM   18  O   UNK N   1      20.826  13.605   8.609  0.00  0.00    -0.307 OA
HETATM   19  O   UNK N   1      20.890  12.881  10.091  0.00  0.00    -0.632 OA
HETATM   20  O   UNK N   1      24.979  13.263   9.181  0.00  0.00    -0.307 OA
HETATM   21  O   UNK N   1      24.187  12.897   9.957  0.00  0.00    -0.307 OA
HETATM   22  O   UNK N   1      24.122  13.621   8.474  0.00  0.00    -0.632 OA
HETATM   23  O   UNK N   1      23.441  12.002  11.815  0.00  0.00    -0.286 OA
HETATM   24  O   UNK N   1      20.914  12.616  10.633  0.00  0.00    -0.286 OA
HETATM   25  O   UNK N   1      24.211  12.632  10.498  0.00  0.00    -0.286 OA
HETATM   26  O   UNK N   1      21.681  13.247   9.316  0.00  0.00    -0.286 OA
HETATM   27  O   UNK N   1      23.331  13.255   9.249  0.00  0.00    -0.286 OA
HETATM   28  P   UNK N   1      23.057  11.686  12.473  0.00  0.00     0.391 P 
HETATM   29  P   UNK N   1      20.529  12.301  11.291  0.00  0.00     0.391 P 
HETATM   30  P   UNK N   1      24.651  12.321  11.122  0.00  0.00     0.391 P 
HETATM   31  P   UNK N   1      20.858  13.242   9.350  0.00  0.00     0.391 P 
HETATM   32  P   UNK N   1      24.155  13.259   9.215  0.00  0.00     0.391 P 
HETATM   33  H   UNK N   1      20.824  11.989  11.921  0.00  0.00     0.210 HD
HETATM   34  H   UNK N   1      21.704  11.366  13.171  0.00  0.00     0.222 HD
HETATM   35  H   UNK N   1      23.826  11.084  13.686  0.00  0.00     0.222 HD
HETATM   36  H   UNK N   1      19.761  12.904  10.079  0.00  0.00     0.222 HD
HETATM   37  H   UNK N   1      21.297  11.698  12.504  0.00  0.00     0.222 HD
HETATM   38  H   UNK N   1      23.094  12.345  11.121  0.00  0.00     0.222 HD
HETATM   39  H   UNK N   1      26.207  12.297  11.125  0.00  0.00     0.222 HD
HETATM   40  H   UNK N   1      19.517  13.604   8.649  0.00  0.00     0.222 HD
HETATM   41  H   UNK N   1      21.646  13.821   8.139  0.00  0.00     0.222 HD
HETATM   42  H   UNK N   1      25.496  12.897   9.916  0.00  0.00     0.222 HD
HETATM   43  H   UNK N   1      23.366  12.680  10.426  0.00  0.00     0.222 HD
ENDROOT
TORSDOF 6
ENDMDL
MODEL 5
REMARK VINA RESULT:     -12.5      0.303      2.708
REMARK  6 active torsions:
REMARK  status: ('A' for Active; 'I' for Inactive)
REMARK    1  A    between atoms: C_6  and  C_5 
REMARK    2  A    between atoms: P_28  and  O_23 
REMARK    3  A    between atoms: P_29  and  O_24 
REMARK    4  A    between atoms: P_30  and  O_25 
REMARK    5  A    between atoms: P_31  and  O_26 
REMARK    6  A    between atoms: P_32  and  O_27 
ROOT
HETATM    1  C   UNK N   1      20.812  19.183   2.685  0.00  0.00     0.182 A 
HETATM    2  C   UNK N   1      20.708  18.365   2.680  0.00  0.00     0.197 A 
HETATM    3  C   UNK N   1      20.778  19.609   1.980  0.00  0.00     0.197 A 
HETATM    4  C   UNK N   1      20.570  17.972   1.967  0.00  0.00     0.198 A 
HETATM    5  C   UNK N   1      20.640  19.216   1.268  0.00  0.00     0.198 A 
HETATM    6  C   UNK N   1      20.535  18.398   1.261  0.00  0.00     0.198 A 
HETATM    7  O   UNK N   1      20.951  19.575   3.398  0.00  0.00    -0.390 OA
HETATM    8  O   UNK N   1      21.020  18.724   4.810  0.00  0.00    -0.307 OA
HETATM    9  O   UNK N   1      20.841  17.614   4.500  0.00  0.00    -0.307 OA
HETATM   10  O   UNK N   1      20.921  19.050   3.693  0.00  0.00    -0.632 OA
HETATM   11  O   UNK N   1      21.061  21.538   2.293  0.00  0.00    -0.307 OA
HETATM   12  O   UNK N   1      20.981  20.101   3.102  0.00  0.00    -0.307 OA
HETATM   13  O   UNK N   1      21.160  21.213   3.409  0.00  0.00    -0.632 OA
HETATM   14  O   UNK N   1      20.640  17.428   3.081  0.00  0.00    -0.307 OA
HETATM   15  O   UNK N   1      20.359  16.029   2.251  0.00  0.00    -0.307 OA
HETATM   16  O   UNK N   1      20.534  16.302   3.373  0.00  0.00    -0.632 OA
HETATM   17  O   UNK N   1      20.814  21.278   0.574  0.00  0.00    -0.307 OA
HETATM   18  O   UNK N   1      20.610  20.479  -0.252  0.00  0.00    -0.307 OA
HETATM   19  O   UNK N   1      20.809  20.440   1.387  0.00  0.00    -0.632 OA
HETATM   20  O   UNK N   1      20.188  16.369   0.536  0.00  0.00    -0.307 OA
HETATM   21  O   UNK N   1      20.392  17.168   1.362  0.00  0.00    -0.307 OA
HETATM   22  O   UNK N   1      20.193  17.206  -0.276  0.00  0.00    -0.632 OA
HETATM   23  O   UNK N   1      20.743  17.940   3.385  0.00  0.00    -0.286 OA
HETATM   24  O   UNK N   1      20.882  20.427   1.986  0.00  0.00    -0.286 OA
HETATM   25  O   UNK N   1      20.465  17.153   1.961  0.00  0.00    -0.286 OA
HETATM   26  O   UNK N   1      20.605  19.642   0.561  0.00  0.00    -0.286 OA
HETATM   27  O   UNK N   1      20.397  18.004   0.549  0.00  0.00    -0.286 OA
HETATM   28  P   UNK N   1      20.881  18.332   4.097  0.00  0.00     0.391 P 
HETATM   29  P   UNK N   1      21.021  20.820   2.698  0.00  0.00     0.391 P 
HETATM   30  P   UNK N   1      20.500  16.728   2.666  0.00  0.00     0.391 P 
HETATM   31  P   UNK N   1      20.709  20.460   0.568  0.00  0.00     0.391 P 
HETATM   32  P   UNK N   1      20.292  17.187   0.543  0.00  0.00     0.391 P 
HETATM   33  H   UNK N   1      21.074  20.538   3.404  0.00  0.00     0.210 HD
HETATM   34  H   UNK N   1      21.142  19.687   4.816  0.00  0.00     0.222 HD
HETATM   35  H   UNK N   1      20.958  17.591   5.464  0.00  0.00     0.222 HD
HETATM   36  H   UNK N   1      20.944  21.560   1.331  0.00  0.00     0.222 HD
HETATM   37  H   UNK N   1      21.098  20.079   4.065  0.00  0.00     0.222 HD
HETATM   38  H   UNK N   1      20.687  18.272   2.606  0.00  0.00     0.222 HD
HETATM   39  H   UNK N   1      20.312  15.184   2.727  0.00  0.00     0.222 HD
HETATM   40  H   UNK N   1      20.773  21.778  -0.256  0.00  0.00     0.222 HD
HETATM   41  H   UNK N   1      20.445  19.657  -0.739  0.00  0.00     0.222 HD
HETATM   42  H   UNK N   1      20.229  15.868   1.366  0.00  0.00     0.222 HD
HETATM   43  H   UNK N   1      20.557  17.990   1.850  0.00  0.00     0.222 HD
ENDROOT
TORSDOF 6
ENDMDL
MODEL 6
REMARK VINA RESULT:     -12.4     14.225     15.527
REMARK  6 active torsions:
REMARK  status: ('A' for Active; 'I' for Inactive)
REMARK    1  A    between atoms: C_6  and  C_5 
REMARK    2  A    between atoms: P_28  and  O_23 
REMARK    3  A    between atoms: P_29  and  O_24 
REMARK    4  A    between atoms: P_30  and  O_25 
REMARK    5  A    between atoms: P_31  and  O_26 
REMARK    6  A    between atoms: P_32  and  O_27 
ROOT
HETATM    1  C   UNK N   1      34.453  16.945   9.199  0.00  0.00     0.182 A 
HETATM    2  C   UNK N   1      34.369  16.266   9.661  0.00  0.00     0.197 A 
HETATM    3  C   UNK N   1      33.996  17.040   8.519  0.00  0.00     0.197 A 
HETATM    4  C   UNK N   1      33.828  15.683   9.442  0.00  0.00     0.198 A 
HETATM    5  C   UNK N   1      33.455  16.457   8.301  0.00  0.00     0.198 A 
HETATM    6  C   UNK N   1      33.371  15.778   8.762  0.00  0.00     0.198 A 
HETATM    7  O   UNK N   1      34.994  17.527   9.418  0.00  0.00    -0.390 OA
HETATM    8  O   UNK N   1      35.908  17.336  10.778  0.00  0.00    -0.307 OA
HETATM    9  O   UNK N   1      35.582  16.306  11.218  0.00  0.00    -0.307 OA
HETATM   10  O   UNK N   1      35.151  17.200   9.900  0.00  0.00    -0.632 OA
HETATM   11  O   UNK N   1      34.405  18.748   7.616  0.00  0.00    -0.307 OA
HETATM   12  O   UNK N   1      34.837  17.854   8.935  0.00  0.00    -0.307 OA
HETATM   13  O   UNK N   1      35.162  18.885   8.494  0.00  0.00    -0.632 OA
HETATM   14  O   UNK N   1      34.562  15.638  10.443  0.00  0.00    -0.307 OA
HETATM   15  O   UNK N   1      33.839  14.180  10.724  0.00  0.00    -0.307 OA
HETATM   16  O   UNK N   1      34.658  14.813  11.264  0.00  0.00    -0.632 OA
HETATM   17  O   UNK N   1      33.166  17.909   6.697  0.00  0.00    -0.307 OA
HETATM   18  O   UNK N   1      32.505  16.949   6.639  0.00  0.00    -0.307 OA
HETATM   19  O   UNK N   1      33.658  17.512   7.678  0.00  0.00    -0.632 OA
HETATM   20  O   UNK N   1      32.661  13.839   9.466  0.00  0.00    -0.307 OA
HETATM   21  O   UNK N   1      33.322  14.799   9.524  0.00  0.00    -0.307 OA
HETATM   22  O   UNK N   1      32.169  14.236   8.486  0.00  0.00    -0.632 OA
HETATM   23  O   UNK N   1      34.826  16.171  10.340  0.00  0.00    -0.286 OA
HETATM   24  O   UNK N   1      34.080  17.718   8.058  0.00  0.00    -0.286 OA
HETATM   25  O   UNK N   1      33.744  15.004   9.904  0.00  0.00    -0.286 OA
HETATM   26  O   UNK N   1      32.998  16.553   7.620  0.00  0.00    -0.286 OA
HETATM   27  O   UNK N   1      32.829  15.195   8.544  0.00  0.00    -0.286 OA
HETATM   28  P   UNK N   1      35.367  16.754  10.559  0.00  0.00     0.391 P 
HETATM   29  P   UNK N   1      34.621  18.302   8.276  0.00  0.00     0.391 P 
HETATM   30  P   UNK N   1      34.200  14.908  10.583  0.00  0.00     0.391 P 
HETATM   31  P   UNK N   1      33.082  17.231   7.159  0.00  0.00     0.391 P 
HETATM   32  P   UNK N   1      32.745  14.517   9.005  0.00  0.00     0.391 P 
HETATM   33  H   UNK N   1      35.093  18.325   8.874  0.00  0.00     0.210 HD
HETATM   34  H   UNK N   1      36.007  18.134  10.235  0.00  0.00     0.222 HD
HETATM   35  H   UNK N   1      36.260  16.637  11.829  0.00  0.00     0.222 HD
HETATM   36  H   UNK N   1      33.728  18.418   7.006  0.00  0.00     0.222 HD
HETATM   37  H   UNK N   1      35.514  18.185   9.545  0.00  0.00     0.222 HD
HETATM   38  H   UNK N   1      34.308  16.163   9.668  0.00  0.00     0.222 HD
HETATM   39  H   UNK N   1      34.093  13.654  11.499  0.00  0.00     0.222 HD
HETATM   40  H   UNK N   1      32.628  18.022   5.898  0.00  0.00     0.222 HD
HETATM   41  H   UNK N   1      32.080  16.093   6.804  0.00  0.00     0.222 HD
HETATM   42  H   UNK N   1      33.199  13.726  10.266  0.00  0.00     0.222 HD
HETATM   43  H   UNK N   1      33.747  15.655   9.359  0.00  0.00     0.222 HD
ENDROOT
TORSDOF 6
ENDMDL
MODEL 7
REMARK VINA RESULT:     -12.2      1.645      3.518
REMARK  6 active torsions:
REMARK  status: ('A' for Active; 'I' for Inactive)
REMARK    1  A    between atoms: C_6  and  C_5 
REMARK    2  A    between atoms: P_28  and  O_23 
REMARK    3  A    between atoms: P_29  and  O_24 
REMARK    4  A    between atoms: P_30  and  O_25 
REMARK    5  A    between atoms: P_31  and  O_26 
REMARK    6  A    between atoms: P_32  and  O_27 
ROOT
HETATM    1  C   UNK N   1      20.787  19.395   2.881  0.00  0.00     0.182 A 
HETATM    2  C   UNK N   1      21.539  19.719   2.985  0.00  0.00     0.197 A 
HETATM    3  C   UNK N   1      20.616  18.645   3.178  0.00  0.00     0.197 A 
HETATM    4  C   UNK N   1      22.119  19.291   3.387  0.00  0.00     0.198 A 
HETATM    5  C   UNK N   1      21.196  18.218   3.579  0.00  0.00     0.198 A 
HETATM    6  C   UNK N   1      21.948  18.541   3.683  0.00  0.00     0.198 A 
HETATM    7  O   UNK N   1      20.207  19.823   2.479  0.00  0.00    -0.390 OA
HETATM    8  O   UNK N   1      20.550  21.324   1.885  0.00  0.00    -0.307 OA
HETATM    9  O   UNK N   1      21.664  21.515   2.176  0.00  0.00    -0.307 OA
HETATM   10  O   UNK N   1      20.597  20.276   2.398  0.00  0.00    -0.632 OA
HETATM   11  O   UNK N   1      18.750  18.129   2.783  0.00  0.00    -0.307 OA
HETATM   12  O   UNK N   1      19.817  19.369   2.561  0.00  0.00    -0.307 OA
HETATM   13  O   UNK N   1      18.703  19.176   2.271  0.00  0.00    -0.632 OA
HETATM   14  O   UNK N   1      22.273  20.424   2.902  0.00  0.00    -0.307 OA
HETATM   15  O   UNK N   1      23.813  20.303   3.486  0.00  0.00    -0.307 OA
HETATM   16  O   UNK N   1      23.215  21.115   2.897  0.00  0.00    -0.632 OA
HETATM   17  O   UNK N   1      19.521  16.822   3.667  0.00  0.00    -0.307 OA
HETATM   18  O   UNK N   1      20.509  16.464   4.175  0.00  0.00    -0.307 OA
HETATM   19  O   UNK N   1      20.037  17.825   3.368  0.00  0.00    -0.632 OA
HETATM   20  O   UNK N   1      24.032  18.759   4.294  0.00  0.00    -0.307 OA
HETATM   21  O   UNK N   1      23.044  19.117   3.786  0.00  0.00    -0.307 OA
HETATM   22  O   UNK N   1      23.516  17.756   4.592  0.00  0.00    -0.632 OA
HETATM   23  O   UNK N   1      21.710  20.468   2.688  0.00  0.00    -0.286 OA
HETATM   24  O   UNK N   1      19.864  18.322   3.073  0.00  0.00    -0.286 OA
HETATM   25  O   UNK N   1      22.872  19.614   3.491  0.00  0.00    -0.286 OA
HETATM   26  O   UNK N   1      21.024  17.467   3.876  0.00  0.00    -0.286 OA
HETATM   27  O   UNK N   1      22.529  18.114   4.085  0.00  0.00    -0.286 OA
HETATM   28  P   UNK N   1      21.130  20.896   2.287  0.00  0.00     0.391 P 
HETATM   29  P   UNK N   1      19.283  18.749   2.672  0.00  0.00     0.391 P 
HETATM   30  P   UNK N   1      23.043  20.364   3.194  0.00  0.00     0.391 P 
HETATM   31  P   UNK N   1      20.273  17.144   3.772  0.00  0.00     0.391 P 
HETATM   32  P   UNK N   1      23.280  18.436   4.189  0.00  0.00     0.391 P 
HETATM   33  H   UNK N   1      19.323  19.442   2.357  0.00  0.00     0.210 HD
HETATM   34  H   UNK N   1      19.666  20.943   1.763  0.00  0.00     0.222 HD
HETATM   35  H   UNK N   1      21.386  22.315   1.702  0.00  0.00     0.222 HD
HETATM   36  H   UNK N   1      19.028  17.330   3.258  0.00  0.00     0.222 HD
HETATM   37  H   UNK N   1      19.539  20.169   2.087  0.00  0.00     0.222 HD
HETATM   38  H   UNK N   1      21.646  19.695   3.033  0.00  0.00     0.222 HD
HETATM   39  H   UNK N   1      24.440  21.033   3.355  0.00  0.00     0.222 HD
HETATM   40  H   UNK N   1      19.320  15.939   4.016  0.00  0.00     0.222 HD
HETATM   41  H   UNK N   1      21.413  16.393   4.519  0.00  0.00     0.222 HD
HETATM   42  H   UNK N   1      24.233  19.641   3.944  0.00  0.00     0.222 HD
HETATM   43  H   UNK N   1      22.140  19.187   3.442  0.00  0.00     0.222 HD
ENDROOT
TORSDOF 6
ENDMDL
MODEL 8
REMARK VINA RESULT:     -12.1      1.981      3.259
REMARK  6 active torsions:
REMARK  status: ('A' for Active; 'I' for Inactive)
REMARK    1  A    between atoms: C_6  and  C_5 
REMARK    2  A    between atoms: P_28  and  O_23 
REMARK    3  A    between atoms: P_29  and  O_24 
REMARK    4  A    between atoms: P_30  and  O_25 
REMARK    5  A    between atoms: P_31  and  O_26 
REMARK    6  A    between atoms: P_32  and  O_27 
ROOT
HETATM    1  C   UNK N   1      22.183  19.940   2.812  0.00  0.00     0.182 A 
HETATM    2  C   UNK N   1      22.722  19.632   3.354  0.00  0.00     0.197 A 
HETATM    3  C   UNK N   1      21.412  19.648   2.784  0.00  0.00     0.197 A 
HETATM    4  C   UNK N   1      22.490  19.030   3.869  0.00  0.00     0.198 A 
HETATM    5  C   UNK N   1      21.180  19.047   3.299  0.00  0.00     0.198 A 
HETATM    6  C   UNK N   1      21.719  18.738   3.842  0.00  0.00     0.198 A 
HETATM    7  O   UNK N   1      22.415  20.542   2.297  0.00  0.00    -0.390 OA
HETATM    8  O   UNK N   1      23.957  21.126   2.352  0.00  0.00    -0.307 OA
HETATM    9  O   UNK N   1      24.481  20.515   3.196  0.00  0.00    -0.307 OA
HETATM   10  O   UNK N   1      22.968  20.534   2.538  0.00  0.00    -0.632 OA
HETATM   11  O   UNK N   1      20.347  20.568   1.398  0.00  0.00    -0.307 OA
HETATM   12  O   UNK N   1      21.861  20.549   2.056  0.00  0.00    -0.307 OA
HETATM   13  O   UNK N   1      21.336  21.160   1.212  0.00  0.00    -0.632 OA
HETATM   14  O   UNK N   1      23.622  19.539   3.828  0.00  0.00    -0.307 OA
HETATM   15  O   UNK N   1      23.978  18.487   5.050  0.00  0.00    -0.307 OA
HETATM   16  O   UNK N   1      24.572  19.305   4.467  0.00  0.00    -0.632 OA
HETATM   17  O   UNK N   1      19.331  19.373   2.187  0.00  0.00    -0.307 OA
HETATM   18  O   UNK N   1      19.290  18.548   3.011  0.00  0.00    -0.307 OA
HETATM   19  O   UNK N   1      20.449  19.580   2.448  0.00  0.00    -0.632 OA
HETATM   20  O   UNK N   1      22.565  17.518   5.441  0.00  0.00    -0.307 OA
HETATM   21  O   UNK N   1      22.606  18.343   4.617  0.00  0.00    -0.307 OA
HETATM   22  O   UNK N   1      21.447  17.311   5.180  0.00  0.00    -0.632 OA
HETATM   23  O   UNK N   1      23.493  19.924   3.381  0.00  0.00    -0.286 OA
HETATM   24  O   UNK N   1      20.873  19.957   2.242  0.00  0.00    -0.286 OA
HETATM   25  O   UNK N   1      23.030  18.721   4.412  0.00  0.00    -0.286 OA
HETATM   26  O   UNK N   1      20.408  18.755   3.271  0.00  0.00    -0.286 OA
HETATM   27  O   UNK N   1      21.488  18.136   4.357  0.00  0.00    -0.286 OA
HETATM   28  P   UNK N   1      23.725  20.525   2.866  0.00  0.00     0.391 P 
HETATM   29  P   UNK N   1      21.104  20.559   1.727  0.00  0.00     0.391 P 
HETATM   30  P   UNK N   1      23.800  19.012   4.439  0.00  0.00     0.391 P 
HETATM   31  P   UNK N   1      19.870  19.064   2.729  0.00  0.00     0.391 P 
HETATM   32  P   UNK N   1      22.027  17.827   4.899  0.00  0.00     0.391 P 
HETATM   33  H   UNK N   1      21.780  20.905   1.659  0.00  0.00     0.210 HD
HETATM   34  H   UNK N   1      23.322  21.489   1.714  0.00  0.00     0.222 HD
HETATM   35  H   UNK N   1      25.163  21.121   2.865  0.00  0.00     0.222 HD
HETATM   36  H   UNK N   1      19.667  19.962   1.729  0.00  0.00     0.222 HD
HETATM   37  H   UNK N   1      22.542  21.156   1.725  0.00  0.00     0.222 HD
HETATM   38  H   UNK N   1      22.733  19.550   3.441  0.00  0.00     0.222 HD
HETATM   39  H   UNK N   1      24.868  18.475   5.437  0.00  0.00     0.222 HD
HETATM   40  H   UNK N   1      18.424  19.030   2.155  0.00  0.00     0.222 HD
HETATM   41  H   UNK N   1      19.499  17.929   3.729  0.00  0.00     0.222 HD
HETATM   42  H   UNK N   1      23.472  17.862   5.474  0.00  0.00     0.222 HD
HETATM   43  H   UNK N   1      22.397  18.962   3.900  0.00  0.00     0.222 HD
ENDROOT
TORSDOF 6
ENDMDL
MODEL 9
REMARK VINA RESULT:     -12.1     14.099     15.550
REMARK  6 active torsions:
REMARK  status: ('A' for Active; 'I' for Inactive)
REMARK    1  A    between atoms: C_6  and  C_5 
REMARK    2  A    between atoms: P_28  and  O_23 
REMARK    3  A    between atoms: P_29  and  O_24 
REMARK    4  A    between atoms: P_30  and  O_25 
REMARK    5  A    between atoms: P_31  and  O_26 
REMARK    6  A    between atoms: P_32  and  O_27 
ROOT
HETATM    1  C   UNK N   1      34.433  16.944   9.222  0.00  0.00     0.182 A 
HETATM    2  C   UNK N   1      33.971  17.017   8.543  0.00  0.00     0.197 A 
HETATM    3  C   UNK N   1      34.354  16.281   9.707  0.00  0.00     0.197 A 
HETATM    4  C   UNK N   1      33.428  16.426   8.348  0.00  0.00     0.198 A 
HETATM    5  C   UNK N   1      33.812  15.691   9.512  0.00  0.00     0.198 A 
HETATM    6  C   UNK N   1      33.349  15.763   8.833  0.00  0.00     0.198 A 
HETATM    7  O   UNK N   1      34.975  17.535   9.416  0.00  0.00    -0.390 OA
HETATM    8  O   UNK N   1      35.134  18.861   8.448  0.00  0.00    -0.307 OA
HETATM    9  O   UNK N   1      34.370  18.695   7.582  0.00  0.00    -0.307 OA
HETATM   10  O   UNK N   1      34.813  17.845   8.925  0.00  0.00    -0.632 OA
HETATM   11  O   UNK N   1      35.579  16.374  11.252  0.00  0.00    -0.307 OA
HETATM   12  O   UNK N   1      35.137  17.224   9.908  0.00  0.00    -0.307 OA
HETATM   13  O   UNK N   1      35.900  17.389  10.776  0.00  0.00    -0.632 OA
HETATM   14  O   UNK N   1      33.626  17.461   7.690  0.00  0.00    -0.307 OA
HETATM   15  O   UNK N   1      32.465  16.862   6.680  0.00  0.00    -0.307 OA
HETATM   16  O   UNK N   1      33.124  17.825   6.700  0.00  0.00    -0.632 OA
HETATM   17  O   UNK N   1      34.657  14.883  11.354  0.00  0.00    -0.307 OA
HETATM   18  O   UNK N   1      33.836  14.230  10.843  0.00  0.00    -0.307 OA
HETATM   19  O   UNK N   1      34.554  15.679  10.508  0.00  0.00    -0.632 OA
HETATM   20  O   UNK N   1      31.882  15.317   7.280  0.00  0.00    -0.307 OA
HETATM   21  O   UNK N   1      32.703  15.969   7.791  0.00  0.00    -0.307 OA
HETATM   22  O   UNK N   1      31.986  14.521   8.126  0.00  0.00    -0.632 OA
HETATM   23  O   UNK N   1      34.050  17.680   8.059  0.00  0.00    -0.286 OA
HETATM   24  O   UNK N   1      34.816  16.209  10.385  0.00  0.00    -0.286 OA
HETATM   25  O   UNK N   1      32.965  16.499   7.668  0.00  0.00    -0.286 OA
HETATM   26  O   UNK N   1      33.733  15.027   9.997  0.00  0.00    -0.286 OA
HETATM   27  O   UNK N   1      32.807  15.173   8.637  0.00  0.00    -0.286 OA
HETATM   28  P   UNK N   1      34.592  18.270   8.254  0.00  0.00     0.391 P 
HETATM   29  P   UNK N   1      35.359  16.799  10.581  0.00  0.00     0.391 P 
HETATM   30  P   UNK N   1      33.045  17.161   7.185  0.00  0.00     0.391 P 
HETATM   31  P   UNK N   1      34.195  14.955  10.675  0.00  0.00     0.391 P 
HETATM   32  P   UNK N   1      32.344  15.245   7.959  0.00  0.00     0.391 P 
HETATM   33  H   UNK N   1      35.519  17.449  10.216  0.00  0.00     0.210 HD
HETATM   34  H   UNK N   1      35.678  18.775   9.247  0.00  0.00     0.222 HD
HETATM   35  H   UNK N   1      34.792  19.546   7.385  0.00  0.00     0.222 HD
HETATM   36  H   UNK N   1      35.158  15.523  11.449  0.00  0.00     0.222 HD
HETATM   37  H   UNK N   1      35.559  18.075   9.712  0.00  0.00     0.222 HD
HETATM   38  H   UNK N   1      33.886  16.961   8.480  0.00  0.00     0.222 HD
HETATM   39  H   UNK N   1      32.205  17.362   5.890  0.00  0.00     0.222 HD
HETATM   40  H   UNK N   1      34.564  14.103  11.923  0.00  0.00     0.222 HD
HETATM   41  H   UNK N   1      33.154  13.879  10.249  0.00  0.00     0.222 HD
HETATM   42  H   UNK N   1      31.975  16.097   6.710  0.00  0.00     0.222 HD
HETATM   43  H   UNK N   1      33.385  16.321   8.385  0.00  0.00     0.222 HD
ENDROOT
TORSDOF 6
ENDMDL
