MODEL 1
REMARK VINA RESULT:      -7.6      0.000      0.000
REMARK  19 active torsions:
REMARK  status: ('A' for Active; 'I' for Inactive)
REMARK    1  A    between atoms: C_7  and  C_4 
REMARK    2  A    between atoms: O_30  and  C_4 
REMARK    3  A    between atoms: C_8  and  C_5 
REMARK    4  A    between atoms: O_31  and  C_5 
REMARK    5  A    between atoms: C_14  and  C_6 
REMARK    6  A    between atoms: O_20  and  C_6 
REMARK    7  A    between atoms: C_14  and  C_8 
REMARK    8  A    between atoms: C_8  and  O_21 
REMARK    9  A    between atoms: C_10  and  O_22 
REMARK   10  A    between atoms: C_11  and  O_23 
REMARK   11  A    between atoms: C_12  and  N_19 
REMARK   12  A    between atoms: O_24  and  C_13 
REMARK   13  A    between atoms: C_14  and  O_25 
REMARK   14  A    between atoms: P_34  and  O_26 
REMARK   15  A    between atoms: P_35  and  O_28 
REMARK   16  A    between atoms: P_34  and  O_30 
REMARK   17  A    between atoms: P_35  and  O_31 
REMARK   18  A    between atoms: P_34  and  O_33 
REMARK   19  A    between atoms: P_35  and  O_33 
ROOT
HETATM    1  C   UNK N   1      34.773  14.058  11.906  0.00  0.00     0.215 C 
ENDROOT
BRANCH   1   2
HETATM    2  C   UNK N   1      35.576  13.640  13.118  0.00  0.00     0.180 C 
HETATM    3  C   UNK N   1      36.667  12.643  12.792  0.00  0.00     0.182 C 
HETATM    4  C   UNK N   1      36.998  12.242  14.195  0.00  0.00     0.198 C 
HETATM    5  C   UNK N   1      35.575  12.068  14.755  0.00  0.00     0.262 C 
HETATM    6  O   UNK N   1      34.742  12.982  14.043  0.00  0.00    -0.353 OA
BRANCH   3   7
HETATM    7  O   UNK N   1      37.752  13.206  12.117  0.00  0.00    -0.390 OA
HETATM    8  H   UNK N   1      38.165  13.101  11.245  0.00  0.00     0.210 HD
ENDBRANCH   3   7
BRANCH   4   9
HETATM    9  O   UNK N   1      37.762  11.072  14.231  0.00  0.00    -0.388 OA
HETATM   10  H   UNK N   1      37.705  10.379  14.908  0.00  0.00     0.210 HD
ENDBRANCH   4   9
BRANCH   5  11
HETATM   11  N   UNK N   1      35.470  12.312  16.213  0.00  0.00    -0.293 N 
HETATM   12  C   UNK N   1      35.398  13.606  16.650  0.00  0.00     0.101 A 
HETATM   13  C   UNK N   1      35.259  13.903  17.999  0.00  0.00     0.065 A 
HETATM   14  C   UNK N   1      35.205  12.855  18.903  0.00  0.00     0.102 A 
HETATM   15  N   UNK N   1      35.075  13.093  20.152  0.00  0.00    -0.385 N 
HETATM   16  N   UNK N   1      35.284  11.575  18.458  0.00  0.00    -0.308 N 
HETATM   17  H   UNK N   1      35.292  12.418  20.835  0.00  0.00     0.157 HD
ATOM     18  HN  UNK N   1      34.738  14.008  20.449  1.00  0.00     0.157 HD
HETATM   19  C   UNK N   1      35.410  11.293  17.133  0.00  0.00     0.227 A 
ATOM     20  HN  UNK N   1      35.250  10.809  19.131  1.00  0.00     0.171 HD
BRANCH  19  21
HETATM   21  O   UNK N   1      35.474  10.009  16.745  0.00  0.00    -0.332 OA
HETATM   22  H   UNK N   1      35.766   9.753  15.892  0.00  0.00     0.221 HD
ENDBRANCH  19  21
ENDBRANCH   5  11
ENDBRANCH   1   2
BRANCH   1  23
HETATM   23  O   UNK N   1      34.673  15.448  11.833  0.00  0.00    -0.294 OA
BRANCH  23  24
HETATM   24  P   UNK N   1      35.589  15.866  10.417  0.00  0.00     0.401 P 
HETATM   25  O   UNK N   1      35.217  14.851   9.304  0.00  0.00    -0.631 OA
BRANCH  24  26
HETATM   26  O   UNK N   1      37.293  15.670  10.696  0.00  0.00    -0.307 OA
HETATM   27  H   UNK N   1      37.842  16.343  11.128  0.00  0.00     0.222 HD
ENDBRANCH  24  26
BRANCH  24  28
HETATM   28  O   UNK N   1      35.238  17.462   9.804  0.00  0.00    -0.195 OA
BRANCH  28  29
HETATM   29  P   UNK N   1      34.226  17.292   8.389  0.00  0.00     0.401 P 
HETATM   30  O   UNK N   1      33.994  18.714   7.814  0.00  0.00    -0.631 OA
BRANCH  29  31
HETATM   31  O   UNK N   1      35.081  16.451   7.136  0.00  0.00    -0.307 OA
HETATM   32  H   UNK N   1      35.679  16.713   6.419  0.00  0.00     0.222 HD
ENDBRANCH  29  31
BRANCH  29  33
HETATM   33  O   UNK N   1      32.646  16.604   8.683  0.00  0.00    -0.294 OA
BRANCH  33  34
HETATM   34  C   UNK N   1      31.717  17.602   8.372  0.00  0.00     0.215 C 
BRANCH  34  35
HETATM   35  C   UNK N   1      30.301  17.026   8.316  0.00  0.00     0.178 C 
BRANCH  35  36
HETATM   36  C   UNK N   1      29.459  17.478   9.521  0.00  0.00     0.103 C 
HETATM   37  C   UNK N   1      29.803  18.907   9.924  0.00  0.00     0.051 C 
BRANCH  36  38
HETATM   38  C   UNK N   1      27.978  17.390   9.156  0.00  0.00     0.204 C 
BRANCH  38  39
HETATM   39  O   UNK N   1      27.457  18.653   8.867  0.00  0.00    -0.398 OA
HETATM   40  H   UNK N   1      26.626  19.000   9.226  0.00  0.00     0.209 HD
ENDBRANCH  38  39
ENDBRANCH  36  38
BRANCH  36  41
HETATM   41  O   UNK N   1      29.708  16.629  10.605  0.00  0.00    -0.385 OA
HETATM   42  H   UNK N   1      29.199  15.811  10.714  0.00  0.00     0.210 HD
ENDBRANCH  36  41
ENDBRANCH  35  36
BRANCH  35  43
HETATM   43  O   UNK N   1      29.687  17.391   7.113  0.00  0.00    -0.390 OA
HETATM   44  H   UNK N   1      30.226  17.645   6.348  0.00  0.00     0.210 HD
ENDBRANCH  35  43
ENDBRANCH  34  35
ENDBRANCH  33  34
ENDBRANCH  29  33
ENDBRANCH  28  29
ENDBRANCH  24  28
ENDBRANCH  23  24
ENDBRANCH   1  23
TORSDOF 19
ENDMDL
MODEL 2
REMARK VINA RESULT:      -7.5      4.935     10.216
REMARK  19 active torsions:
REMARK  status: ('A' for Active; 'I' for Inactive)
REMARK    1  A    between atoms: C_7  and  C_4 
REMARK    2  A    between atoms: O_30  and  C_4 
REMARK    3  A    between atoms: C_8  and  C_5 
REMARK    4  A    between atoms: O_31  and  C_5 
REMARK    5  A    between atoms: C_14  and  C_6 
REMARK    6  A    between atoms: O_20  and  C_6 
REMARK    7  A    between atoms: C_14  and  C_8 
REMARK    8  A    between atoms: C_8  and  O_21 
REMARK    9  A    between atoms: C_10  and  O_22 
REMARK   10  A    between atoms: C_11  and  O_23 
REMARK   11  A    between atoms: C_12  and  N_19 
REMARK   12  A    between atoms: O_24  and  C_13 
REMARK   13  A    between atoms: C_14  and  O_25 
REMARK   14  A    between atoms: P_34  and  O_26 
REMARK   15  A    between atoms: P_35  and  O_28 
REMARK   16  A    between atoms: P_34  and  O_30 
REMARK   17  A    between atoms: P_35  and  O_31 
REMARK   18  A    between atoms: P_34  and  O_33 
REMARK   19  A    between atoms: P_35  and  O_33 
ROOT
HETATM    1  C   UNK N   1      32.168  15.041   7.188  0.00  0.00     0.215 C 
ENDROOT
BRANCH   1   2
HETATM    2  C   UNK N   1      31.512  16.395   7.346  0.00  0.00     0.180 C 
HETATM    3  C   UNK N   1      31.549  16.909   8.769  0.00  0.00     0.182 C 
HETATM    4  C   UNK N   1      30.577  18.035   8.600  0.00  0.00     0.198 C 
HETATM    5  C   UNK N   1      29.485  17.310   7.793  0.00  0.00     0.262 C 
HETATM    6  O   UNK N   1      30.144  16.306   7.023  0.00  0.00    -0.353 OA
BRANCH   3   7
HETATM    7  O   UNK N   1      32.815  17.341   9.171  0.00  0.00    -0.390 OA
HETATM    8  H   UNK N   1      33.221  18.188   9.414  0.00  0.00     0.210 HD
ENDBRANCH   3   7
BRANCH   4   9
HETATM    9  O   UNK N   1      30.133  18.523   9.832  0.00  0.00    -0.388 OA
HETATM   10  H   UNK N   1      29.245  18.401  10.203  0.00  0.00     0.210 HD
ENDBRANCH   4   9
BRANCH   5  11
HETATM   11  N   UNK N   1      28.704  18.203   6.904  0.00  0.00    -0.293 N 
HETATM   12  C   UNK N   1      28.940  18.146   5.559  0.00  0.00     0.101 A 
HETATM   13  C   UNK N   1      28.218  18.927   4.667  0.00  0.00     0.065 A 
HETATM   14  C   UNK N   1      27.250  19.780   5.172  0.00  0.00     0.102 A 
HETATM   15  N   UNK N   1      26.564  20.511   4.379  0.00  0.00    -0.385 N 
HETATM   16  N   UNK N   1      27.029  19.833   6.510  0.00  0.00    -0.308 N 
HETATM   17  H   UNK N   1      26.069  21.300   4.697  0.00  0.00     0.157 HD
ATOM     18  HN  UNK N   1      26.530  20.270   3.388  1.00  0.00     0.157 HD
HETATM   19  C   UNK N   1      27.736  19.057   7.376  0.00  0.00     0.227 A 
ATOM     20  HN  UNK N   1      26.319  20.469   6.873  1.00  0.00     0.171 HD
BRANCH  19  21
HETATM   21  O   UNK N   1      27.470  19.140   8.689  0.00  0.00    -0.332 OA
HETATM   22  H   UNK N   1      27.137  18.417   9.183  0.00  0.00     0.221 HD
ENDBRANCH  19  21
ENDBRANCH   5  11
ENDBRANCH   1   2
BRANCH   1  23
HETATM   23  O   UNK N   1      32.295  14.404   8.423  0.00  0.00    -0.294 OA
BRANCH  23  24
HETATM   24  P   UNK N   1      33.963  13.918   8.480  0.00  0.00     0.401 P 
HETATM   25  O   UNK N   1      34.332  13.353   7.084  0.00  0.00    -0.631 OA
BRANCH  24  26
HETATM   26  O   UNK N   1      34.193  12.613   9.604  0.00  0.00    -0.307 OA
HETATM   27  H   UNK N   1      34.059  12.703  10.560  0.00  0.00     0.222 HD
ENDBRANCH  24  26
BRANCH  24  28
HETATM   28  O   UNK N   1      35.062  15.231   8.819  0.00  0.00    -0.195 OA
BRANCH  28  29
HETATM   29  P   UNK N   1      35.092  15.484  10.548  0.00  0.00     0.401 P 
HETATM   30  O   UNK N   1      35.234  17.010  10.789  0.00  0.00    -0.631 OA
BRANCH  29  31
HETATM   31  O   UNK N   1      33.556  15.075  11.243  0.00  0.00    -0.307 OA
HETATM   32  H   UNK N   1      32.785  14.565  10.949  0.00  0.00     0.222 HD
ENDBRANCH  29  31
BRANCH  29  33
HETATM   33  O   UNK N   1      36.419  14.716  11.389  0.00  0.00    -0.294 OA
BRANCH  33  34
HETATM   34  C   UNK N   1      36.033  14.621  12.730  0.00  0.00     0.215 C 
BRANCH  34  35
HETATM   35  C   UNK N   1      36.519  13.305  13.341  0.00  0.00     0.178 C 
BRANCH  35  36
HETATM   36  C   UNK N   1      35.402  12.248  13.368  0.00  0.00     0.103 C 
HETATM   37  C   UNK N   1      35.853  10.958  12.693  0.00  0.00     0.051 C 
BRANCH  36  38
HETATM   38  C   UNK N   1      35.020  11.962  14.819  0.00  0.00     0.204 C 
BRANCH  38  39
HETATM   39  O   UNK N   1      34.177  12.957  15.320  0.00  0.00    -0.398 OA
HETATM   40  H   UNK N   1      34.442  13.877  15.473  0.00  0.00     0.209 HD
ENDBRANCH  38  39
ENDBRANCH  36  38
BRANCH  36  41
HETATM   41  O   UNK N   1      34.279  12.743  12.695  0.00  0.00    -0.385 OA
HETATM   42  H   UNK N   1      33.456  12.230  12.670  0.00  0.00     0.210 HD
ENDBRANCH  36  41
ENDBRANCH  35  36
BRANCH  35  43
HETATM   43  O   UNK N   1      37.633  12.836  12.638  0.00  0.00    -0.390 OA
HETATM   44  H   UNK N   1      38.378  13.428  12.454  0.00  0.00     0.210 HD
ENDBRANCH  35  43
ENDBRANCH  34  35
ENDBRANCH  33  34
ENDBRANCH  29  33
ENDBRANCH  28  29
ENDBRANCH  24  28
ENDBRANCH  23  24
ENDBRANCH   1  23
TORSDOF 19
ENDMDL
MODEL 3
REMARK VINA RESULT:      -7.3      5.492     11.184
REMARK  19 active torsions:
REMARK  status: ('A' for Active; 'I' for Inactive)
REMARK    1  A    between atoms: C_7  and  C_4 
REMARK    2  A    between atoms: O_30  and  C_4 
REMARK    3  A    between atoms: C_8  and  C_5 
REMARK    4  A    between atoms: O_31  and  C_5 
REMARK    5  A    between atoms: C_14  and  C_6 
REMARK    6  A    between atoms: O_20  and  C_6 
REMARK    7  A    between atoms: C_14  and  C_8 
REMARK    8  A    between atoms: C_8  and  O_21 
REMARK    9  A    between atoms: C_10  and  O_22 
REMARK   10  A    between atoms: C_11  and  O_23 
REMARK   11  A    between atoms: C_12  and  N_19 
REMARK   12  A    between atoms: O_24  and  C_13 
REMARK   13  A    between atoms: C_14  and  O_25 
REMARK   14  A    between atoms: P_34  and  O_26 
REMARK   15  A    between atoms: P_35  and  O_28 
REMARK   16  A    between atoms: P_34  and  O_30 
REMARK   17  A    between atoms: P_35  and  O_31 
REMARK   18  A    between atoms: P_34  and  O_33 
REMARK   19  A    between atoms: P_35  and  O_33 
ROOT
HETATM    1  C   UNK N   1      31.404  16.415   7.098  0.00  0.00     0.215 C 
ENDROOT
BRANCH   1   2
HETATM    2  C   UNK N   1      30.252  17.395   7.157  0.00  0.00     0.180 C 
HETATM    3  C   UNK N   1      29.642  17.509   8.537  0.00  0.00     0.182 C 
HETATM    4  C   UNK N   1      28.408  18.263   8.148  0.00  0.00     0.198 C 
HETATM    5  C   UNK N   1      27.999  17.457   6.902  0.00  0.00     0.262 C 
HETATM    6  O   UNK N   1      29.204  16.954   6.326  0.00  0.00    -0.353 OA
BRANCH   3   7
HETATM    7  O   UNK N   1      30.442  18.209   9.444  0.00  0.00    -0.390 OA
HETATM    8  H   UNK N   1      30.295  18.851  10.156  0.00  0.00     0.210 HD
ENDBRANCH   3   7
BRANCH   4   9
HETATM    9  O   UNK N   1      27.451  18.247   9.166  0.00  0.00    -0.388 OA
HETATM   10  H   UNK N   1      27.512  18.725  10.008  0.00  0.00     0.210 HD
ENDBRANCH   4   9
BRANCH   5  11
HETATM   11  N   UNK N   1      27.245  18.246   5.898  0.00  0.00    -0.293 N 
HETATM   12  C   UNK N   1      27.800  19.408   5.439  0.00  0.00     0.101 A 
HETATM   13  C   UNK N   1      27.165  20.175   4.471  0.00  0.00     0.065 A 
HETATM   14  C   UNK N   1      25.944  19.741   3.981  0.00  0.00     0.102 A 
HETATM   15  N   UNK N   1      25.334  20.421   3.088  0.00  0.00    -0.385 N 
HETATM   16  N   UNK N   1      25.401  18.589   4.450  0.00  0.00    -0.308 N 
HETATM   17  H   UNK N   1      24.374  20.300   2.908  0.00  0.00     0.157 HD
ATOM     18  HN  UNK N   1      25.857  21.109   2.547  1.00  0.00     0.157 HD
HETATM   19  C   UNK N   1      26.034  17.839   5.392  0.00  0.00     0.227 A 
ATOM     20  HN  UNK N   1      24.498  18.280   4.089  1.00  0.00     0.171 HD
BRANCH  19  21
HETATM   21  O   UNK N   1      25.458  16.702   5.814  0.00  0.00    -0.332 OA
HETATM   22  H   UNK N   1      25.429  16.456   6.717  0.00  0.00     0.221 HD
ENDBRANCH  19  21
ENDBRANCH   5  11
ENDBRANCH   1   2
BRANCH   1  23
HETATM   23  O   UNK N   1      32.612  17.053   7.379  0.00  0.00    -0.294 OA
BRANCH  23  24
HETATM   24  P   UNK N   1      33.384  16.010   8.535  0.00  0.00     0.401 P 
HETATM   25  O   UNK N   1      33.592  14.631   7.856  0.00  0.00    -0.631 OA
BRANCH  24  26
HETATM   26  O   UNK N   1      32.349  15.722   9.902  0.00  0.00    -0.307 OA
HETATM   27  H   UNK N   1      31.403  15.526   9.821  0.00  0.00     0.222 HD
ENDBRANCH  24  26
BRANCH  24  28
HETATM   28  O   UNK N   1      34.951  16.578   9.052  0.00  0.00    -0.195 OA
BRANCH  28  29
HETATM   29  P   UNK N   1      35.691  15.328  10.023  0.00  0.00     0.401 P 
HETATM   30  O   UNK N   1      36.372  14.329   9.050  0.00  0.00    -0.631 OA
BRANCH  29  31
HETATM   31  O   UNK N   1      36.996  15.984  10.958  0.00  0.00    -0.307 OA
HETATM   32  H   UNK N   1      37.374  15.798  11.832  0.00  0.00     0.222 HD
ENDBRANCH  29  31
BRANCH  29  33
HETATM   33  O   UNK N   1      34.583  14.396  11.005  0.00  0.00    -0.294 OA
BRANCH  33  34
HETATM   34  C   UNK N   1      35.016  13.068  10.935  0.00  0.00     0.215 C 
BRANCH  34  35
HETATM   35  C   UNK N   1      35.275  12.508  12.334  0.00  0.00     0.178 C 
BRANCH  35  36
HETATM   36  C   UNK N   1      36.744  12.690  12.753  0.00  0.00     0.103 C 
HETATM   37  C   UNK N   1      37.073  11.845  13.978  0.00  0.00     0.051 C 
BRANCH  36  38
HETATM   38  C   UNK N   1      37.648  12.282  11.590  0.00  0.00     0.204 C 
BRANCH  38  39
HETATM   39  O   UNK N   1      38.449  13.350  11.181  0.00  0.00    -0.398 OA
HETATM   40  H   UNK N   1      39.213  13.270  10.589  0.00  0.00     0.209 HD
ENDBRANCH  38  39
ENDBRANCH  36  38
BRANCH  36  41
HETATM   41  O   UNK N   1      36.977  14.036  13.054  0.00  0.00    -0.385 OA
HETATM   42  H   UNK N   1      37.598  14.281  13.757  0.00  0.00     0.210 HD
ENDBRANCH  36  41
ENDBRANCH  35  36
BRANCH  35  43
HETATM   43  O   UNK N   1      34.415  13.113  13.257  0.00  0.00    -0.390 OA
HETATM   44  H   UNK N   1      33.866  12.568  13.842  0.00  0.00     0.210 HD
ENDBRANCH  35  43
ENDBRANCH  34  35
ENDBRANCH  33  34
ENDBRANCH  29  33
ENDBRANCH  28  29
ENDBRANCH  24  28
ENDBRANCH  23  24
ENDBRANCH   1  23
TORSDOF 19
ENDMDL
MODEL 4
REMARK VINA RESULT:      -7.3      2.367      2.896
REMARK  19 active torsions:
REMARK  status: ('A' for Active; 'I' for Inactive)
REMARK    1  A    between atoms: C_7  and  C_4 
REMARK    2  A    between atoms: O_30  and  C_4 
REMARK    3  A    between atoms: C_8  and  C_5 
REMARK    4  A    between atoms: O_31  and  C_5 
REMARK    5  A    between atoms: C_14  and  C_6 
REMARK    6  A    between atoms: O_20  and  C_6 
REMARK    7  A    between atoms: C_14  and  C_8 
REMARK    8  A    between atoms: C_8  and  O_21 
REMARK    9  A    between atoms: C_10  and  O_22 
REMARK   10  A    between atoms: C_11  and  O_23 
REMARK   11  A    between atoms: C_12  and  N_19 
REMARK   12  A    between atoms: O_24  and  C_13 
REMARK   13  A    between atoms: C_14  and  O_25 
REMARK   14  A    between atoms: P_34  and  O_26 
REMARK   15  A    between atoms: P_35  and  O_28 
REMARK   16  A    between atoms: P_34  and  O_30 
REMARK   17  A    between atoms: P_35  and  O_31 
REMARK   18  A    between atoms: P_34  and  O_33 
REMARK   19  A    between atoms: P_35  and  O_33 
ROOT
HETATM    1  C   UNK N   1      34.926  14.052  11.747  0.00  0.00     0.215 C 
ENDROOT
BRANCH   1   2
HETATM    2  C   UNK N   1      35.701  13.608  12.968  0.00  0.00     0.180 C 
HETATM    3  C   UNK N   1      36.772  12.587  12.652  0.00  0.00     0.182 C 
HETATM    4  C   UNK N   1      37.074  12.171  14.058  0.00  0.00     0.198 C 
HETATM    5  C   UNK N   1      35.639  12.028  14.596  0.00  0.00     0.262 C 
HETATM    6  O   UNK N   1      34.838  12.966  13.878  0.00  0.00    -0.353 OA
BRANCH   3   7
HETATM    7  O   UNK N   1      37.880  13.128  11.996  0.00  0.00    -0.390 OA
HETATM    8  H   UNK N   1      38.286  13.040  11.119  0.00  0.00     0.210 HD
ENDBRANCH   3   7
BRANCH   4   9
HETATM    9  O   UNK N   1      37.809  10.983  14.098  0.00  0.00    -0.388 OA
HETATM   10  H   UNK N   1      37.794  10.332  14.817  0.00  0.00     0.210 HD
ENDBRANCH   4   9
BRANCH   5  11
HETATM   11  N   UNK N   1      35.518  12.267  16.054  0.00  0.00    -0.293 N 
HETATM   12  C   UNK N   1      35.403  13.557  16.492  0.00  0.00     0.101 A 
HETATM   13  C   UNK N   1      35.248  13.848  17.841  0.00  0.00     0.065 A 
HETATM   14  C   UNK N   1      35.222  12.797  18.743  0.00  0.00     0.102 A 
HETATM   15  N   UNK N   1      35.078  13.029  19.992  0.00  0.00    -0.385 N 
HETATM   16  N   UNK N   1      35.345  11.521  18.297  0.00  0.00    -0.308 N 
HETATM   17  H   UNK N   1      35.313  12.361  20.675  0.00  0.00     0.157 HD
ATOM     18  HN  UNK N   1      34.710  13.933  20.288  1.00  0.00     0.157 HD
HETATM   19  C   UNK N   1      35.486  11.245  16.972  0.00  0.00     0.227 A 
ATOM     20  HN  UNK N   1      35.331  10.754  18.969  1.00  0.00     0.171 HD
BRANCH  19  21
HETATM   21  O   UNK N   1      35.593   9.964  16.583  0.00  0.00    -0.332 OA
HETATM   22  H   UNK N   1      35.110   9.272  16.990  0.00  0.00     0.221 HD
ENDBRANCH  19  21
ENDBRANCH   5  11
ENDBRANCH   1   2
BRANCH   1  23
HETATM   23  O   UNK N   1      35.777  14.619  10.799  0.00  0.00    -0.294 OA
BRANCH  23  24
HETATM   24  P   UNK N   1      34.832  15.893  10.089  0.00  0.00     0.401 P 
HETATM   25  O   UNK N   1      35.168  17.203  10.848  0.00  0.00    -0.631 OA
BRANCH  24  26
HETATM   26  O   UNK N   1      33.134  15.618  10.331  0.00  0.00    -0.307 OA
HETATM   27  H   UNK N   1      32.504  15.496   9.603  0.00  0.00     0.222 HD
ENDBRANCH  24  26
BRANCH  24  28
HETATM   28  O   UNK N   1      35.183  16.165   8.401  0.00  0.00    -0.195 OA
BRANCH  28  29
HETATM   29  P   UNK N   1      34.406  17.654   7.916  0.00  0.00     0.401 P 
HETATM   30  O   UNK N   1      33.004  17.681   8.582  0.00  0.00    -0.631 OA
BRANCH  29  31
HETATM   31  O   UNK N   1      35.236  19.016   8.597  0.00  0.00    -0.307 OA
HETATM   32  H   UNK N   1      35.825  19.704   8.248  0.00  0.00     0.222 HD
ENDBRANCH  29  31
BRANCH  29  33
HETATM   33  O   UNK N   1      34.149  17.833   6.196  0.00  0.00    -0.294 OA
BRANCH  33  34
HETATM   34  C   UNK N   1      33.949  16.544   5.691  0.00  0.00     0.215 C 
BRANCH  34  35
HETATM   35  C   UNK N   1      32.503  16.362   5.225  0.00  0.00     0.178 C 
BRANCH  35  36
HETATM   36  C   UNK N   1      32.004  14.929   5.476  0.00  0.00     0.103 C 
HETATM   37  C   UNK N   1      32.521  13.975   4.405  0.00  0.00     0.051 C 
BRANCH  36  38
HETATM   38  C   UNK N   1      32.484  14.467   6.850  0.00  0.00     0.204 C 
BRANCH  38  39
HETATM   39  O   UNK N   1      31.751  15.081   7.868  0.00  0.00    -0.398 OA
HETATM   40  H   UNK N   1      30.793  14.987   7.990  0.00  0.00     0.209 HD
ENDBRANCH  38  39
ENDBRANCH  36  38
BRANCH  36  41
HETATM   41  O   UNK N   1      30.605  14.916   5.458  0.00  0.00    -0.385 OA
HETATM   42  H   UNK N   1      30.127  14.282   4.902  0.00  0.00     0.210 HD
ENDBRANCH  36  41
ENDBRANCH  35  36
BRANCH  35  43
HETATM   43  O   UNK N   1      31.678  17.296   5.860  0.00  0.00    -0.390 OA
HETATM   44  H   UNK N   1      31.198  17.053   6.667  0.00  0.00     0.210 HD
ENDBRANCH  35  43
ENDBRANCH  34  35
ENDBRANCH  33  34
ENDBRANCH  29  33
ENDBRANCH  28  29
ENDBRANCH  24  28
ENDBRANCH  23  24
ENDBRANCH   1  23
TORSDOF 19
ENDMDL
MODEL 5
REMARK VINA RESULT:      -7.1      2.051      3.358
REMARK  19 active torsions:
REMARK  status: ('A' for Active; 'I' for Inactive)
REMARK    1  A    between atoms: C_7  and  C_4 
REMARK    2  A    between atoms: O_30  and  C_4 
REMARK    3  A    between atoms: C_8  and  C_5 
REMARK    4  A    between atoms: O_31  and  C_5 
REMARK    5  A    between atoms: C_14  and  C_6 
REMARK    6  A    between atoms: O_20  and  C_6 
REMARK    7  A    between atoms: C_14  and  C_8 
REMARK    8  A    between atoms: C_8  and  O_21 
REMARK    9  A    between atoms: C_10  and  O_22 
REMARK   10  A    between atoms: C_11  and  O_23 
REMARK   11  A    between atoms: C_12  and  N_19 
REMARK   12  A    between atoms: O_24  and  C_13 
REMARK   13  A    between atoms: C_14  and  O_25 
REMARK   14  A    between atoms: P_34  and  O_26 
REMARK   15  A    between atoms: P_35  and  O_28 
REMARK   16  A    between atoms: P_34  and  O_30 
REMARK   17  A    between atoms: P_35  and  O_31 
REMARK   18  A    between atoms: P_34  and  O_33 
REMARK   19  A    between atoms: P_35  and  O_33 
ROOT
HETATM    1  C   UNK N   1      35.312  16.845  10.418  0.00  0.00     0.215 C 
ENDROOT
BRANCH   1   2
HETATM    2  C   UNK N   1      35.924  15.721  11.226  0.00  0.00     0.180 C 
HETATM    3  C   UNK N   1      36.664  14.713  10.374  0.00  0.00     0.182 C 
HETATM    4  C   UNK N   1      36.829  13.652  11.417  0.00  0.00     0.198 C 
HETATM    5  C   UNK N   1      35.409  13.656  12.012  0.00  0.00     0.262 C 
HETATM    6  O   UNK N   1      34.910  14.985  11.869  0.00  0.00    -0.353 OA
BRANCH   3   7
HETATM    7  O   UNK N   1      37.883  15.187   9.884  0.00  0.00    -0.390 OA
HETATM    8  H   UNK N   1      38.180  15.955   9.371  0.00  0.00     0.210 HD
ENDBRANCH   3   7
BRANCH   4   9
HETATM    9  O   UNK N   1      37.198  12.427  10.854  0.00  0.00    -0.388 OA
HETATM   10  H   UNK N   1      36.609  11.825  10.372  0.00  0.00     0.210 HD
ENDBRANCH   4   9
BRANCH   5  11
HETATM   11  N   UNK N   1      35.354  13.241  13.435  0.00  0.00    -0.293 N 
HETATM   12  C   UNK N   1      34.583  12.161  13.764  0.00  0.00     0.101 A 
HETATM   13  C   UNK N   1      34.517  11.697  15.071  0.00  0.00     0.065 A 
HETATM   14  C   UNK N   1      35.245  12.361  16.045  0.00  0.00     0.102 A 
HETATM   15  N   UNK N   1      35.209  11.959  17.257  0.00  0.00    -0.385 N 
HETATM   16  N   UNK N   1      36.001  13.436  15.706  0.00  0.00    -0.308 N 
HETATM   17  H   UNK N   1      35.486  12.536  18.005  0.00  0.00     0.157 HD
ATOM     18  HN  UNK N   1      34.883  11.013  17.455  1.00  0.00     0.157 HD
HETATM   19  C   UNK N   1      36.068  13.879  14.421  0.00  0.00     0.227 A 
ATOM     20  HN  UNK N   1      36.529  13.923  16.430  1.00  0.00     0.171 HD
BRANCH  19  21
HETATM   21  O   UNK N   1      36.839  14.940  14.138  0.00  0.00    -0.332 OA
HETATM   22  H   UNK N   1      37.202  15.088  13.287  0.00  0.00     0.221 HD
ENDBRANCH  19  21
ENDBRANCH   5  11
ENDBRANCH   1   2
BRANCH   1  23
HETATM   23  O   UNK N   1      34.901  16.388   9.166  0.00  0.00    -0.294 OA
BRANCH  23  24
HETATM   24  P   UNK N   1      34.445  17.833   8.315  0.00  0.00     0.401 P 
HETATM   25  O   UNK N   1      34.621  17.558   6.799  0.00  0.00    -0.631 OA
BRANCH  24  26
HETATM   26  O   UNK N   1      35.520  19.144   8.694  0.00  0.00    -0.307 OA
HETATM   27  H   UNK N   1      35.958  19.687   8.020  0.00  0.00     0.222 HD
ENDBRANCH  24  26
BRANCH  24  28
HETATM   28  O   UNK N   1      32.783  18.299   8.571  0.00  0.00    -0.195 OA
BRANCH  28  29
HETATM   29  P   UNK N   1      31.760  17.005   7.992  0.00  0.00     0.401 P 
HETATM   30  O   UNK N   1      31.702  17.119   6.445  0.00  0.00    -0.631 OA
BRANCH  29  31
HETATM   31  O   UNK N   1      32.507  15.468   8.287  0.00  0.00    -0.307 OA
HETATM   32  H   UNK N   1      32.206  14.616   8.640  0.00  0.00     0.222 HD
ENDBRANCH  29  31
BRANCH  29  33
HETATM   33  O   UNK N   1      30.107  17.052   8.562  0.00  0.00    -0.294 OA
BRANCH  33  34
HETATM   34  C   UNK N   1      29.777  18.404   8.700  0.00  0.00     0.215 C 
BRANCH  34  35
HETATM   35  C   UNK N   1      28.302  18.639   8.367  0.00  0.00     0.178 C 
BRANCH  35  36
HETATM   36  C   UNK N   1      27.988  18.271   6.907  0.00  0.00     0.103 C 
HETATM   37  C   UNK N   1      27.269  16.930   6.823  0.00  0.00     0.051 C 
BRANCH  36  38
HETATM   38  C   UNK N   1      27.112  19.363   6.295  0.00  0.00     0.204 C 
BRANCH  38  39
HETATM   39  O   UNK N   1      26.605  20.210   7.283  0.00  0.00    -0.398 OA
HETATM   40  H   UNK N   1      26.433  21.157   7.160  0.00  0.00     0.209 HD
ENDBRANCH  38  39
ENDBRANCH  36  38
BRANCH  36  41
HETATM   41  O   UNK N   1      29.182  18.192   6.181  0.00  0.00    -0.385 OA
HETATM   42  H   UNK N   1      29.165  18.131   5.214  0.00  0.00     0.210 HD
ENDBRANCH  36  41
ENDBRANCH  35  36
BRANCH  35  43
HETATM   43  O   UNK N   1      27.493  17.915   9.249  0.00  0.00    -0.390 OA
HETATM   44  H   UNK N   1      26.836  18.374   9.795  0.00  0.00     0.210 HD
ENDBRANCH  35  43
ENDBRANCH  34  35
ENDBRANCH  33  34
ENDBRANCH  29  33
ENDBRANCH  28  29
ENDBRANCH  24  28
ENDBRANCH  23  24
ENDBRANCH   1  23
TORSDOF 19
ENDMDL
MODEL 6
REMARK VINA RESULT:      -7.1     11.750     15.148
REMARK  19 active torsions:
REMARK  status: ('A' for Active; 'I' for Inactive)
REMARK    1  A    between atoms: C_7  and  C_4 
REMARK    2  A    between atoms: O_30  and  C_4 
REMARK    3  A    between atoms: C_8  and  C_5 
REMARK    4  A    between atoms: O_31  and  C_5 
REMARK    5  A    between atoms: C_14  and  C_6 
REMARK    6  A    between atoms: O_20  and  C_6 
REMARK    7  A    between atoms: C_14  and  C_8 
REMARK    8  A    between atoms: C_8  and  O_21 
REMARK    9  A    between atoms: C_10  and  O_22 
REMARK   10  A    between atoms: C_11  and  O_23 
REMARK   11  A    between atoms: C_12  and  N_19 
REMARK   12  A    between atoms: O_24  and  C_13 
REMARK   13  A    between atoms: C_14  and  O_25 
REMARK   14  A    between atoms: P_34  and  O_26 
REMARK   15  A    between atoms: P_35  and  O_28 
REMARK   16  A    between atoms: P_34  and  O_30 
REMARK   17  A    between atoms: P_35  and  O_31 
REMARK   18  A    between atoms: P_34  and  O_33 
REMARK   19  A    between atoms: P_35  and  O_33 
ROOT
HETATM    1  C   UNK N   1      21.352  18.233   3.609  0.00  0.00     0.215 C 
ENDROOT
BRANCH   1   2
HETATM    2  C   UNK N   1      22.583  19.056   3.913  0.00  0.00     0.180 C 
HETATM    3  C   UNK N   1      22.931  20.033   2.811  0.00  0.00     0.182 C 
HETATM    4  C   UNK N   1      24.300  20.400   3.293  0.00  0.00     0.198 C 
HETATM    5  C   UNK N   1      24.835  18.998   3.636  0.00  0.00     0.262 C 
HETATM    6  O   UNK N   1      23.708  18.215   4.028  0.00  0.00    -0.353 OA
BRANCH   3   7
HETATM    7  O   UNK N   1      22.067  21.128   2.745  0.00  0.00    -0.390 OA
HETATM    8  H   UNK N   1      21.900  21.921   3.278  0.00  0.00     0.210 HD
ENDBRANCH   3   7
BRANCH   4   9
HETATM    9  O   UNK N   1      25.037  21.055   2.303  0.00  0.00    -0.388 OA
HETATM   10  H   UNK N   1      25.005  20.863   1.352  0.00  0.00     0.210 HD
ENDBRANCH   4   9
BRANCH   5  11
HETATM   11  N   UNK N   1      25.857  18.992   4.711  0.00  0.00    -0.293 N 
HETATM   12  C   UNK N   1      26.223  20.188   5.263  0.00  0.00     0.101 A 
HETATM   13  C   UNK N   1      27.146  20.250   6.298  0.00  0.00     0.065 A 
HETATM   14  C   UNK N   1      27.701  19.067   6.758  0.00  0.00     0.102 A 
HETATM   15  N   UNK N   1      28.552  19.087   7.712  0.00  0.00    -0.385 N 
HETATM   16  N   UNK N   1      27.334  17.887   6.197  0.00  0.00    -0.308 N 
HETATM   17  H   UNK N   1      29.153  18.328   7.888  0.00  0.00     0.157 HD
ATOM     18  HN  UNK N   1      28.609  19.914   8.306  1.00  0.00     0.157 HD
HETATM   19  C   UNK N   1      26.421  17.835   5.189  0.00  0.00     0.227 A 
ATOM     20  HN  UNK N   1      27.753  17.021   6.538  1.00  0.00     0.171 HD
BRANCH  19  21
HETATM   21  O   UNK N   1      26.086  16.640   4.677  0.00  0.00    -0.332 OA
HETATM   22  H   UNK N   1      26.598  16.212   4.019  0.00  0.00     0.221 HD
ENDBRANCH  19  21
ENDBRANCH   5  11
ENDBRANCH   1   2
BRANCH   1  23
HETATM   23  O   UNK N   1      21.320  17.080   4.393  0.00  0.00    -0.294 OA
BRANCH  23  24
HETATM   24  P   UNK N   1      19.990  16.165   3.749  0.00  0.00     0.401 P 
HETATM   25  O   UNK N   1      19.645  16.759   2.359  0.00  0.00    -0.631 OA
BRANCH  24  26
HETATM   26  O   UNK N   1      18.566  16.365   4.725  0.00  0.00    -0.307 OA
HETATM   27  H   UNK N   1      18.564  16.830   5.576  0.00  0.00     0.222 HD
ENDBRANCH  24  26
BRANCH  24  28
HETATM   28  O   UNK N   1      20.352  14.474   3.518  0.00  0.00    -0.195 OA
BRANCH  28  29
HETATM   29  P   UNK N   1      19.641  13.578   4.840  0.00  0.00     0.401 P 
HETATM   30  O   UNK N   1      18.101  13.639   4.662  0.00  0.00    -0.631 OA
BRANCH  29  31
HETATM   31  O   UNK N   1      20.028  11.893   4.704  0.00  0.00    -0.307 OA
HETATM   32  H   UNK N   1      20.614  11.284   5.180  0.00  0.00     0.222 HD
ENDBRANCH  29  31
BRANCH  29  33
HETATM   33  O   UNK N   1      19.988  14.206   6.434  0.00  0.00    -0.294 OA
BRANCH  33  34
HETATM   34  C   UNK N   1      21.284  13.784   6.750  0.00  0.00     0.215 C 
BRANCH  34  35
HETATM   35  C   UNK N   1      22.118  14.950   7.285  0.00  0.00     0.178 C 
BRANCH  35  36
HETATM   36  C   UNK N   1      23.429  15.115   6.499  0.00  0.00     0.103 C 
HETATM   37  C   UNK N   1      24.620  14.619   7.311  0.00  0.00     0.051 C 
BRANCH  36  38
HETATM   38  C   UNK N   1      23.331  14.325   5.195  0.00  0.00     0.204 C 
BRANCH  38  39
HETATM   39  O   UNK N   1      23.458  15.168   4.089  0.00  0.00    -0.398 OA
HETATM   40  H   UNK N   1      23.217  14.924   3.181  0.00  0.00     0.209 HD
ENDBRANCH  38  39
ENDBRANCH  36  38
BRANCH  36  41
HETATM   41  O   UNK N   1      23.620  16.467   6.194  0.00  0.00    -0.385 OA
HETATM   42  H   UNK N   1      23.049  17.144   6.588  0.00  0.00     0.210 HD
ENDBRANCH  36  41
ENDBRANCH  35  36
BRANCH  35  43
HETATM   43  O   UNK N   1      21.365  16.129   7.252  0.00  0.00    -0.390 OA
HETATM   44  H   UNK N   1      21.474  16.756   6.520  0.00  0.00     0.210 HD
ENDBRANCH  35  43
ENDBRANCH  34  35
ENDBRANCH  33  34
ENDBRANCH  29  33
ENDBRANCH  28  29
ENDBRANCH  24  28
ENDBRANCH  23  24
ENDBRANCH   1  23
TORSDOF 19
ENDMDL
MODEL 7
REMARK VINA RESULT:      -7.0      7.128     10.303
REMARK  19 active torsions:
REMARK  status: ('A' for Active; 'I' for Inactive)
REMARK    1  A    between atoms: C_7  and  C_4 
REMARK    2  A    between atoms: O_30  and  C_4 
REMARK    3  A    between atoms: C_8  and  C_5 
REMARK    4  A    between atoms: O_31  and  C_5 
REMARK    5  A    between atoms: C_14  and  C_6 
REMARK    6  A    between atoms: O_20  and  C_6 
REMARK    7  A    between atoms: C_14  and  C_8 
REMARK    8  A    between atoms: C_8  and  O_21 
REMARK    9  A    between atoms: C_10  and  O_22 
REMARK   10  A    between atoms: C_11  and  O_23 
REMARK   11  A    between atoms: C_12  and  N_19 
REMARK   12  A    between atoms: O_24  and  C_13 
REMARK   13  A    between atoms: C_14  and  O_25 
REMARK   14  A    between atoms: P_34  and  O_26 
REMARK   15  A    between atoms: P_35  and  O_28 
REMARK   16  A    between atoms: P_34  and  O_30 
REMARK   17  A    between atoms: P_35  and  O_31 
REMARK   18  A    between atoms: P_34  and  O_33 
REMARK   19  A    between atoms: P_35  and  O_33 
ROOT
HETATM    1  C   UNK N   1      32.129  17.558   8.587  0.00  0.00     0.215 C 
ENDROOT
BRANCH   1   2
HETATM    2  C   UNK N   1      30.767  18.162   8.326  0.00  0.00     0.180 C 
HETATM    3  C   UNK N   1      29.753  17.821   9.396  0.00  0.00     0.182 C 
HETATM    4  C   UNK N   1      28.529  18.283   8.667  0.00  0.00     0.198 C 
HETATM    5  C   UNK N   1      28.812  17.675   7.282  0.00  0.00     0.262 C 
HETATM    6  O   UNK N   1      30.231  17.642   7.132  0.00  0.00    -0.353 OA
BRANCH   3   7
HETATM    7  O   UNK N   1      29.960  18.503  10.597  0.00  0.00    -0.390 OA
HETATM    8  H   UNK N   1      30.199  18.263  11.506  0.00  0.00     0.210 HD
ENDBRANCH   3   7
BRANCH   4   9
HETATM    9  O   UNK N   1      27.361  17.802   9.264  0.00  0.00    -0.388 OA
HETATM   10  H   UNK N   1      26.459  17.939   8.933  0.00  0.00     0.210 HD
ENDBRANCH   4   9
BRANCH   5  11
HETATM   11  N   UNK N   1      28.199  18.427   6.160  0.00  0.00    -0.293 N 
HETATM   12  C   UNK N   1      27.542  19.591   6.444  0.00  0.00     0.101 A 
HETATM   13  C   UNK N   1      26.978  20.363   5.436  0.00  0.00     0.065 A 
HETATM   14  C   UNK N   1      27.088  19.921   4.128  0.00  0.00     0.102 A 
HETATM   15  N   UNK N   1      26.583  20.608   3.176  0.00  0.00    -0.385 N 
HETATM   16  N   UNK N   1      27.737  18.760   3.860  0.00  0.00    -0.308 N 
HETATM   17  H   UNK N   1      26.407  20.218   2.290  0.00  0.00     0.157 HD
ATOM     18  HN  UNK N   1      26.355  21.589   3.340  1.00  0.00     0.157 HD
HETATM   19  C   UNK N   1      28.295  18.015   4.853  0.00  0.00     0.227 A 
ATOM     20  HN  UNK N   1      27.807  18.439   2.894  1.00  0.00     0.171 HD
BRANCH  19  21
HETATM   21  O   UNK N   1      28.935  16.879   4.532  0.00  0.00    -0.332 OA
HETATM   22  H   UNK N   1      28.604  16.276   3.896  0.00  0.00     0.221 HD
ENDBRANCH  19  21
ENDBRANCH   5  11
ENDBRANCH   1   2
BRANCH   1  23
HETATM   23  O   UNK N   1      32.018  16.205   8.910  0.00  0.00    -0.294 OA
BRANCH  23  24
HETATM   24  P   UNK N   1      33.577  15.794   9.559  0.00  0.00     0.401 P 
HETATM   25  O   UNK N   1      33.342  14.961  10.846  0.00  0.00    -0.631 OA
BRANCH  24  26
HETATM   26  O   UNK N   1      34.438  17.218  10.059  0.00  0.00    -0.307 OA
HETATM   27  H   UNK N   1      35.172  17.202  10.693  0.00  0.00     0.222 HD
ENDBRANCH  24  26
BRANCH  24  28
HETATM   28  O   UNK N   1      34.549  14.826   8.482  0.00  0.00    -0.195 OA
BRANCH  28  29
HETATM   29  P   UNK N   1      33.548  13.539   7.853  0.00  0.00     0.401 P 
HETATM   30  O   UNK N   1      34.391  12.237   7.891  0.00  0.00    -0.631 OA
BRANCH  29  31
HETATM   31  O   UNK N   1      32.220  13.229   8.926  0.00  0.00    -0.307 OA
HETATM   32  H   UNK N   1      31.750  12.434   9.222  0.00  0.00     0.222 HD
ENDBRANCH  29  31
BRANCH  29  33
HETATM   33  O   UNK N   1      33.021  13.748   6.199  0.00  0.00    -0.294 OA
BRANCH  33  34
HETATM   34  C   UNK N   1      33.473  15.009   5.797  0.00  0.00     0.215 C 
BRANCH  34  35
HETATM   35  C   UNK N   1      32.357  15.788   5.098  0.00  0.00     0.178 C 
BRANCH  35  36
HETATM   36  C   UNK N   1      32.369  15.551   3.578  0.00  0.00     0.103 C 
HETATM   37  C   UNK N   1      31.246  14.608   3.162  0.00  0.00     0.051 C 
BRANCH  36  38
HETATM   38  C   UNK N   1      32.207  16.891   2.863  0.00  0.00     0.204 C 
BRANCH  38  39
HETATM   39  O   UNK N   1      31.617  17.838   3.703  0.00  0.00    -0.398 OA
HETATM   40  H   UNK N   1      31.367  18.735   3.431  0.00  0.00     0.209 HD
ENDBRANCH  38  39
ENDBRANCH  36  38
BRANCH  36  41
HETATM   41  O   UNK N   1      33.595  14.987   3.207  0.00  0.00    -0.385 OA
HETATM   42  H   UNK N   1      34.207  15.476   2.636  0.00  0.00     0.210 HD
ENDBRANCH  36  41
ENDBRANCH  35  36
BRANCH  35  43
HETATM   43  O   UNK N   1      31.118  15.441   5.646  0.00  0.00    -0.390 OA
HETATM   44  H   UNK N   1      30.589  16.107   6.114  0.00  0.00     0.210 HD
ENDBRANCH  35  43
ENDBRANCH  34  35
ENDBRANCH  33  34
ENDBRANCH  29  33
ENDBRANCH  28  29
ENDBRANCH  24  28
ENDBRANCH  23  24
ENDBRANCH   1  23
TORSDOF 19
ENDMDL
MODEL 8
REMARK VINA RESULT:      -6.9      2.159      3.312
REMARK  19 active torsions:
REMARK  status: ('A' for Active; 'I' for Inactive)
REMARK    1  A    between atoms: C_7  and  C_4 
REMARK    2  A    between atoms: O_30  and  C_4 
REMARK    3  A    between atoms: C_8  and  C_5 
REMARK    4  A    between atoms: O_31  and  C_5 
REMARK    5  A    between atoms: C_14  and  C_6 
REMARK    6  A    between atoms: O_20  and  C_6 
REMARK    7  A    between atoms: C_14  and  C_8 
REMARK    8  A    between atoms: C_8  and  O_21 
REMARK    9  A    between atoms: C_10  and  O_22 
REMARK   10  A    between atoms: C_11  and  O_23 
REMARK   11  A    between atoms: C_12  and  N_19 
REMARK   12  A    between atoms: O_24  and  C_13 
REMARK   13  A    between atoms: C_14  and  O_25 
REMARK   14  A    between atoms: P_34  and  O_26 
REMARK   15  A    between atoms: P_35  and  O_28 
REMARK   16  A    between atoms: P_34  and  O_30 
REMARK   17  A    between atoms: P_35  and  O_31 
REMARK   18  A    between atoms: P_34  and  O_33 
REMARK   19  A    between atoms: P_35  and  O_33 
ROOT
HETATM    1  C   UNK N   1      34.625  16.002  10.352  0.00  0.00     0.215 C 
ENDROOT
BRANCH   1   2
HETATM    2  C   UNK N   1      35.442  15.208  11.348  0.00  0.00     0.180 C 
HETATM    3  C   UNK N   1      36.560  14.419  10.702  0.00  0.00     0.182 C 
HETATM    4  C   UNK N   1      36.906  13.561  11.879  0.00  0.00     0.198 C 
HETATM    5  C   UNK N   1      35.490  13.164  12.332  0.00  0.00     0.262 C 
HETATM    6  O   UNK N   1      34.629  14.246  11.978  0.00  0.00    -0.353 OA
BRANCH   3   7
HETATM    7  O   UNK N   1      37.628  15.212  10.275  0.00  0.00    -0.390 OA
HETATM    8  H   UNK N   1      38.175  15.914  10.660  0.00  0.00     0.210 HD
ENDBRANCH   3   7
BRANCH   4   9
HETATM    9  O   UNK N   1      37.703  12.474  11.510  0.00  0.00    -0.388 OA
HETATM   10  H   UNK N   1      37.466  11.539  11.610  0.00  0.00     0.210 HD
ENDBRANCH   4   9
BRANCH   5  11
HETATM   11  N   UNK N   1      35.380  12.880  13.783  0.00  0.00    -0.293 N 
HETATM   12  C   UNK N   1      36.117  13.639  14.648  0.00  0.00     0.101 A 
HETATM   13  C   UNK N   1      36.032  13.451  16.022  0.00  0.00     0.065 A 
HETATM   14  C   UNK N   1      35.187  12.463  16.501  0.00  0.00     0.102 A 
HETATM   15  N   UNK N   1      35.083  12.265  17.759  0.00  0.00    -0.385 N 
HETATM   16  N   UNK N   1      34.466  11.711  15.631  0.00  0.00    -0.308 N 
HETATM   17  H   UNK N   1      34.714  11.429  18.125  0.00  0.00     0.157 HD
ATOM     18  HN  UNK N   1      35.393  12.993  18.402  1.00  0.00     0.157 HD
HETATM   19  C   UNK N   1      34.548  11.909  14.287  0.00  0.00     0.227 A 
ATOM     20  HN  UNK N   1      33.851  10.982  15.992  1.00  0.00     0.171 HD
BRANCH  19  21
HETATM   21  O   UNK N   1      33.806  11.145  13.471  0.00  0.00    -0.332 OA
HETATM   22  H   UNK N   1      32.989  11.434  13.113  0.00  0.00     0.221 HD
ENDBRANCH  19  21
ENDBRANCH   5  11
ENDBRANCH   1   2
BRANCH   1  23
HETATM   23  O   UNK N   1      35.282  17.182  10.001  0.00  0.00    -0.294 OA
BRANCH  23  24
HETATM   24  P   UNK N   1      34.472  17.703   8.554  0.00  0.00     0.401 P 
HETATM   25  O   UNK N   1      34.905  19.167   8.278  0.00  0.00    -0.631 OA
BRANCH  24  26
HETATM   26  O   UNK N   1      32.751  17.745   8.784  0.00  0.00    -0.307 OA
HETATM   27  H   UNK N   1      32.330  17.762   9.658  0.00  0.00     0.222 HD
ENDBRANCH  24  26
BRANCH  24  28
HETATM   28  O   UNK N   1      34.888  16.762   7.144  0.00  0.00    -0.195 OA
BRANCH  28  29
HETATM   29  P   UNK N   1      33.406  16.302   6.340  0.00  0.00     0.401 P 
HETATM   30  O   UNK N   1      33.800  15.536   5.049  0.00  0.00    -0.631 OA
BRANCH  29  31
HETATM   31  O   UNK N   1      32.542  15.136   7.291  0.00  0.00    -0.307 OA
HETATM   32  H   UNK N   1      32.540  14.882   8.227  0.00  0.00     0.222 HD
ENDBRANCH  29  31
BRANCH  29  33
HETATM   33  O   UNK N   1      32.385  17.632   5.844  0.00  0.00    -0.294 OA
BRANCH  33  34
HETATM   34  C   UNK N   1      31.300  17.065   5.168  0.00  0.00     0.215 C 
BRANCH  34  35
HETATM   35  C   UNK N   1      30.029  17.148   6.015  0.00  0.00     0.178 C 
BRANCH  35  36
HETATM   36  C   UNK N   1      28.860  17.756   5.222  0.00  0.00     0.103 C 
HETATM   37  C   UNK N   1      28.063  16.671   4.505  0.00  0.00     0.051 C 
BRANCH  36  38
HETATM   38  C   UNK N   1      27.946  18.513   6.184  0.00  0.00     0.204 C 
BRANCH  38  39
HETATM   39  O   UNK N   1      27.439  17.662   7.168  0.00  0.00    -0.398 OA
HETATM   40  H   UNK N   1      27.898  16.878   7.508  0.00  0.00     0.209 HD
ENDBRANCH  38  39
ENDBRANCH  36  38
BRANCH  36  41
HETATM   41  O   UNK N   1      29.360  18.654   4.273  0.00  0.00    -0.385 OA
HETATM   42  H   UNK N   1      29.432  19.598   4.481  0.00  0.00     0.210 HD
ENDBRANCH  36  41
ENDBRANCH  35  36
BRANCH  35  43
HETATM   43  O   UNK N   1      29.697  15.880   6.501  0.00  0.00    -0.390 OA
HETATM   44  H   UNK N   1      29.670  15.715   7.457  0.00  0.00     0.210 HD
ENDBRANCH  35  43
ENDBRANCH  34  35
ENDBRANCH  33  34
ENDBRANCH  29  33
ENDBRANCH  28  29
ENDBRANCH  24  28
ENDBRANCH  23  24
ENDBRANCH   1  23
TORSDOF 19
ENDMDL
MODEL 9
REMARK VINA RESULT:      -6.8      6.006     10.662
REMARK  19 active torsions:
REMARK  status: ('A' for Active; 'I' for Inactive)
REMARK    1  A    between atoms: C_7  and  C_4 
REMARK    2  A    between atoms: O_30  and  C_4 
REMARK    3  A    between atoms: C_8  and  C_5 
REMARK    4  A    between atoms: O_31  and  C_5 
REMARK    5  A    between atoms: C_14  and  C_6 
REMARK    6  A    between atoms: O_20  and  C_6 
REMARK    7  A    between atoms: C_14  and  C_8 
REMARK    8  A    between atoms: C_8  and  O_21 
REMARK    9  A    between atoms: C_10  and  O_22 
REMARK   10  A    between atoms: C_11  and  O_23 
REMARK   11  A    between atoms: C_12  and  N_19 
REMARK   12  A    between atoms: O_24  and  C_13 
REMARK   13  A    between atoms: C_14  and  O_25 
REMARK   14  A    between atoms: P_34  and  O_26 
REMARK   15  A    between atoms: P_35  and  O_28 
REMARK   16  A    between atoms: P_34  and  O_30 
REMARK   17  A    between atoms: P_35  and  O_31 
REMARK   18  A    between atoms: P_34  and  O_33 
REMARK   19  A    between atoms: P_35  and  O_33 
ROOT
HETATM    1  C   UNK N   1      31.620  16.558   7.588  0.00  0.00     0.215 C 
ENDROOT
BRANCH   1   2
HETATM    2  C   UNK N   1      30.455  17.522   7.529  0.00  0.00     0.180 C 
HETATM    3  C   UNK N   1      29.698  17.617   8.836  0.00  0.00     0.182 C 
HETATM    4  C   UNK N   1      28.503  18.357   8.321  0.00  0.00     0.198 C 
HETATM    5  C   UNK N   1      28.242  17.557   7.032  0.00  0.00     0.262 C 
HETATM    6  O   UNK N   1      29.509  17.075   6.587  0.00  0.00    -0.353 OA
BRANCH   3   7
HETATM    7  O   UNK N   1      30.386  18.318   9.828  0.00  0.00    -0.390 OA
HETATM    8  H   UNK N   1      31.244  18.239  10.274  0.00  0.00     0.210 HD
ENDBRANCH   3   7
BRANCH   4   9
HETATM    9  O   UNK N   1      27.442  18.320   9.230  0.00  0.00    -0.388 OA
HETATM   10  H   UNK N   1      26.959  19.090   9.568  0.00  0.00     0.210 HD
ENDBRANCH   4   9
BRANCH   5  11
HETATM   11  N   UNK N   1      27.590  18.345   5.958  0.00  0.00    -0.293 N 
HETATM   12  C   UNK N   1      27.530  19.703   6.098  0.00  0.00     0.101 A 
HETATM   13  C   UNK N   1      26.967  20.503   5.112  0.00  0.00     0.065 A 
HETATM   14  C   UNK N   1      26.456  19.891   3.979  0.00  0.00     0.102 A 
HETATM   15  N   UNK N   1      25.934  20.598   3.050  0.00  0.00    -0.385 N 
HETATM   16  N   UNK N   1      26.516  18.541   3.855  0.00  0.00    -0.308 N 
HETATM   17  H   UNK N   1      25.338  20.206   2.372  0.00  0.00     0.157 HD
ATOM     18  HN  UNK N   1      26.140  21.596   3.013  1.00  0.00     0.157 HD
HETATM   19  C   UNK N   1      27.077  17.766   4.822  0.00  0.00     0.227 A 
ATOM     20  HN  UNK N   1      26.131  18.099   3.021  1.00  0.00     0.171 HD
BRANCH  19  21
HETATM   21  O   UNK N   1      27.120  16.436   4.645  0.00  0.00    -0.332 OA
HETATM   22  H   UNK N   1      27.454  15.851   5.297  0.00  0.00     0.221 HD
ENDBRANCH  19  21
ENDBRANCH   5  11
ENDBRANCH   1   2
BRANCH   1  23
HETATM   23  O   UNK N   1      32.194  16.550   8.859  0.00  0.00    -0.294 OA
BRANCH  23  24
HETATM   24  P   UNK N   1      33.846  17.010   8.581  0.00  0.00     0.401 P 
HETATM   25  O   UNK N   1      33.835  18.405   7.902  0.00  0.00    -0.631 OA
BRANCH  24  26
HETATM   26  O   UNK N   1      34.612  15.932   7.454  0.00  0.00    -0.307 OA
HETATM   27  H   UNK N   1      34.210  15.102   7.154  0.00  0.00     0.222 HD
ENDBRANCH  24  26
BRANCH  24  28
HETATM   28  O   UNK N   1      34.788  17.151  10.044  0.00  0.00    -0.195 OA
BRANCH  28  29
HETATM   29  P   UNK N   1      34.969  15.554  10.730  0.00  0.00     0.401 P 
HETATM   30  O   UNK N   1      35.776  15.706  12.047  0.00  0.00    -0.631 OA
BRANCH  29  31
HETATM   31  O   UNK N   1      33.429  14.935  11.233  0.00  0.00    -0.307 OA
HETATM   32  H   UNK N   1      32.520  15.004  10.899  0.00  0.00     0.222 HD
ENDBRANCH  29  31
BRANCH  29  33
HETATM   33  O   UNK N   1      35.843  14.412   9.735  0.00  0.00    -0.294 OA
BRANCH  33  34
HETATM   34  C   UNK N   1      35.294  13.154  10.005  0.00  0.00     0.215 C 
BRANCH  34  35
HETATM   35  C   UNK N   1      34.059  12.903   9.138  0.00  0.00     0.178 C 
BRANCH  35  36
HETATM   36  C   UNK N   1      34.443  12.378   7.744  0.00  0.00     0.103 C 
HETATM   37  C   UNK N   1      34.692  10.874   7.776  0.00  0.00     0.051 C 
BRANCH  36  38
HETATM   38  C   UNK N   1      33.314  12.691   6.764  0.00  0.00     0.204 C 
BRANCH  38  39
HETATM   39  O   UNK N   1      32.416  13.610   7.312  0.00  0.00    -0.398 OA
HETATM   40  H   UNK N   1      32.635  14.240   8.016  0.00  0.00     0.209 HD
ENDBRANCH  38  39
ENDBRANCH  36  38
BRANCH  36  41
HETATM   41  O   UNK N   1      35.608  13.021   7.311  0.00  0.00    -0.385 OA
HETATM   42  H   UNK N   1      36.463  12.566   7.351  0.00  0.00     0.210 HD
ENDBRANCH  36  41
ENDBRANCH  35  36
BRANCH  35  43
HETATM   43  O   UNK N   1      33.195  12.015   9.785  0.00  0.00    -0.390 OA
HETATM   44  H   UNK N   1      32.548  12.345  10.429  0.00  0.00     0.210 HD
ENDBRANCH  35  43
ENDBRANCH  34  35
ENDBRANCH  33  34
ENDBRANCH  29  33
ENDBRANCH  28  29
ENDBRANCH  24  28
ENDBRANCH  23  24
ENDBRANCH   1  23
TORSDOF 19
ENDMDL
