MODEL 1
REMARK VINA RESULT:      -8.5      0.000      0.000
REMARK  24 active torsions:
REMARK  status: ('A' for Active; 'I' for Inactive)
REMARK    1  A    between atoms: C_17  and  C_7 
REMARK    2  A    between atoms: N_44  and  C_7 
REMARK    3  A    between atoms: C_18  and  C_8 
REMARK    4  A    between atoms: O_60  and  C_8 
REMARK    5  A    between atoms: C_19  and  C_9 
REMARK    6  A    between atoms: O_61  and  C_9 
REMARK    7  A    between atoms: C_29  and  C_12 
REMARK    8  A    between atoms: C_22  and  C_17 
REMARK    9  A    between atoms: C_17  and  O_47 
REMARK   10  A    between atoms: C_22  and  C_18 
REMARK   11  A    between atoms: C_18  and  O_48 
REMARK   12  A    between atoms: C_22  and  O_49 
REMARK   13  A    between atoms: C_23  and  O_50 
REMARK   14  A    between atoms: C_24  and  O_51 
REMARK   15  A    between atoms: N_32  and  C_25 
REMARK   16  A    between atoms: O_52  and  C_28 
REMARK       I    between atoms: N_46  and  C_29 
REMARK   17  A    between atoms: C_30  and  N_45 
REMARK   18  A    between atoms: O_55  and  C_31 
REMARK   19  A    between atoms: P_64  and  O_56 
REMARK   20  A    between atoms: P_65  and  O_59 
REMARK   21  A    between atoms: P_64  and  O_60 
REMARK   22  A    between atoms: P_65  and  O_61 
REMARK   23  A    between atoms: P_64  and  O_63 
REMARK   24  A    between atoms: P_65  and  O_63 
ROOT
HETATM    1  C   UNK N   1      23.521  20.158   3.423  0.00  0.00     0.215 C 
ENDROOT
BRANCH   1   2
HETATM    2  C   UNK N   1      24.932  19.533   3.404  0.00  0.00     0.173 C 
BRANCH   2   3
HETATM    3  C   UNK N   1      25.240  18.464   4.480  0.00  0.00     0.179 C 
BRANCH   3   4
HETATM    4  C   UNK N   1      25.618  17.032   4.010  0.00  0.00     0.167 C 
BRANCH   4   5
HETATM    5  C   UNK N   1      26.146  16.138   5.165  0.00  0.00     0.165 C 
BRANCH   5   6
HETATM    6  N   UNK N   1      27.626  16.050   5.209  0.00  0.00    -0.327 N 
HETATM    7  C   UNK N   1      28.293  15.200   4.382  0.00  0.00     0.064 A 
HETATM    8  C   UNK N   1      27.568  14.352   3.517  0.00  0.00     0.039 A 
HETATM    9  C   UNK N   1      29.714  15.156   4.384  0.00  0.00     0.070 A 
HETATM   10  C   UNK N   1      28.220  13.469   2.655  0.00  0.00    -0.054 A 
HETATM   11  C   UNK N   1      27.433  12.540   1.799  0.00  0.00     0.049 C 
HETATM   12  C   UNK N   1      29.607  13.455   2.615  0.00  0.00    -0.054 A 
HETATM   13  C   UNK N   1      30.354  12.548   1.695  0.00  0.00     0.049 C 
HETATM   14  C   UNK N   1      30.317  14.286   3.463  0.00  0.00     0.039 A 
HETATM   15  N   UNK N   1      30.469  15.951   5.257  0.00  0.00    -0.273 N 
HETATM   16  C   UNK N   1      29.747  16.693   6.231  0.00  0.00     0.138 A 
HETATM   17  C   UNK N   1      31.895  16.028   5.130  0.00  0.00     0.232 C 
HETATM   18  C   UNK N   1      28.314  16.757   6.147  0.00  0.00     0.143 A 
HETATM   19  C   UNK N   1      30.316  17.367   7.388  0.00  0.00     0.175 A 
HETATM   20  N   UNK N   1      27.606  17.494   7.047  0.00  0.00    -0.306 N 
HETATM   21  C   UNK N   1      28.193  18.155   8.058  0.00  0.00     0.224 A 
ATOM     22  HN  UNK N   1      26.591  17.547   6.950  1.00  0.00     0.171 HD
HETATM   23  N   UNK N   1      29.520  18.068   8.230  0.00  0.00    -0.301 N 
ATOM     24  HN  UNK N   1      29.945  18.547   9.025  1.00  0.00     0.171 HD
HETATM   25  O   UNK N   1      32.517  16.893   5.706  0.00  0.00    -0.272 OA
BRANCH  21  26
HETATM   26  O   UNK N   1      27.448  18.868   8.919  0.00  0.00    -0.332 OA
HETATM   27  H   UNK N   1      27.620  19.780   9.047  0.00  0.00     0.221 HD
ENDBRANCH  21  26
BRANCH  19  28
HETATM   28  O   UNK N   1      31.597  17.258   7.760  0.00  0.00    -0.344 OA
ATOM     29  HO  UNK N   1      32.036  16.428   7.910  1.00  0.00     0.219 HD
ENDBRANCH  19  28
BRANCH  17  30
HETATM   30  C   UNK N   1      32.777  15.210   4.204  0.00  0.00     0.070 C 
HETATM   31  C   UNK N   1      33.668  14.165   4.860  0.00  0.00     0.019 C 
HETATM   32  C   UNK N   1      33.370  15.934   3.005  0.00  0.00     0.019 C 
ENDBRANCH  17  30
ENDBRANCH   5   6
ENDBRANCH   4   5
BRANCH   4  33
HETATM   33  O   UNK N   1      24.546  16.414   3.367  0.00  0.00    -0.391 OA
HETATM   34  H   UNK N   1      23.717  16.097   3.759  0.00  0.00     0.210 HD
ENDBRANCH   4  33
ENDBRANCH   3   4
BRANCH   3  35
HETATM   35  O   UNK N   1      24.114  18.351   5.302  0.00  0.00    -0.390 OA
HETATM   36  H   UNK N   1      24.089  18.124   6.244  0.00  0.00     0.210 HD
ENDBRANCH   3  35
ENDBRANCH   2   3
BRANCH   2  37
HETATM   37  O   UNK N   1      25.954  20.476   3.332  0.00  0.00    -0.391 OA
HETATM   38  H   UNK N   1      26.267  21.382   3.184  0.00  0.00     0.210 HD
ENDBRANCH   2  37
ENDBRANCH   1   2
BRANCH   1  39
HETATM   39  O   UNK N   1      23.025  20.551   2.178  0.00  0.00    -0.294 OA
BRANCH  39  40
HETATM   40  P   UNK N   1      21.276  20.388   2.178  0.00  0.00     0.401 P 
HETATM   41  O   UNK N   1      20.706  21.648   1.473  0.00  0.00    -0.631 OA
BRANCH  40  42
HETATM   42  O   UNK N   1      20.603  20.405   3.780  0.00  0.00    -0.307 OA
HETATM   43  H   UNK N   1      21.090  20.468   4.617  0.00  0.00     0.222 HD
ENDBRANCH  40  42
BRANCH  40  44
HETATM   44  O   UNK N   1      20.664  19.008   1.280  0.00  0.00    -0.195 OA
BRANCH  44  45
HETATM   45  P   UNK N   1      20.278  17.705   2.386  0.00  0.00     0.401 P 
HETATM   46  O   UNK N   1      19.056  18.154   3.229  0.00  0.00    -0.631 OA
BRANCH  45  47
HETATM   47  O   UNK N   1      19.754  16.341   1.454  0.00  0.00    -0.307 OA
HETATM   48  H   UNK N   1      19.124  15.661   1.739  0.00  0.00     0.222 HD
ENDBRANCH  45  47
BRANCH  45  49
HETATM   49  O   UNK N   1      21.623  17.352   3.449  0.00  0.00    -0.294 OA
BRANCH  49  50
HETATM   50  C   UNK N   1      21.193  16.948   4.703  0.00  0.00     0.215 C 
BRANCH  50  51
HETATM   51  C   UNK N   1      21.965  15.739   5.239  0.00  0.00     0.180 C 
HETATM   52  C   UNK N   1      21.222  14.393   5.189  0.00  0.00     0.182 C 
HETATM   53  C   UNK N   1      20.551  14.420   6.523  0.00  0.00     0.198 C 
HETATM   54  C   UNK N   1      21.636  15.057   7.405  0.00  0.00     0.262 C 
HETATM   55  O   UNK N   1      22.304  16.005   6.588  0.00  0.00    -0.353 OA
BRANCH  52  56
HETATM   56  O   UNK N   1      22.152  13.350   5.169  0.00  0.00    -0.390 OA
HETATM   57  H   UNK N   1      22.049  12.388   5.250  0.00  0.00     0.210 HD
ENDBRANCH  52  56
BRANCH  53  58
HETATM   58  O   UNK N   1      20.068  13.180   6.938  0.00  0.00    -0.388 OA
HETATM   59  H   UNK N   1      19.615  12.544   6.363  0.00  0.00     0.210 HD
ENDBRANCH  53  58
BRANCH  54  60
HETATM   60  N   UNK N   1      22.633  14.181   8.009  0.00  0.00    -0.297 N 
HETATM   61  C   UNK N   1      23.901  14.238   7.743  0.00  0.00     0.188 A 
HETATM   62  N   UNK N   1      24.663  13.470   8.682  0.00  0.00    -0.346 N 
HETATM   63  C   UNK N   1      23.819  12.977   9.509  0.00  0.00     0.122 A 
ATOM     64  HN  UNK N   1      25.675  13.341   8.690  1.00  0.00     0.167 HD
HETATM   65  C   UNK N   1      23.985  12.166  10.702  0.00  0.00     0.131 A 
HETATM   66  C   UNK N   1      22.515  13.375   9.149  0.00  0.00     0.142 A 
HETATM   67  N   UNK N   1      22.789  11.786  11.387  0.00  0.00    -0.337 N 
HETATM   68  C   UNK N   1      21.614  12.179  10.968  0.00  0.00     0.183 A 
ATOM     69  HN  UNK N   1      22.852  11.198  12.218  1.00  0.00     0.168 HD
HETATM   70  N   UNK N   1      21.467  13.030   9.812  0.00  0.00    -0.336 N 
ATOM     71  HN  UNK N   1      20.544  13.353   9.522  1.00  0.00     0.168 HD
BRANCH  65  72
HETATM   72  N   UNK N   1      25.141  11.856  11.159  0.00  0.00    -0.383 N 
HETATM   73  H   UNK N   1      25.574  11.011  10.899  0.00  0.00     0.157 HD
ATOM     74  HN  UNK N   1      25.618  12.491  11.798  1.00  0.00     0.157 HD
ENDBRANCH  65  72
ENDBRANCH  54  60
ENDBRANCH  50  51
ENDBRANCH  49  50
ENDBRANCH  45  49
ENDBRANCH  44  45
ENDBRANCH  40  44
ENDBRANCH  39  40
ENDBRANCH   1  39
TORSDOF 24
ENDMDL
MODEL 2
REMARK VINA RESULT:      -8.3      8.783     12.905
REMARK  24 active torsions:
REMARK  status: ('A' for Active; 'I' for Inactive)
REMARK    1  A    between atoms: C_17  and  C_7 
REMARK    2  A    between atoms: N_44  and  C_7 
REMARK    3  A    between atoms: C_18  and  C_8 
REMARK    4  A    between atoms: O_60  and  C_8 
REMARK    5  A    between atoms: C_19  and  C_9 
REMARK    6  A    between atoms: O_61  and  C_9 
REMARK    7  A    between atoms: C_29  and  C_12 
REMARK    8  A    between atoms: C_22  and  C_17 
REMARK    9  A    between atoms: C_17  and  O_47 
REMARK   10  A    between atoms: C_22  and  C_18 
REMARK   11  A    between atoms: C_18  and  O_48 
REMARK   12  A    between atoms: C_22  and  O_49 
REMARK   13  A    between atoms: C_23  and  O_50 
REMARK   14  A    between atoms: C_24  and  O_51 
REMARK   15  A    between atoms: N_32  and  C_25 
REMARK   16  A    between atoms: O_52  and  C_28 
REMARK       I    between atoms: N_46  and  C_29 
REMARK   17  A    between atoms: C_30  and  N_45 
REMARK   18  A    between atoms: O_55  and  C_31 
REMARK   19  A    between atoms: P_64  and  O_56 
REMARK   20  A    between atoms: P_65  and  O_59 
REMARK   21  A    between atoms: P_64  and  O_60 
REMARK   22  A    between atoms: P_65  and  O_61 
REMARK   23  A    between atoms: P_64  and  O_63 
REMARK   24  A    between atoms: P_65  and  O_63 
ROOT
HETATM    1  C   UNK N   1      35.274  15.709   9.280  0.00  0.00     0.215 C 
ENDROOT
BRANCH   1   2
HETATM    2  C   UNK N   1      36.019  15.228  10.543  0.00  0.00     0.173 C 
BRANCH   2   3
HETATM    3  C   UNK N   1      35.149  14.769  11.738  0.00  0.00     0.179 C 
BRANCH   3   4
HETATM    4  C   UNK N   1      35.444  13.381  12.374  0.00  0.00     0.167 C 
BRANCH   4   5
HETATM    5  C   UNK N   1      36.432  13.463  13.570  0.00  0.00     0.165 C 
BRANCH   5   6
HETATM    6  N   UNK N   1      36.420  12.251  14.425  0.00  0.00    -0.327 N 
HETATM    7  C   UNK N   1      36.089  12.337  15.741  0.00  0.00     0.064 A 
HETATM    8  C   UNK N   1      35.812  13.598  16.313  0.00  0.00     0.039 A 
HETATM    9  C   UNK N   1      36.023  11.167  16.547  0.00  0.00     0.070 A 
HETATM   10  C   UNK N   1      35.467  13.722  17.659  0.00  0.00    -0.054 A 
HETATM   11  C   UNK N   1      35.243  15.067  18.254  0.00  0.00     0.049 C 
HETATM   12  C   UNK N   1      35.352  12.582  18.441  0.00  0.00    -0.054 A 
HETATM   13  C   UNK N   1      34.964  12.655  19.880  0.00  0.00     0.049 C 
HETATM   14  C   UNK N   1      35.624  11.346  17.881  0.00  0.00     0.039 A 
HETATM   15  N   UNK N   1      36.331   9.903  16.028  0.00  0.00    -0.273 N 
HETATM   16  C   UNK N   1      36.847   9.864  14.704  0.00  0.00     0.138 A 
HETATM   17  C   UNK N   1      36.093   8.717  16.798  0.00  0.00     0.232 C 
HETATM   18  C   UNK N   1      36.833  11.061  13.909  0.00  0.00     0.143 A 
HETATM   19  C   UNK N   1      37.473   8.718  14.063  0.00  0.00     0.175 A 
HETATM   20  N   UNK N   1      37.287  11.036  12.624  0.00  0.00    -0.306 N 
HETATM   21  C   UNK N   1      37.792   9.928  12.060  0.00  0.00     0.224 A 
ATOM     22  HN  UNK N   1      37.240  11.893  12.070  1.00  0.00     0.171 HD
HETATM   23  N   UNK N   1      37.900   8.802  12.780  0.00  0.00    -0.301 N 
ATOM     24  HN  UNK N   1      38.320   7.979  12.347  1.00  0.00     0.171 HD
HETATM   25  O   UNK N   1      36.118   7.627  16.271  0.00  0.00    -0.272 OA
BRANCH  21  26
HETATM   26  O   UNK N   1      38.226   9.957  10.789  0.00  0.00    -0.332 OA
HETATM   27  H   UNK N   1      38.988   9.472  10.541  0.00  0.00     0.221 HD
ENDBRANCH  21  26
BRANCH  19  28
HETATM   28  O   UNK N   1      37.768   7.578  14.697  0.00  0.00    -0.344 OA
ATOM     29  HO  UNK N   1      37.750   7.477  15.642  1.00  0.00     0.219 HD
ENDBRANCH  19  28
BRANCH  17  30
HETATM   30  C   UNK N   1      35.647   8.641  18.247  0.00  0.00     0.070 C 
HETATM   31  C   UNK N   1      36.702   8.233  19.265  0.00  0.00     0.019 C 
HETATM   32  C   UNK N   1      34.238   8.126  18.504  0.00  0.00     0.019 C 
ENDBRANCH  17  30
ENDBRANCH   5   6
ENDBRANCH   4   5
BRANCH   4  33
HETATM   33  O   UNK N   1      34.265  12.744  12.761  0.00  0.00    -0.391 OA
HETATM   34  H   UNK N   1      33.478  13.140  13.169  0.00  0.00     0.210 HD
ENDBRANCH   4  33
ENDBRANCH   3   4
BRANCH   3  35
HETATM   35  O   UNK N   1      33.816  14.761  11.316  0.00  0.00    -0.390 OA
HETATM   36  H   UNK N   1      33.421  14.223  10.613  0.00  0.00     0.210 HD
ENDBRANCH   3  35
ENDBRANCH   2   3
BRANCH   2  37
HETATM   37  O   UNK N   1      37.019  16.101  10.961  0.00  0.00    -0.391 OA
HETATM   38  H   UNK N   1      37.951  16.362  11.022  0.00  0.00     0.210 HD
ENDBRANCH   2  37
ENDBRANCH   1   2
BRANCH   1  39
HETATM   39  O   UNK N   1      35.101  14.744   8.284  0.00  0.00    -0.294 OA
BRANCH  39  40
HETATM   40  P   UNK N   1      34.750  15.546   6.761  0.00  0.00     0.401 P 
HETATM   41  O   UNK N   1      35.960  15.282   5.825  0.00  0.00    -0.631 OA
BRANCH  40  42
HETATM   42  O   UNK N   1      34.652  17.273   6.922  0.00  0.00    -0.307 OA
HETATM   43  H   UNK N   1      35.361  17.916   6.761  0.00  0.00     0.222 HD
ENDBRANCH  40  42
BRANCH  40  44
HETATM   44  O   UNK N   1      33.337  14.935   5.916  0.00  0.00    -0.195 OA
BRANCH  44  45
HETATM   45  P   UNK N   1      31.899  15.240   6.869  0.00  0.00     0.401 P 
HETATM   46  O   UNK N   1      30.683  14.714   6.063  0.00  0.00    -0.631 OA
BRANCH  45  47
HETATM   47  O   UNK N   1      31.987  14.275   8.306  0.00  0.00    -0.307 OA
HETATM   48  H   UNK N   1      31.343  14.267   9.031  0.00  0.00     0.222 HD
ENDBRANCH  45  47
BRANCH  45  49
HETATM   49  O   UNK N   1      31.695  16.949   7.186  0.00  0.00    -0.294 OA
BRANCH  49  50
HETATM   50  C   UNK N   1      30.894  17.173   8.295  0.00  0.00     0.215 C 
BRANCH  50  51
HETATM   51  C   UNK N   1      29.674  18.045   7.985  0.00  0.00     0.180 C 
HETATM   52  C   UNK N   1      28.340  17.569   8.586  0.00  0.00     0.182 C 
HETATM   53  C   UNK N   1      27.859  16.689   7.478  0.00  0.00     0.198 C 
HETATM   54  C   UNK N   1      28.298  17.482   6.238  0.00  0.00     0.262 C 
HETATM   55  O   UNK N   1      29.529  18.100   6.578  0.00  0.00    -0.353 OA
BRANCH  52  56
HETATM   56  O   UNK N   1      27.473  18.657   8.711  0.00  0.00    -0.390 OA
HETATM   57  H   UNK N   1      27.397  19.486   8.212  0.00  0.00     0.210 HD
ENDBRANCH  52  56
BRANCH  53  58
HETATM   58  O   UNK N   1      26.505  16.369   7.559  0.00  0.00    -0.388 OA
HETATM   59  H   UNK N   1      25.785  16.925   7.221  0.00  0.00     0.210 HD
ENDBRANCH  53  58
BRANCH  54  60
HETATM   60  N   UNK N   1      27.394  18.502   5.718  0.00  0.00    -0.297 N 
HETATM   61  C   UNK N   1      27.765  19.705   5.408  0.00  0.00     0.188 A 
HETATM   62  N   UNK N   1      26.748  20.386   4.662  0.00  0.00    -0.346 N 
HETATM   63  C   UNK N   1      25.784  19.552   4.530  0.00  0.00     0.122 A 
ATOM     64  HN  UNK N   1      26.783  21.342   4.309  1.00  0.00     0.167 HD
HETATM   65  C   UNK N   1      24.514  19.637   3.833  0.00  0.00     0.131 A 
HETATM   66  C   UNK N   1      26.113  18.342   5.174  0.00  0.00     0.142 A 
HETATM   67  N   UNK N   1      23.666  18.488   3.909  0.00  0.00    -0.337 N 
HETATM   68  C   UNK N   1      24.040  17.411   4.551  0.00  0.00     0.183 A 
ATOM     69  HN  UNK N   1      22.754  18.507   3.453  1.00  0.00     0.168 HD
HETATM   70  N   UNK N   1      25.329  17.321   5.194  0.00  0.00    -0.336 N 
ATOM     71  HN  UNK N   1      25.614  16.460   5.661  1.00  0.00     0.168 HD
BRANCH  65  72
HETATM   72  N   UNK N   1      24.189  20.659   3.132  0.00  0.00    -0.383 N 
HETATM   73  H   UNK N   1      24.238  21.566   3.512  0.00  0.00     0.157 HD
ATOM     74  HN  UNK N   1      23.876  20.532   2.170  1.00  0.00     0.157 HD
ENDBRANCH  65  72
ENDBRANCH  54  60
ENDBRANCH  50  51
ENDBRANCH  49  50
ENDBRANCH  45  49
ENDBRANCH  44  45
ENDBRANCH  40  44
ENDBRANCH  39  40
ENDBRANCH   1  39
TORSDOF 24
ENDMDL
MODEL 3
REMARK VINA RESULT:      -8.3      1.284      2.016
REMARK  24 active torsions:
REMARK  status: ('A' for Active; 'I' for Inactive)
REMARK    1  A    between atoms: C_17  and  C_7 
REMARK    2  A    between atoms: N_44  and  C_7 
REMARK    3  A    between atoms: C_18  and  C_8 
REMARK    4  A    between atoms: O_60  and  C_8 
REMARK    5  A    between atoms: C_19  and  C_9 
REMARK    6  A    between atoms: O_61  and  C_9 
REMARK    7  A    between atoms: C_29  and  C_12 
REMARK    8  A    between atoms: C_22  and  C_17 
REMARK    9  A    between atoms: C_17  and  O_47 
REMARK   10  A    between atoms: C_22  and  C_18 
REMARK   11  A    between atoms: C_18  and  O_48 
REMARK   12  A    between atoms: C_22  and  O_49 
REMARK   13  A    between atoms: C_23  and  O_50 
REMARK   14  A    between atoms: C_24  and  O_51 
REMARK   15  A    between atoms: N_32  and  C_25 
REMARK   16  A    between atoms: O_52  and  C_28 
REMARK       I    between atoms: N_46  and  C_29 
REMARK   17  A    between atoms: C_30  and  N_45 
REMARK   18  A    between atoms: O_55  and  C_31 
REMARK   19  A    between atoms: P_64  and  O_56 
REMARK   20  A    between atoms: P_65  and  O_59 
REMARK   21  A    between atoms: P_64  and  O_60 
REMARK   22  A    between atoms: P_65  and  O_61 
REMARK   23  A    between atoms: P_64  and  O_63 
REMARK   24  A    between atoms: P_65  and  O_63 
ROOT
HETATM    1  C   UNK N   1      23.705  19.092   3.612  0.00  0.00     0.215 C 
ENDROOT
BRANCH   1   2
HETATM    2  C   UNK N   1      25.043  19.173   4.378  0.00  0.00     0.173 C 
BRANCH   2   3
HETATM    3  C   UNK N   1      26.316  18.741   3.612  0.00  0.00     0.179 C 
BRANCH   3   4
HETATM    4  C   UNK N   1      26.659  17.226   3.547  0.00  0.00     0.167 C 
BRANCH   4   5
HETATM    5  C   UNK N   1      26.626  16.540   4.940  0.00  0.00     0.165 C 
BRANCH   5   6
HETATM    6  N   UNK N   1      27.975  16.311   5.513  0.00  0.00    -0.327 N 
HETATM    7  C   UNK N   1      28.715  15.236   5.131  0.00  0.00     0.064 A 
HETATM    8  C   UNK N   1      28.173  14.297   4.227  0.00  0.00     0.039 A 
HETATM    9  C   UNK N   1      30.031  15.048   5.638  0.00  0.00     0.070 A 
HETATM   10  C   UNK N   1      28.904  13.184   3.813  0.00  0.00    -0.054 A 
HETATM   11  C   UNK N   1      28.286  12.175   2.910  0.00  0.00     0.049 C 
HETATM   12  C   UNK N   1      30.206  13.018   4.264  0.00  0.00    -0.054 A 
HETATM   13  C   UNK N   1      31.041  11.858   3.834  0.00  0.00     0.049 C 
HETATM   14  C   UNK N   1      30.738  13.938   5.150  0.00  0.00     0.039 A 
HETATM   15  N   UNK N   1      30.590  15.933   6.568  0.00  0.00    -0.273 N 
HETATM   16  C   UNK N   1      29.733  16.942   7.085  0.00  0.00     0.138 A 
HETATM   17  C   UNK N   1      31.973  15.832   6.936  0.00  0.00     0.232 C 
HETATM   18  C   UNK N   1      28.437  17.134   6.495  0.00  0.00     0.143 A 
HETATM   19  C   UNK N   1      30.008  17.793   8.233  0.00  0.00     0.175 A 
HETATM   20  N   UNK N   1      27.615  18.121   6.950  0.00  0.00    -0.306 N 
HETATM   21  C   UNK N   1      27.951  18.924   7.972  0.00  0.00     0.224 A 
ATOM     22  HN  UNK N   1      26.710  18.255   6.496  1.00  0.00     0.171 HD
HETATM   23  N   UNK N   1      29.117  18.741   8.609  0.00  0.00    -0.301 N 
ATOM     24  HN  UNK N   1      29.340  19.337   9.407  1.00  0.00     0.171 HD
HETATM   25  O   UNK N   1      32.516  16.734   7.535  0.00  0.00    -0.272 OA
BRANCH  21  26
HETATM   26  O   UNK N   1      27.104  19.882   8.382  0.00  0.00    -0.332 OA
HETATM   27  H   UNK N   1      26.629  19.779   9.183  0.00  0.00     0.221 HD
ENDBRANCH  21  26
BRANCH  19  28
HETATM   28  O   UNK N   1      31.062  17.636   9.042  0.00  0.00    -0.344 OA
ATOM     29  HO  UNK N   1      31.764  18.271   9.126  1.00  0.00     0.219 HD
ENDBRANCH  19  28
BRANCH  17  30
HETATM   30  C   UNK N   1      32.950  14.743   6.533  0.00  0.00     0.070 C 
HETATM   31  C   UNK N   1      33.293  13.708   7.594  0.00  0.00     0.019 C 
HETATM   32  C   UNK N   1      34.086  15.151   5.606  0.00  0.00     0.019 C 
ENDBRANCH  17  30
ENDBRANCH   5   6
ENDBRANCH   4   5
BRANCH   4  33
HETATM   33  O   UNK N   1      25.820  16.558   2.656  0.00  0.00    -0.391 OA
HETATM   34  H   UNK N   1      25.322  15.738   2.804  0.00  0.00     0.210 HD
ENDBRANCH   4  33
ENDBRANCH   3   4
BRANCH   3  35
HETATM   35  O   UNK N   1      27.407  19.392   4.197  0.00  0.00    -0.390 OA
HETATM   36  H   UNK N   1      27.785  19.238   5.077  0.00  0.00     0.210 HD
ENDBRANCH   3  35
ENDBRANCH   2   3
BRANCH   2  37
HETATM   37  O   UNK N   1      24.996  18.583   5.638  0.00  0.00    -0.391 OA
HETATM   38  H   UNK N   1      25.422  18.298   6.461  0.00  0.00     0.210 HD
ENDBRANCH   2  37
ENDBRANCH   1   2
BRANCH   1  39
HETATM   39  O   UNK N   1      23.320  20.264   2.957  0.00  0.00    -0.294 OA
BRANCH  39  40
HETATM   40  P   UNK N   1      21.582  20.237   2.703  0.00  0.00     0.401 P 
HETATM   41  O   UNK N   1      21.181  21.644   2.183  0.00  0.00    -0.631 OA
BRANCH  40  42
HETATM   42  O   UNK N   1      20.694  20.015   4.180  0.00  0.00    -0.307 OA
HETATM   43  H   UNK N   1      19.780  20.287   4.359  0.00  0.00     0.222 HD
ENDBRANCH  40  42
BRANCH  40  44
HETATM   44  O   UNK N   1      21.032  19.093   1.490  0.00  0.00    -0.195 OA
BRANCH  44  45
HETATM   45  P   UNK N   1      19.833  18.023   2.185  0.00  0.00     0.401 P 
HETATM   46  O   UNK N   1      18.688  18.905   2.749  0.00  0.00    -0.631 OA
BRANCH  45  47
HETATM   47  O   UNK N   1      19.139  17.083   0.905  0.00  0.00    -0.307 OA
HETATM   48  H   UNK N   1      18.378  16.486   0.980  0.00  0.00     0.222 HD
ENDBRANCH  45  47
BRANCH  45  49
HETATM   49  O   UNK N   1      20.513  17.055   3.475  0.00  0.00    -0.294 OA
BRANCH  49  50
HETATM   50  C   UNK N   1      19.527  16.502   4.277  0.00  0.00     0.215 C 
BRANCH  50  51
HETATM   51  C   UNK N   1      19.945  16.385   5.745  0.00  0.00     0.180 C 
HETATM   52  C   UNK N   1      21.249  17.104   6.130  0.00  0.00     0.182 C 
HETATM   53  C   UNK N   1      22.232  16.008   5.874  0.00  0.00     0.198 C 
HETATM   54  C   UNK N   1      21.458  14.775   6.364  0.00  0.00     0.262 C 
HETATM   55  O   UNK N   1      20.096  15.009   6.043  0.00  0.00    -0.353 OA
BRANCH  52  56
HETATM   56  O   UNK N   1      21.235  17.391   7.497  0.00  0.00    -0.390 OA
HETATM   57  H   UNK N   1      20.634  17.926   8.040  0.00  0.00     0.210 HD
ENDBRANCH  52  56
BRANCH  53  58
HETATM   58  O   UNK N   1      23.481  16.222   6.453  0.00  0.00    -0.388 OA
HETATM   59  H   UNK N   1      24.169  15.544   6.549  0.00  0.00     0.210 HD
ENDBRANCH  53  58
BRANCH  54  60
HETATM   60  N   UNK N   1      21.548  14.422   7.777  0.00  0.00    -0.297 N 
HETATM   61  C   UNK N   1      20.524  14.352   8.570  0.00  0.00     0.188 A 
HETATM   62  N   UNK N   1      20.869  13.712   9.805  0.00  0.00    -0.346 N 
HETATM   63  C   UNK N   1      22.107  13.397   9.711  0.00  0.00     0.122 A 
ATOM     64  HN  UNK N   1      20.253  13.542  10.600  1.00  0.00     0.167 HD
HETATM   65  C   UNK N   1      23.000  12.686  10.607  0.00  0.00     0.131 A 
HETATM   66  C   UNK N   1      22.609  13.817   8.462  0.00  0.00     0.142 A 
HETATM   67  N   UNK N   1      24.350  12.520  10.164  0.00  0.00    -0.337 N 
HETATM   68  C   UNK N   1      24.739  12.965   8.997  0.00  0.00     0.183 A 
ATOM     69  HN  UNK N   1      25.021  12.046  10.768  1.00  0.00     0.168 HD
HETATM   70  N   UNK N   1      23.827  13.623   8.093  0.00  0.00    -0.336 N 
ATOM     71  HN  UNK N   1      24.143  13.931   7.174  1.00  0.00     0.168 HD
BRANCH  65  72
HETATM   72  N   UNK N   1      22.594  12.175  11.709  0.00  0.00    -0.383 N 
HETATM   73  H   UNK N   1      21.673  12.325  12.024  0.00  0.00     0.157 HD
ATOM     74  HN  UNK N   1      23.231  11.606  12.267  1.00  0.00     0.157 HD
ENDBRANCH  65  72
ENDBRANCH  54  60
ENDBRANCH  50  51
ENDBRANCH  49  50
ENDBRANCH  45  49
ENDBRANCH  44  45
ENDBRANCH  40  44
ENDBRANCH  39  40
ENDBRANCH   1  39
TORSDOF 24
ENDMDL
MODEL 4
REMARK VINA RESULT:      -8.3      7.006     11.601
REMARK  24 active torsions:
REMARK  status: ('A' for Active; 'I' for Inactive)
REMARK    1  A    between atoms: C_17  and  C_7 
REMARK    2  A    between atoms: N_44  and  C_7 
REMARK    3  A    between atoms: C_18  and  C_8 
REMARK    4  A    between atoms: O_60  and  C_8 
REMARK    5  A    between atoms: C_19  and  C_9 
REMARK    6  A    between atoms: O_61  and  C_9 
REMARK    7  A    between atoms: C_29  and  C_12 
REMARK    8  A    between atoms: C_22  and  C_17 
REMARK    9  A    between atoms: C_17  and  O_47 
REMARK   10  A    between atoms: C_22  and  C_18 
REMARK   11  A    between atoms: C_18  and  O_48 
REMARK   12  A    between atoms: C_22  and  O_49 
REMARK   13  A    between atoms: C_23  and  O_50 
REMARK   14  A    between atoms: C_24  and  O_51 
REMARK   15  A    between atoms: N_32  and  C_25 
REMARK   16  A    between atoms: O_52  and  C_28 
REMARK       I    between atoms: N_46  and  C_29 
REMARK   17  A    between atoms: C_30  and  N_45 
REMARK   18  A    between atoms: O_55  and  C_31 
REMARK   19  A    between atoms: P_64  and  O_56 
REMARK   20  A    between atoms: P_65  and  O_59 
REMARK   21  A    between atoms: P_64  and  O_60 
REMARK   22  A    between atoms: P_65  and  O_61 
REMARK   23  A    between atoms: P_64  and  O_63 
REMARK   24  A    between atoms: P_65  and  O_63 
ROOT
HETATM    1  C   UNK N   1      33.483  16.687   5.531  0.00  0.00     0.215 C 
ENDROOT
BRANCH   1   2
HETATM    2  C   UNK N   1      32.035  16.166   5.649  0.00  0.00     0.173 C 
BRANCH   2   3
HETATM    3  C   UNK N   1      30.900  17.186   5.390  0.00  0.00     0.179 C 
BRANCH   3   4
HETATM    4  C   UNK N   1      29.458  16.646   5.178  0.00  0.00     0.167 C 
BRANCH   4   5
HETATM    5  C   UNK N   1      28.960  16.815   3.717  0.00  0.00     0.165 C 
BRANCH   5   6
HETATM    6  N   UNK N   1      27.491  16.663   3.576  0.00  0.00    -0.327 N 
HETATM    7  C   UNK N   1      26.962  15.535   3.030  0.00  0.00     0.064 A 
HETATM    8  C   UNK N   1      27.818  14.527   2.538  0.00  0.00     0.039 A 
HETATM    9  C   UNK N   1      25.552  15.365   2.948  0.00  0.00     0.070 A 
HETATM   10  C   UNK N   1      27.310  13.357   1.973  0.00  0.00    -0.054 A 
HETATM   11  C   UNK N   1      28.233  12.338   1.403  0.00  0.00     0.049 C 
HETATM   12  C   UNK N   1      25.937  13.160   1.933  0.00  0.00    -0.054 A 
HETATM   13  C   UNK N   1      25.341  11.917   1.361  0.00  0.00     0.049 C 
HETATM   14  C   UNK N   1      25.097  14.149   2.415  0.00  0.00     0.039 A 
HETATM   15  N   UNK N   1      24.668  16.359   3.387  0.00  0.00    -0.273 N 
HETATM   16  C   UNK N   1      25.245  17.596   3.784  0.00  0.00     0.138 A 
HETATM   17  C   UNK N   1      23.259  16.106   3.461  0.00  0.00     0.232 C 
HETATM   18  C   UNK N   1      26.672  17.697   3.913  0.00  0.00     0.143 A 
HETATM   19  C   UNK N   1      24.526  18.839   4.020  0.00  0.00     0.175 A 
HETATM   20  N   UNK N   1      27.243  18.862   4.330  0.00  0.00    -0.306 N 
HETATM   21  C   UNK N   1      26.520  19.961   4.602  0.00  0.00     0.224 A 
ATOM     22  HN  UNK N   1      28.257  18.901   4.441  1.00  0.00     0.171 HD
HETATM   23  N   UNK N   1      25.191  19.947   4.425  0.00  0.00    -0.301 N 
ATOM     24  HN  UNK N   1      24.662  20.801   4.601  1.00  0.00     0.171 HD
HETATM   25  O   UNK N   1      22.531  16.859   4.067  0.00  0.00    -0.272 OA
BRANCH  21  26
HETATM   26  O   UNK N   1      27.132  21.085   5.010  0.00  0.00    -0.332 OA
HETATM   27  H   UNK N   1      27.763  21.504   4.459  0.00  0.00     0.221 HD
ENDBRANCH  21  26
BRANCH  19  28
HETATM   28  O   UNK N   1      23.225  19.009   3.757  0.00  0.00    -0.344 OA
ATOM     29  HO  UNK N   1      22.675  18.347   3.354  1.00  0.00     0.219 HD
ENDBRANCH  19  28
BRANCH  17  30
HETATM   30  C   UNK N   1      22.524  14.872   2.970  0.00  0.00     0.070 C 
HETATM   31  C   UNK N   1      21.708  15.025   1.695  0.00  0.00     0.019 C 
HETATM   32  C   UNK N   1      21.933  13.958   4.034  0.00  0.00     0.019 C 
ENDBRANCH  17  30
ENDBRANCH   5   6
ENDBRANCH   4   5
BRANCH   4  33
HETATM   33  O   UNK N   1      29.356  15.314   5.576  0.00  0.00    -0.391 OA
HETATM   34  H   UNK N   1      29.857  14.858   6.270  0.00  0.00     0.210 HD
ENDBRANCH   4  33
ENDBRANCH   3   4
BRANCH   3  35
HETATM   35  O   UNK N   1      31.242  17.923   4.252  0.00  0.00    -0.390 OA
HETATM   36  H   UNK N   1      30.650  18.430   3.675  0.00  0.00     0.210 HD
ENDBRANCH   3  35
ENDBRANCH   2   3
BRANCH   2  37
HETATM   37  O   UNK N   1      31.800  15.445   6.816  0.00  0.00    -0.391 OA
HETATM   38  H   UNK N   1      31.569  15.400   7.757  0.00  0.00     0.210 HD
ENDBRANCH   2  37
ENDBRANCH   1   2
BRANCH   1  39
HETATM   39  O   UNK N   1      33.718  17.937   6.109  0.00  0.00    -0.294 OA
BRANCH  39  40
HETATM   40  P   UNK N   1      34.183  17.717   7.789  0.00  0.00     0.401 P 
HETATM   41  O   UNK N   1      32.876  17.744   8.625  0.00  0.00    -0.631 OA
BRANCH  40  42
HETATM   42  O   UNK N   1      35.151  19.028   8.392  0.00  0.00    -0.307 OA
HETATM   43  H   UNK N   1      35.687  19.034   9.200  0.00  0.00     0.222 HD
ENDBRANCH  40  42
BRANCH  40  44
HETATM   44  O   UNK N   1      34.958  16.181   8.143  0.00  0.00    -0.195 OA
BRANCH  44  45
HETATM   45  P   UNK N   1      34.934  15.890   9.870  0.00  0.00     0.401 P 
HETATM   46  O   UNK N   1      35.433  17.182  10.569  0.00  0.00    -0.631 OA
BRANCH  45  47
HETATM   47  O   UNK N   1      33.286  15.675  10.360  0.00  0.00    -0.307 OA
HETATM   48  H   UNK N   1      32.500  15.962   9.868  0.00  0.00     0.222 HD
ENDBRANCH  45  47
BRANCH  45  49
HETATM   49  O   UNK N   1      35.974  14.552  10.305  0.00  0.00    -0.294 OA
BRANCH  49  50
HETATM   50  C   UNK N   1      35.327  13.648  11.134  0.00  0.00     0.215 C 
BRANCH  50  51
HETATM   51  C   UNK N   1      35.954  13.559  12.527  0.00  0.00     0.180 C 
HETATM   52  C   UNK N   1      36.778  12.292  12.813  0.00  0.00     0.182 C 
HETATM   53  C   UNK N   1      35.705  11.405  13.357  0.00  0.00     0.198 C 
HETATM   54  C   UNK N   1      34.870  12.396  14.182  0.00  0.00     0.262 C 
HETATM   55  O   UNK N   1      34.906  13.627  13.478  0.00  0.00    -0.353 OA
BRANCH  52  56
HETATM   56  O   UNK N   1      37.703  12.558  13.825  0.00  0.00    -0.390 OA
HETATM   57  H   UNK N   1      37.633  12.524  14.793  0.00  0.00     0.210 HD
ENDBRANCH  52  56
BRANCH  53  58
HETATM   58  O   UNK N   1      36.186  10.288  14.036  0.00  0.00    -0.388 OA
HETATM   59  H   UNK N   1      36.897  10.307  14.697  0.00  0.00     0.210 HD
ENDBRANCH  53  58
BRANCH  54  60
HETATM   60  N   UNK N   1      35.263  12.641  15.565  0.00  0.00    -0.297 N 
HETATM   61  C   UNK N   1      35.516  13.819  16.046  0.00  0.00     0.188 A 
HETATM   62  N   UNK N   1      35.590  13.789  17.477  0.00  0.00    -0.346 N 
HETATM   63  C   UNK N   1      35.361  12.577  17.822  0.00  0.00     0.122 A 
ATOM     64  HN  UNK N   1      35.787  14.575  18.097  1.00  0.00     0.167 HD
HETATM   65  C   UNK N   1      35.248  11.940  19.121  0.00  0.00     0.131 A 
HETATM   66  C   UNK N   1      35.150  11.789  16.672  0.00  0.00     0.142 A 
HETATM   67  N   UNK N   1      34.985  10.534  19.122  0.00  0.00    -0.337 N 
HETATM   68  C   UNK N   1      34.828   9.873  18.005  0.00  0.00     0.183 A 
ATOM     69  HN  UNK N   1      34.919  10.038  20.011  1.00  0.00     0.168 HD
HETATM   70  N   UNK N   1      34.890  10.529  16.721  0.00  0.00    -0.336 N 
ATOM     71  HN  UNK N   1      34.731  10.001  15.863  1.00  0.00     0.168 HD
BRANCH  65  72
HETATM   72  N   UNK N   1      35.314  12.605  20.214  0.00  0.00    -0.383 N 
HETATM   73  H   UNK N   1      34.495  12.915  20.665  0.00  0.00     0.157 HD
ATOM     74  HN  UNK N   1      36.224  12.817  20.622  1.00  0.00     0.157 HD
ENDBRANCH  65  72
ENDBRANCH  54  60
ENDBRANCH  50  51
ENDBRANCH  49  50
ENDBRANCH  45  49
ENDBRANCH  44  45
ENDBRANCH  40  44
ENDBRANCH  39  40
ENDBRANCH   1  39
TORSDOF 24
ENDMDL
MODEL 5
REMARK VINA RESULT:      -8.3      9.466     13.388
REMARK  24 active torsions:
REMARK  status: ('A' for Active; 'I' for Inactive)
REMARK    1  A    between atoms: C_17  and  C_7 
REMARK    2  A    between atoms: N_44  and  C_7 
REMARK    3  A    between atoms: C_18  and  C_8 
REMARK    4  A    between atoms: O_60  and  C_8 
REMARK    5  A    between atoms: C_19  and  C_9 
REMARK    6  A    between atoms: O_61  and  C_9 
REMARK    7  A    between atoms: C_29  and  C_12 
REMARK    8  A    between atoms: C_22  and  C_17 
REMARK    9  A    between atoms: C_17  and  O_47 
REMARK   10  A    between atoms: C_22  and  C_18 
REMARK   11  A    between atoms: C_18  and  O_48 
REMARK   12  A    between atoms: C_22  and  O_49 
REMARK   13  A    between atoms: C_23  and  O_50 
REMARK   14  A    between atoms: C_24  and  O_51 
REMARK   15  A    between atoms: N_32  and  C_25 
REMARK   16  A    between atoms: O_52  and  C_28 
REMARK       I    between atoms: N_46  and  C_29 
REMARK   17  A    between atoms: C_30  and  N_45 
REMARK   18  A    between atoms: O_55  and  C_31 
REMARK   19  A    between atoms: P_64  and  O_56 
REMARK   20  A    between atoms: P_65  and  O_59 
REMARK   21  A    between atoms: P_64  and  O_60 
REMARK   22  A    between atoms: P_65  and  O_61 
REMARK   23  A    between atoms: P_64  and  O_63 
REMARK   24  A    between atoms: P_65  and  O_63 
ROOT
HETATM    1  C   UNK N   1      36.093  13.846  10.281  0.00  0.00     0.215 C 
ENDROOT
BRANCH   1   2
HETATM    2  C   UNK N   1      36.705  13.367  11.614  0.00  0.00     0.173 C 
BRANCH   2   3
HETATM    3  C   UNK N   1      36.296  14.139  12.891  0.00  0.00     0.179 C 
BRANCH   3   4
HETATM    4  C   UNK N   1      36.455  13.429  14.265  0.00  0.00     0.167 C 
BRANCH   4   5
HETATM    5  C   UNK N   1      35.195  12.618  14.673  0.00  0.00     0.165 C 
BRANCH   5   6
HETATM    6  N   UNK N   1      35.452  11.648  15.766  0.00  0.00    -0.327 N 
HETATM    7  C   UNK N   1      35.562  10.318  15.498  0.00  0.00     0.064 A 
HETATM    8  C   UNK N   1      35.371   9.851  14.180  0.00  0.00     0.039 A 
HETATM    9  C   UNK N   1      35.863   9.395  16.537  0.00  0.00     0.070 A 
HETATM   10  C   UNK N   1      35.478   8.495  13.870  0.00  0.00    -0.054 A 
HETATM   11  C   UNK N   1      35.209   8.019  12.486  0.00  0.00     0.049 C 
HETATM   12  C   UNK N   1      35.821   7.593  14.868  0.00  0.00    -0.054 A 
HETATM   13  C   UNK N   1      35.971   6.135  14.586  0.00  0.00     0.049 C 
HETATM   14  C   UNK N   1      36.006   8.051  16.160  0.00  0.00     0.039 A 
HETATM   15  N   UNK N   1      36.018   9.813  17.866  0.00  0.00    -0.273 N 
HETATM   16  C   UNK N   1      35.721  11.175  18.145  0.00  0.00     0.138 A 
HETATM   17  C   UNK N   1      36.493   8.905  18.869  0.00  0.00     0.232 C 
HETATM   18  C   UNK N   1      35.485  12.082  17.056  0.00  0.00     0.143 A 
HETATM   19  C   UNK N   1      35.557  11.761  19.467  0.00  0.00     0.175 A 
HETATM   20  N   UNK N   1      35.237  13.399  17.301  0.00  0.00    -0.306 N 
HETATM   21  C   UNK N   1      35.166  13.899  18.545  0.00  0.00     0.224 A 
ATOM     22  HN  UNK N   1      35.101  14.029  16.509  1.00  0.00     0.171 HD
HETATM   23  N   UNK N   1      35.301  13.084  19.601  0.00  0.00    -0.301 N 
ATOM     24  HN  UNK N   1      35.208  13.475  20.539  1.00  0.00     0.171 HD
HETATM   25  O   UNK N   1      36.864   9.318  19.945  0.00  0.00    -0.272 OA
BRANCH  21  26
HETATM   26  O   UNK N   1      34.918  15.206  18.732  0.00  0.00    -0.332 OA
HETATM   27  H   UNK N   1      35.572  15.843  18.524  0.00  0.00     0.221 HD
ENDBRANCH  21  26
BRANCH  19  28
HETATM   28  O   UNK N   1      35.532  11.049  20.600  0.00  0.00    -0.344 OA
ATOM     29  HO  UNK N   1      35.271  10.137  20.648  1.00  0.00     0.219 HD
ENDBRANCH  19  28
BRANCH  17  30
HETATM   30  C   UNK N   1      36.741   7.416  18.712  0.00  0.00     0.070 C 
HETATM   31  C   UNK N   1      35.718   6.484  19.344  0.00  0.00     0.019 C 
HETATM   32  C   UNK N   1      38.190   6.954  18.767  0.00  0.00     0.019 C 
ENDBRANCH  17  30
ENDBRANCH   5   6
ENDBRANCH   4   5
BRANCH   4  33
HETATM   33  O   UNK N   1      37.586  12.614  14.282  0.00  0.00    -0.391 OA
HETATM   34  H   UNK N   1      37.902  12.046  15.002  0.00  0.00     0.210 HD
ENDBRANCH   4  33
ENDBRANCH   3   4
BRANCH   3  35
HETATM   35  O   UNK N   1      34.951  14.498  12.759  0.00  0.00    -0.390 OA
HETATM   36  H   UNK N   1      34.591  15.360  12.498  0.00  0.00     0.210 HD
ENDBRANCH   3  35
ENDBRANCH   2   3
BRANCH   2  37
HETATM   37  O   UNK N   1      38.085  13.191  11.558  0.00  0.00    -0.391 OA
HETATM   38  H   UNK N   1      38.918  12.874  11.938  0.00  0.00     0.210 HD
ENDBRANCH   2  37
ENDBRANCH   1   2
BRANCH   1  39
HETATM   39  O   UNK N   1      36.379  15.169   9.934  0.00  0.00    -0.294 OA
BRANCH  39  40
HETATM   40  P   UNK N   1      34.886  15.984   9.495  0.00  0.00     0.401 P 
HETATM   41  O   UNK N   1      35.131  17.505   9.685  0.00  0.00    -0.631 OA
BRANCH  40  42
HETATM   42  O   UNK N   1      33.570  15.588  10.559  0.00  0.00    -0.307 OA
HETATM   43  H   UNK N   1      33.110  16.188  11.168  0.00  0.00     0.222 HD
ENDBRANCH  40  42
BRANCH  40  44
HETATM   44  O   UNK N   1      34.395  15.773   7.822  0.00  0.00    -0.195 OA
BRANCH  44  45
HETATM   45  P   UNK N   1      33.414  17.133   7.317  0.00  0.00     0.401 P 
HETATM   46  O   UNK N   1      34.373  18.312   7.004  0.00  0.00    -0.631 OA
BRANCH  45  47
HETATM   47  O   UNK N   1      32.646  16.719   5.819  0.00  0.00    -0.307 OA
HETATM   48  H   UNK N   1      32.827  17.118   4.953  0.00  0.00     0.222 HD
ENDBRANCH  45  47
BRANCH  45  49
HETATM   49  O   UNK N   1      32.291  17.611   8.571  0.00  0.00    -0.294 OA
BRANCH  49  50
HETATM   50  C   UNK N   1      31.075  16.957   8.447  0.00  0.00     0.215 C 
BRANCH  50  51
HETATM   51  C   UNK N   1      29.929  17.896   8.060  0.00  0.00     0.180 C 
HETATM   52  C   UNK N   1      28.564  17.588   8.699  0.00  0.00     0.182 C 
HETATM   53  C   UNK N   1      28.004  16.657   7.673  0.00  0.00     0.198 C 
HETATM   54  C   UNK N   1      28.500  17.297   6.368  0.00  0.00     0.262 C 
HETATM   55  O   UNK N   1      29.780  17.839   6.652  0.00  0.00    -0.353 OA
BRANCH  52  56
HETATM   56  O   UNK N   1      27.791  18.751   8.726  0.00  0.00    -0.390 OA
HETATM   57  H   UNK N   1      27.017  19.002   9.255  0.00  0.00     0.210 HD
ENDBRANCH  52  56
BRANCH  53  58
HETATM   58  O   UNK N   1      26.629  16.458   7.781  0.00  0.00    -0.388 OA
HETATM   59  H   UNK N   1      25.986  16.665   7.084  0.00  0.00     0.210 HD
ENDBRANCH  53  58
BRANCH  54  60
HETATM   60  N   UNK N   1      27.680  18.339   5.758  0.00  0.00    -0.297 N 
HETATM   61  C   UNK N   1      28.149  19.472   5.337  0.00  0.00     0.188 A 
HETATM   62  N   UNK N   1      27.184  20.165   4.535  0.00  0.00    -0.346 N 
HETATM   63  C   UNK N   1      26.152  19.409   4.484  0.00  0.00     0.122 A 
ATOM     64  HN  UNK N   1      27.297  21.078   4.094  1.00  0.00     0.167 HD
HETATM   65  C   UNK N   1      24.886  19.538   3.787  0.00  0.00     0.131 A 
HETATM   66  C   UNK N   1      26.384  18.239   5.236  0.00  0.00     0.142 A 
HETATM   67  N   UNK N   1      23.944  18.477   3.971  0.00  0.00    -0.337 N 
HETATM   68  C   UNK N   1      24.233  17.437   4.709  0.00  0.00     0.183 A 
ATOM     69  HN  UNK N   1      23.032  18.532   3.519  1.00  0.00     0.168 HD
HETATM   70  N   UNK N   1      25.516  17.296   5.354  0.00  0.00    -0.336 N 
ATOM     71  HN  UNK N   1      25.733  16.460   5.897  1.00  0.00     0.168 HD
BRANCH  65  72
HETATM   72  N   UNK N   1      24.641  20.515   2.995  0.00  0.00    -0.383 N 
HETATM   73  H   UNK N   1      24.518  20.361   2.030  0.00  0.00     0.157 HD
ATOM     74  HN  UNK N   1      24.571  21.461   3.367  1.00  0.00     0.157 HD
ENDBRANCH  65  72
ENDBRANCH  54  60
ENDBRANCH  50  51
ENDBRANCH  49  50
ENDBRANCH  45  49
ENDBRANCH  44  45
ENDBRANCH  40  44
ENDBRANCH  39  40
ENDBRANCH   1  39
TORSDOF 24
ENDMDL
MODEL 6
REMARK VINA RESULT:      -8.2      1.226      1.772
REMARK  24 active torsions:
REMARK  status: ('A' for Active; 'I' for Inactive)
REMARK    1  A    between atoms: C_17  and  C_7 
REMARK    2  A    between atoms: N_44  and  C_7 
REMARK    3  A    between atoms: C_18  and  C_8 
REMARK    4  A    between atoms: O_60  and  C_8 
REMARK    5  A    between atoms: C_19  and  C_9 
REMARK    6  A    between atoms: O_61  and  C_9 
REMARK    7  A    between atoms: C_29  and  C_12 
REMARK    8  A    between atoms: C_22  and  C_17 
REMARK    9  A    between atoms: C_17  and  O_47 
REMARK   10  A    between atoms: C_22  and  C_18 
REMARK   11  A    between atoms: C_18  and  O_48 
REMARK   12  A    between atoms: C_22  and  O_49 
REMARK   13  A    between atoms: C_23  and  O_50 
REMARK   14  A    between atoms: C_24  and  O_51 
REMARK   15  A    between atoms: N_32  and  C_25 
REMARK   16  A    between atoms: O_52  and  C_28 
REMARK       I    between atoms: N_46  and  C_29 
REMARK   17  A    between atoms: C_30  and  N_45 
REMARK   18  A    between atoms: O_55  and  C_31 
REMARK   19  A    between atoms: P_64  and  O_56 
REMARK   20  A    between atoms: P_65  and  O_59 
REMARK   21  A    between atoms: P_64  and  O_60 
REMARK   22  A    between atoms: P_65  and  O_61 
REMARK   23  A    between atoms: P_64  and  O_63 
REMARK   24  A    between atoms: P_65  and  O_63 
ROOT
HETATM    1  C   UNK N   1      23.470  20.097   3.434  0.00  0.00     0.215 C 
ENDROOT
BRANCH   1   2
HETATM    2  C   UNK N   1      24.753  19.238   3.431  0.00  0.00     0.173 C 
BRANCH   2   3
HETATM    3  C   UNK N   1      24.952  18.270   4.622  0.00  0.00     0.179 C 
BRANCH   3   4
HETATM    4  C   UNK N   1      25.230  16.772   4.316  0.00  0.00     0.167 C 
BRANCH   4   5
HETATM    5  C   UNK N   1      25.875  16.022   5.513  0.00  0.00     0.165 C 
BRANCH   5   6
HETATM    6  N   UNK N   1      27.356  15.961   5.437  0.00  0.00    -0.327 N 
HETATM    7  C   UNK N   1      27.968  15.178   4.509  0.00  0.00     0.064 A 
HETATM    8  C   UNK N   1      27.192  14.371   3.649  0.00  0.00     0.039 A 
HETATM    9  C   UNK N   1      29.386  15.163   4.399  0.00  0.00     0.070 A 
HETATM   10  C   UNK N   1      27.787  13.558   2.685  0.00  0.00    -0.054 A 
HETATM   11  C   UNK N   1      26.951  12.669   1.834  0.00  0.00     0.049 C 
HETATM   12  C   UNK N   1      29.167  13.575   2.538  0.00  0.00    -0.054 A 
HETATM   13  C   UNK N   1      29.854  12.743   1.507  0.00  0.00     0.049 C 
HETATM   14  C   UNK N   1      29.929  14.365   3.381  0.00  0.00     0.039 A 
HETATM   15  N   UNK N   1      30.195  15.917   5.261  0.00  0.00    -0.273 N 
HETATM   16  C   UNK N   1      29.540  16.581   6.333  0.00  0.00     0.138 A 
HETATM   17  C   UNK N   1      31.605  16.030   5.029  0.00  0.00     0.232 C 
HETATM   18  C   UNK N   1      28.104  16.622   6.363  0.00  0.00     0.143 A 
HETATM   19  C   UNK N   1      30.187  17.193   7.484  0.00  0.00     0.175 A 
HETATM   20  N   UNK N   1      27.456  17.286   7.361  0.00  0.00    -0.306 N 
HETATM   21  C   UNK N   1      28.111  17.894   8.364  0.00  0.00     0.224 A 
ATOM     22  HN  UNK N   1      26.436  17.324   7.345  1.00  0.00     0.171 HD
HETATM   23  N   UNK N   1      29.448  17.824   8.428  0.00  0.00    -0.301 N 
ATOM     24  HN  UNK N   1      29.926  18.260   9.216  1.00  0.00     0.171 HD
HETATM   25  O   UNK N   1      32.257  16.869   5.610  0.00  0.00    -0.272 OA
BRANCH  21  26
HETATM   26  O   UNK N   1      27.425  18.536   9.323  0.00  0.00    -0.332 OA
HETATM   27  H   UNK N   1      27.056  18.057  10.039  0.00  0.00     0.221 HD
ENDBRANCH  21  26
BRANCH  19  28
HETATM   28  O   UNK N   1      31.494  17.086   7.748  0.00  0.00    -0.344 OA
ATOM     29  HO  UNK N   1      32.075  16.473   7.312  1.00  0.00     0.219 HD
ENDBRANCH  19  28
BRANCH  17  30
HETATM   30  C   UNK N   1      32.425  15.290   3.988  0.00  0.00     0.070 C 
HETATM   31  C   UNK N   1      33.223  14.090   4.476  0.00  0.00     0.019 C 
HETATM   32  C   UNK N   1      33.082  16.134   2.907  0.00  0.00     0.019 C 
ENDBRANCH  17  30
ENDBRANCH   5   6
ENDBRANCH   4   5
BRANCH   4  33
HETATM   33  O   UNK N   1      24.069  16.119   3.902  0.00  0.00    -0.391 OA
HETATM   34  H   UNK N   1      23.981  15.428   3.227  0.00  0.00     0.210 HD
ENDBRANCH   4  33
ENDBRANCH   3   4
BRANCH   3  35
HETATM   35  O   UNK N   1      23.801  18.329   5.414  0.00  0.00    -0.390 OA
HETATM   36  H   UNK N   1      23.657  18.862   6.211  0.00  0.00     0.210 HD
ENDBRANCH   3  35
ENDBRANCH   2   3
BRANCH   2  37
HETATM   37  O   UNK N   1      25.910  19.973   3.188  0.00  0.00    -0.391 OA
HETATM   38  H   UNK N   1      26.717  20.415   3.493  0.00  0.00     0.210 HD
ENDBRANCH   2  37
ENDBRANCH   1   2
BRANCH   1  39
HETATM   39  O   UNK N   1      23.069  20.575   2.184  0.00  0.00    -0.294 OA
BRANCH  39  40
HETATM   40  P   UNK N   1      21.320  20.461   2.059  0.00  0.00     0.401 P 
HETATM   41  O   UNK N   1      20.846  21.695   1.245  0.00  0.00    -0.631 OA
BRANCH  40  42
HETATM   42  O   UNK N   1      20.530  20.588   3.601  0.00  0.00    -0.307 OA
HETATM   43  H   UNK N   1      20.784  21.161   4.343  0.00  0.00     0.222 HD
ENDBRANCH  40  42
BRANCH  40  44
HETATM   44  O   UNK N   1      20.734  19.050   1.194  0.00  0.00    -0.195 OA
BRANCH  44  45
HETATM   45  P   UNK N   1      20.136  17.863   2.334  0.00  0.00     0.401 P 
HETATM   46  O   UNK N   1      18.845  18.437   2.973  0.00  0.00    -0.631 OA
BRANCH  45  47
HETATM   47  O   UNK N   1      19.655  16.454   1.445  0.00  0.00    -0.307 OA
HETATM   48  H   UNK N   1      20.227  15.712   1.195  0.00  0.00     0.222 HD
ENDBRANCH  45  47
BRANCH  45  49
HETATM   49  O   UNK N   1      21.312  17.532   3.586  0.00  0.00    -0.294 OA
BRANCH  49  50
HETATM   50  C   UNK N   1      20.705  17.293   4.810  0.00  0.00     0.215 C 
BRANCH  50  51
HETATM   51  C   UNK N   1      20.940  15.871   5.325  0.00  0.00     0.180 C 
HETATM   52  C   UNK N   1      19.816  15.275   6.189  0.00  0.00     0.182 C 
HETATM   53  C   UNK N   1      20.265  15.725   7.541  0.00  0.00     0.198 C 
HETATM   54  C   UNK N   1      21.788  15.560   7.435  0.00  0.00     0.262 C 
HETATM   55  O   UNK N   1      22.129  15.882   6.096  0.00  0.00    -0.353 OA
BRANCH  52  56
HETATM   56  O   UNK N   1      19.874  13.881   6.131  0.00  0.00    -0.390 OA
HETATM   57  H   UNK N   1      19.471  13.240   5.524  0.00  0.00     0.210 HD
ENDBRANCH  52  56
BRANCH  53  58
HETATM   58  O   UNK N   1      19.643  15.056   8.594  0.00  0.00    -0.388 OA
HETATM   59  H   UNK N   1      18.696  14.852   8.636  0.00  0.00     0.210 HD
ENDBRANCH  53  58
BRANCH  54  60
HETATM   60  N   UNK N   1      22.363  14.259   7.760  0.00  0.00    -0.297 N 
HETATM   61  C   UNK N   1      22.093  13.601   8.844  0.00  0.00     0.188 A 
HETATM   62  N   UNK N   1      22.565  12.250   8.762  0.00  0.00    -0.346 N 
HETATM   63  C   UNK N   1      23.101  12.129   7.605  0.00  0.00     0.122 A 
ATOM     64  HN  UNK N   1      22.490  11.530   9.481  1.00  0.00     0.167 HD
HETATM   65  C   UNK N   1      23.699  10.995   6.924  0.00  0.00     0.131 A 
HETATM   66  C   UNK N   1      23.019  13.355   6.914  0.00  0.00     0.142 A 
HETATM   67  N   UNK N   1      24.213  11.237   5.612  0.00  0.00    -0.337 N 
HETATM   68  C   UNK N   1      24.118  12.416   5.053  0.00  0.00     0.183 A 
ATOM     69  HN  UNK N   1      24.662  10.477   5.101  1.00  0.00     0.168 HD
HETATM   70  N   UNK N   1      23.473  13.521   5.721  0.00  0.00    -0.336 N 
ATOM     71  HN  UNK N   1      23.379  14.423   5.254  1.00  0.00     0.168 HD
BRANCH  65  72
HETATM   72  N   UNK N   1      23.712   9.822   7.438  0.00  0.00    -0.383 N 
HETATM   73  H   UNK N   1      23.680   9.022   6.865  0.00  0.00     0.157 HD
ATOM     74  HN  UNK N   1      23.756   9.714   8.451  1.00  0.00     0.157 HD
ENDBRANCH  65  72
ENDBRANCH  54  60
ENDBRANCH  50  51
ENDBRANCH  49  50
ENDBRANCH  45  49
ENDBRANCH  44  45
ENDBRANCH  40  44
ENDBRANCH  39  40
ENDBRANCH   1  39
TORSDOF 24
ENDMDL
MODEL 7
REMARK VINA RESULT:      -8.2      3.671      9.550
REMARK  24 active torsions:
REMARK  status: ('A' for Active; 'I' for Inactive)
REMARK    1  A    between atoms: C_17  and  C_7 
REMARK    2  A    between atoms: N_44  and  C_7 
REMARK    3  A    between atoms: C_18  and  C_8 
REMARK    4  A    between atoms: O_60  and  C_8 
REMARK    5  A    between atoms: C_19  and  C_9 
REMARK    6  A    between atoms: O_61  and  C_9 
REMARK    7  A    between atoms: C_29  and  C_12 
REMARK    8  A    between atoms: C_22  and  C_17 
REMARK    9  A    between atoms: C_17  and  O_47 
REMARK   10  A    between atoms: C_22  and  C_18 
REMARK   11  A    between atoms: C_18  and  O_48 
REMARK   12  A    between atoms: C_22  and  O_49 
REMARK   13  A    between atoms: C_23  and  O_50 
REMARK   14  A    between atoms: C_24  and  O_51 
REMARK   15  A    between atoms: N_32  and  C_25 
REMARK   16  A    between atoms: O_52  and  C_28 
REMARK       I    between atoms: N_46  and  C_29 
REMARK   17  A    between atoms: C_30  and  N_45 
REMARK   18  A    between atoms: O_55  and  C_31 
REMARK   19  A    between atoms: P_64  and  O_56 
REMARK   20  A    between atoms: P_65  and  O_59 
REMARK   21  A    between atoms: P_64  and  O_60 
REMARK   22  A    between atoms: P_65  and  O_61 
REMARK   23  A    between atoms: P_64  and  O_63 
REMARK   24  A    between atoms: P_65  and  O_63 
ROOT
HETATM    1  C   UNK N   1      25.628  20.534   4.171  0.00  0.00     0.215 C 
ENDROOT
BRANCH   1   2
HETATM    2  C   UNK N   1      24.270  20.283   3.480  0.00  0.00     0.173 C 
BRANCH   2   3
HETATM    3  C   UNK N   1      23.683  18.855   3.585  0.00  0.00     0.179 C 
BRANCH   3   4
HETATM    4  C   UNK N   1      22.882  18.479   4.864  0.00  0.00     0.167 C 
BRANCH   4   5
HETATM    5  C   UNK N   1      21.537  17.772   4.546  0.00  0.00     0.165 C 
BRANCH   5   6
HETATM    6  N   UNK N   1      21.428  16.421   5.149  0.00  0.00    -0.327 N 
HETATM    7  C   UNK N   1      21.660  15.309   4.400  0.00  0.00     0.064 A 
HETATM    8  C   UNK N   1      21.948  15.439   3.024  0.00  0.00     0.039 A 
HETATM    9  C   UNK N   1      21.611  14.017   4.991  0.00  0.00     0.070 A 
HETATM   10  C   UNK N   1      22.193  14.320   2.227  0.00  0.00    -0.054 A 
HETATM   11  C   UNK N   1      22.432  14.478   0.767  0.00  0.00     0.049 C 
HETATM   12  C   UNK N   1      22.197  13.059   2.806  0.00  0.00    -0.054 A 
HETATM   13  C   UNK N   1      22.476  11.831   2.004  0.00  0.00     0.049 C 
HETATM   14  C   UNK N   1      21.913  12.932   4.154  0.00  0.00     0.039 A 
HETATM   15  N   UNK N   1      21.287  13.843   6.344  0.00  0.00    -0.273 N 
HETATM   16  C   UNK N   1      20.874  15.001   7.055  0.00  0.00     0.138 A 
HETATM   17  C   UNK N   1      21.412  12.558   6.967  0.00  0.00     0.232 C 
HETATM   18  C   UNK N   1      21.003  16.291   6.436  0.00  0.00     0.143 A 
HETATM   19  C   UNK N   1      20.248  15.021   8.369  0.00  0.00     0.175 A 
HETATM   20  N   UNK N   1      20.649  17.418   7.115  0.00  0.00    -0.306 N 
HETATM   21  C   UNK N   1      20.140  17.380   8.357  0.00  0.00     0.224 A 
ATOM     22  HN  UNK N   1      20.776  18.324   6.664  1.00  0.00     0.171 HD
HETATM   23  N   UNK N   1      19.926  16.199   8.955  0.00  0.00    -0.301 N 
ATOM     24  HN  UNK N   1      19.504  16.187   9.884  1.00  0.00     0.171 HD
HETATM   25  O   UNK N   1      21.378  12.454   8.173  0.00  0.00    -0.272 OA
BRANCH  21  26
HETATM   26  O   UNK N   1      19.806  18.520   8.983  0.00  0.00    -0.332 OA
HETATM   27  H   UNK N   1      20.402  18.917   9.587  0.00  0.00     0.221 HD
ENDBRANCH  21  26
BRANCH  19  28
HETATM   28  O   UNK N   1      19.854  13.922   9.024  0.00  0.00    -0.344 OA
ATOM     29  HO  UNK N   1      19.015  13.497   8.889  1.00  0.00     0.219 HD
ENDBRANCH  19  28
BRANCH  17  30
HETATM   30  C   UNK N   1      21.741  11.240   6.290  0.00  0.00     0.070 C 
HETATM   31  C   UNK N   1      20.561  10.392   5.838  0.00  0.00     0.019 C 
HETATM   32  C   UNK N   1      22.945  10.477   6.823  0.00  0.00     0.019 C 
ENDBRANCH  17  30
ENDBRANCH   5   6
ENDBRANCH   4   5
BRANCH   4  33
HETATM   33  O   UNK N   1      23.650  17.699   5.727  0.00  0.00    -0.391 OA
HETATM   34  H   UNK N   1      23.364  16.941   6.261  0.00  0.00     0.210 HD
ENDBRANCH   4  33
ENDBRANCH   3   4
BRANCH   3  35
HETATM   35  O   UNK N   1      24.744  17.950   3.475  0.00  0.00    -0.390 OA
HETATM   36  H   UNK N   1      24.693  16.984   3.409  0.00  0.00     0.210 HD
ENDBRANCH   3  35
ENDBRANCH   2   3
BRANCH   2  37
HETATM   37  O   UNK N   1      24.224  20.745   2.167  0.00  0.00    -0.391 OA
HETATM   38  H   UNK N   1      23.842  20.740   1.276  0.00  0.00     0.210 HD
ENDBRANCH   2  37
ENDBRANCH   1   2
BRANCH   1  39
HETATM   39  O   UNK N   1      25.887  19.734   5.286  0.00  0.00    -0.294 OA
BRANCH  39  40
HETATM   40  P   UNK N   1      27.607  19.784   5.643  0.00  0.00     0.401 P 
HETATM   41  O   UNK N   1      27.872  21.114   6.397  0.00  0.00    -0.631 OA
BRANCH  40  42
HETATM   42  O   UNK N   1      28.585  19.857   4.208  0.00  0.00    -0.307 OA
HETATM   43  H   UNK N   1      29.193  20.568   3.952  0.00  0.00     0.222 HD
ENDBRANCH  40  42
BRANCH  40  44
HETATM   44  O   UNK N   1      28.177  18.502   6.698  0.00  0.00    -0.195 OA
BRANCH  44  45
HETATM   45  P   UNK N   1      28.045  16.958   5.881  0.00  0.00     0.401 P 
HETATM   46  O   UNK N   1      27.085  16.068   6.714  0.00  0.00    -0.631 OA
BRANCH  45  47
HETATM   47  O   UNK N   1      27.266  17.219   4.355  0.00  0.00    -0.307 OA
HETATM   48  H   UNK N   1      27.112  18.077   3.930  0.00  0.00     0.222 HD
ENDBRANCH  45  47
BRANCH  45  49
HETATM   49  O   UNK N   1      29.602  16.172   5.747  0.00  0.00    -0.294 OA
BRANCH  49  50
HETATM   50  C   UNK N   1      30.523  16.968   5.083  0.00  0.00     0.215 C 
BRANCH  50  51
HETATM   51  C   UNK N   1      31.744  17.312   5.941  0.00  0.00     0.180 C 
HETATM   52  C   UNK N   1      33.109  17.191   5.244  0.00  0.00     0.182 C 
HETATM   53  C   UNK N   1      33.430  15.764   5.551  0.00  0.00     0.198 C 
HETATM   54  C   UNK N   1      32.900  15.628   6.987  0.00  0.00     0.262 C 
HETATM   55  O   UNK N   1      31.742  16.445   7.061  0.00  0.00    -0.353 OA
BRANCH  52  56
HETATM   56  O   UNK N   1      34.035  18.013   5.890  0.00  0.00    -0.390 OA
HETATM   57  H   UNK N   1      34.841  18.454   5.575  0.00  0.00     0.210 HD
ENDBRANCH  52  56
BRANCH  53  58
HETATM   58  O   UNK N   1      34.768  15.430   5.353  0.00  0.00    -0.388 OA
HETATM   59  H   UNK N   1      35.353  15.855   4.706  0.00  0.00     0.210 HD
ENDBRANCH  53  58
BRANCH  54  60
HETATM   60  N   UNK N   1      33.792  15.986   8.085  0.00  0.00    -0.297 N 
HETATM   61  C   UNK N   1      33.521  16.897   8.967  0.00  0.00     0.188 A 
HETATM   62  N   UNK N   1      34.428  16.831  10.075  0.00  0.00    -0.346 N 
HETATM   63  C   UNK N   1      35.221  15.856   9.830  0.00  0.00     0.122 A 
ATOM     64  HN  UNK N   1      34.440  17.440  10.894  1.00  0.00     0.167 HD
HETATM   65  C   UNK N   1      36.306  15.269  10.595  0.00  0.00     0.131 A 
HETATM   66  C   UNK N   1      34.889  15.275   8.589  0.00  0.00     0.142 A 
HETATM   67  N   UNK N   1      36.991  14.169   9.990  0.00  0.00    -0.337 N 
HETATM   68  C   UNK N   1      36.632  13.708   8.821  0.00  0.00     0.183 A 
ATOM     69  HN  UNK N   1      37.775  13.737  10.480  1.00  0.00     0.168 HD
HETATM   70  N   UNK N   1      35.518  14.267   8.094  0.00  0.00    -0.336 N 
ATOM     71  HN  UNK N   1      35.233  13.870   7.199  1.00  0.00     0.168 HD
BRANCH  65  72
HETATM   72  N   UNK N   1      36.598  15.666  11.778  0.00  0.00    -0.383 N 
HETATM   73  H   UNK N   1      37.402  16.210  11.941  0.00  0.00     0.157 HD
ATOM     74  HN  UNK N   1      35.992  15.416  12.558  1.00  0.00     0.157 HD
ENDBRANCH  65  72
ENDBRANCH  54  60
ENDBRANCH  50  51
ENDBRANCH  49  50
ENDBRANCH  45  49
ENDBRANCH  44  45
ENDBRANCH  40  44
ENDBRANCH  39  40
ENDBRANCH   1  39
TORSDOF 24
ENDMDL
MODEL 8
REMARK VINA RESULT:      -8.1      8.892     13.072
REMARK  24 active torsions:
REMARK  status: ('A' for Active; 'I' for Inactive)
REMARK    1  A    between atoms: C_17  and  C_7 
REMARK    2  A    between atoms: N_44  and  C_7 
REMARK    3  A    between atoms: C_18  and  C_8 
REMARK    4  A    between atoms: O_60  and  C_8 
REMARK    5  A    between atoms: C_19  and  C_9 
REMARK    6  A    between atoms: O_61  and  C_9 
REMARK    7  A    between atoms: C_29  and  C_12 
REMARK    8  A    between atoms: C_22  and  C_17 
REMARK    9  A    between atoms: C_17  and  O_47 
REMARK   10  A    between atoms: C_22  and  C_18 
REMARK   11  A    between atoms: C_18  and  O_48 
REMARK   12  A    between atoms: C_22  and  O_49 
REMARK   13  A    between atoms: C_23  and  O_50 
REMARK   14  A    between atoms: C_24  and  O_51 
REMARK   15  A    between atoms: N_32  and  C_25 
REMARK   16  A    between atoms: O_52  and  C_28 
REMARK       I    between atoms: N_46  and  C_29 
REMARK   17  A    between atoms: C_30  and  N_45 
REMARK   18  A    between atoms: O_55  and  C_31 
REMARK   19  A    between atoms: P_64  and  O_56 
REMARK   20  A    between atoms: P_65  and  O_59 
REMARK   21  A    between atoms: P_64  and  O_60 
REMARK   22  A    between atoms: P_65  and  O_61 
REMARK   23  A    between atoms: P_64  and  O_63 
REMARK   24  A    between atoms: P_65  and  O_63 
ROOT
HETATM    1  C   UNK N   1      35.313  16.734  10.695  0.00  0.00     0.215 C 
ENDROOT
BRANCH   1   2
HETATM    2  C   UNK N   1      34.766  15.430  11.314  0.00  0.00     0.173 C 
BRANCH   2   3
HETATM    3  C   UNK N   1      35.682  14.184  11.246  0.00  0.00     0.179 C 
BRANCH   3   4
HETATM    4  C   UNK N   1      35.493  13.071  12.314  0.00  0.00     0.167 C 
BRANCH   4   5
HETATM    5  C   UNK N   1      36.511  13.177  13.482  0.00  0.00     0.165 C 
BRANCH   5   6
HETATM    6  N   UNK N   1      36.480  12.008  14.395  0.00  0.00    -0.327 N 
HETATM    7  C   UNK N   1      36.128  12.160  15.700  0.00  0.00     0.064 A 
HETATM    8  C   UNK N   1      35.848  13.448  16.205  0.00  0.00     0.039 A 
HETATM    9  C   UNK N   1      36.043  11.032  16.561  0.00  0.00     0.070 A 
HETATM   10  C   UNK N   1      35.482  13.640  17.537  0.00  0.00    -0.054 A 
HETATM   11  C   UNK N   1      35.255  15.014  18.062  0.00  0.00     0.049 C 
HETATM   12  C   UNK N   1      35.349  12.540  18.373  0.00  0.00    -0.054 A 
HETATM   13  C   UNK N   1      34.938  12.686  19.800  0.00  0.00     0.049 C 
HETATM   14  C   UNK N   1      35.624  11.277  17.878  0.00  0.00     0.039 A 
HETATM   15  N   UNK N   1      36.354   9.742  16.110  0.00  0.00    -0.273 N 
HETATM   16  C   UNK N   1      36.890   9.636  14.799  0.00  0.00     0.138 A 
HETATM   17  C   UNK N   1      36.097   8.596  16.934  0.00  0.00     0.232 C 
HETATM   18  C   UNK N   1      36.895  10.792  13.945  0.00  0.00     0.143 A 
HETATM   19  C   UNK N   1      37.521   8.457  14.225  0.00  0.00     0.175 A 
HETATM   20  N   UNK N   1      37.370  10.703  12.671  0.00  0.00    -0.306 N 
HETATM   21  C   UNK N   1      37.878   9.565  12.170  0.00  0.00     0.224 A 
ATOM     22  HN  UNK N   1      37.336  11.531  12.075  1.00  0.00     0.171 HD
HETATM   23  N   UNK N   1      37.969   8.476  12.947  0.00  0.00    -0.301 N 
ATOM     24  HN  UNK N   1      38.392   7.631  12.561  1.00  0.00     0.171 HD
HETATM   25  O   UNK N   1      36.125   7.482  16.461  0.00  0.00    -0.272 OA
BRANCH  21  26
HETATM   26  O   UNK N   1      38.333   9.530  10.907  0.00  0.00    -0.332 OA
HETATM   27  H   UNK N   1      38.240  10.279  10.353  0.00  0.00     0.221 HD
ENDBRANCH  21  26
BRANCH  19  28
HETATM   28  O   UNK N   1      37.800   7.348  14.919  0.00  0.00    -0.344 OA
ATOM     29  HO  UNK N   1      38.583   7.236  15.447  1.00  0.00     0.219 HD
ENDBRANCH  19  28
BRANCH  17  30
HETATM   30  C   UNK N   1      35.627   8.593  18.377  0.00  0.00     0.070 C 
HETATM   31  C   UNK N   1      36.641   8.154  19.423  0.00  0.00     0.019 C 
HETATM   32  C   UNK N   1      34.186   8.174  18.628  0.00  0.00     0.019 C 
ENDBRANCH  17  30
ENDBRANCH   5   6
ENDBRANCH   4   5
BRANCH   4  33
HETATM   33  O   UNK N   1      34.188  13.062  12.806  0.00  0.00    -0.391 OA
HETATM   34  H   UNK N   1      33.576  13.810  12.890  0.00  0.00     0.210 HD
ENDBRANCH   4  33
ENDBRANCH   3   4
BRANCH   3  35
HETATM   35  O   UNK N   1      37.006  14.624  11.331  0.00  0.00    -0.390 OA
HETATM   36  H   UNK N   1      37.806  14.152  11.053  0.00  0.00     0.210 HD
ENDBRANCH   3  35
ENDBRANCH   2   3
BRANCH   2  37
HETATM   37  O   UNK N   1      33.473  15.121  10.901  0.00  0.00    -0.391 OA
HETATM   38  H   UNK N   1      32.562  15.379  10.691  0.00  0.00     0.210 HD
ENDBRANCH   2  37
ENDBRANCH   1   2
BRANCH   1  39
HETATM   39  O   UNK N   1      35.624  16.665   9.335  0.00  0.00    -0.294 OA
BRANCH  39  40
HETATM   40  P   UNK N   1      34.561  17.745   8.446  0.00  0.00     0.401 P 
HETATM   41  O   UNK N   1      35.080  19.188   8.688  0.00  0.00    -0.631 OA
BRANCH  40  42
HETATM   42  O   UNK N   1      32.932  17.727   9.051  0.00  0.00    -0.307 OA
HETATM   43  H   UNK N   1      32.564  17.127   9.719  0.00  0.00     0.222 HD
ENDBRANCH  40  42
BRANCH  40  44
HETATM   44  O   UNK N   1      34.562  17.511   6.705  0.00  0.00    -0.195 OA
BRANCH  44  45
HETATM   45  P   UNK N   1      34.192  15.841   6.332  0.00  0.00     0.401 P 
HETATM   46  O   UNK N   1      35.474  15.197   5.742  0.00  0.00    -0.631 OA
BRANCH  45  47
HETATM   47  O   UNK N   1      33.870  15.012   7.820  0.00  0.00    -0.307 OA
HETATM   48  H   UNK N   1      34.233  14.153   8.087  0.00  0.00     0.222 HD
ENDBRANCH  45  47
BRANCH  45  49
HETATM   49  O   UNK N   1      32.891  15.721   5.168  0.00  0.00    -0.294 OA
BRANCH  49  50
HETATM   50  C   UNK N   1      31.681  15.427   5.779  0.00  0.00     0.215 C 
BRANCH  50  51
HETATM   51  C   UNK N   1      30.484  15.569   4.835  0.00  0.00     0.180 C 
HETATM   52  C   UNK N   1      30.368  16.913   4.096  0.00  0.00     0.182 C 
HETATM   53  C   UNK N   1      29.545  17.678   5.081  0.00  0.00     0.198 C 
HETATM   54  C   UNK N   1      28.574  16.598   5.580  0.00  0.00     0.262 C 
HETATM   55  O   UNK N   1      29.307  15.383   5.599  0.00  0.00    -0.353 OA
BRANCH  52  56
HETATM   56  O   UNK N   1      29.627  16.737   2.925  0.00  0.00    -0.390 OA
HETATM   57  H   UNK N   1      29.113  15.985   2.591  0.00  0.00     0.210 HD
ENDBRANCH  52  56
BRANCH  53  58
HETATM   58  O   UNK N   1      28.968  18.834   4.559  0.00  0.00    -0.388 OA
HETATM   59  H   UNK N   1      29.348  19.365   3.841  0.00  0.00     0.210 HD
ENDBRANCH  53  58
BRANCH  54  60
HETATM   60  N   UNK N   1      27.340  16.383   4.831  0.00  0.00    -0.297 N 
HETATM   61  C   UNK N   1      26.983  15.237   4.342  0.00  0.00     0.188 A 
HETATM   62  N   UNK N   1      25.614  15.259   3.917  0.00  0.00    -0.346 N 
HETATM   63  C   UNK N   1      25.177  16.433   4.182  0.00  0.00     0.122 A 
ATOM     64  HN  UNK N   1      25.093  14.494   3.489  1.00  0.00     0.167 HD
HETATM   65  C   UNK N   1      23.865  17.038   4.036  0.00  0.00     0.131 A 
HETATM   66  C   UNK N   1      26.208  17.205   4.756  0.00  0.00     0.142 A 
HETATM   67  N   UNK N   1      23.745  18.405   4.439  0.00  0.00    -0.337 N 
HETATM   68  C   UNK N   1      24.762  19.056   4.940  0.00  0.00     0.183 A 
ATOM     69  HN  UNK N   1      22.849  18.881   4.335  1.00  0.00     0.168 HD
HETATM   70  N   UNK N   1      26.047  18.426   5.129  0.00  0.00    -0.336 N 
ATOM     71  HN  UNK N   1      26.818  18.942   5.553  1.00  0.00     0.168 HD
BRANCH  65  72
HETATM   72  N   UNK N   1      22.850  16.373   3.628  0.00  0.00    -0.383 N 
HETATM   73  H   UNK N   1      22.161  16.799   3.068  0.00  0.00     0.157 HD
ATOM     74  HN  UNK N   1      22.753  15.391   3.886  1.00  0.00     0.157 HD
ENDBRANCH  65  72
ENDBRANCH  54  60
ENDBRANCH  50  51
ENDBRANCH  49  50
ENDBRANCH  45  49
ENDBRANCH  44  45
ENDBRANCH  40  44
ENDBRANCH  39  40
ENDBRANCH   1  39
TORSDOF 24
ENDMDL
MODEL 9
REMARK VINA RESULT:      -8.1      9.544     14.531
REMARK  24 active torsions:
REMARK  status: ('A' for Active; 'I' for Inactive)
REMARK    1  A    between atoms: C_17  and  C_7 
REMARK    2  A    between atoms: N_44  and  C_7 
REMARK    3  A    between atoms: C_18  and  C_8 
REMARK    4  A    between atoms: O_60  and  C_8 
REMARK    5  A    between atoms: C_19  and  C_9 
REMARK    6  A    between atoms: O_61  and  C_9 
REMARK    7  A    between atoms: C_29  and  C_12 
REMARK    8  A    between atoms: C_22  and  C_17 
REMARK    9  A    between atoms: C_17  and  O_47 
REMARK   10  A    between atoms: C_22  and  C_18 
REMARK   11  A    between atoms: C_18  and  O_48 
REMARK   12  A    between atoms: C_22  and  O_49 
REMARK   13  A    between atoms: C_23  and  O_50 
REMARK   14  A    between atoms: C_24  and  O_51 
REMARK   15  A    between atoms: N_32  and  C_25 
REMARK   16  A    between atoms: O_52  and  C_28 
REMARK       I    between atoms: N_46  and  C_29 
REMARK   17  A    between atoms: C_30  and  N_45 
REMARK   18  A    between atoms: O_55  and  C_31 
REMARK   19  A    between atoms: P_64  and  O_56 
REMARK   20  A    between atoms: P_65  and  O_59 
REMARK   21  A    between atoms: P_64  and  O_60 
REMARK   22  A    between atoms: P_65  and  O_61 
REMARK   23  A    between atoms: P_64  and  O_63 
REMARK   24  A    between atoms: P_65  and  O_63 
ROOT
HETATM    1  C   UNK N   1      37.609  14.027   9.806  0.00  0.00     0.215 C 
ENDROOT
BRANCH   1   2
HETATM    2  C   UNK N   1      36.881  14.665  11.008  0.00  0.00     0.173 C 
BRANCH   2   3
HETATM    3  C   UNK N   1      35.512  14.058  11.401  0.00  0.00     0.179 C 
BRANCH   3   4
HETATM    4  C   UNK N   1      35.494  12.856  12.386  0.00  0.00     0.167 C 
BRANCH   4   5
HETATM    5  C   UNK N   1      36.558  12.980  13.509  0.00  0.00     0.165 C 
BRANCH   5   6
HETATM    6  N   UNK N   1      36.562  11.828  14.444  0.00  0.00    -0.327 N 
HETATM    7  C   UNK N   1      36.202  11.993  15.746  0.00  0.00     0.064 A 
HETATM    8  C   UNK N   1      35.880  13.281  16.226  0.00  0.00     0.039 A 
HETATM    9  C   UNK N   1      36.151  10.879  16.628  0.00  0.00     0.070 A 
HETATM   10  C   UNK N   1      35.505  13.486  17.554  0.00  0.00    -0.054 A 
HETATM   11  C   UNK N   1      35.232  14.861  18.052  0.00  0.00     0.049 C 
HETATM   12  C   UNK N   1      35.404  12.398  18.409  0.00  0.00    -0.054 A 
HETATM   13  C   UNK N   1      34.985  12.557  19.832  0.00  0.00     0.049 C 
HETATM   14  C   UNK N   1      35.721  11.135  17.939  0.00  0.00     0.039 A 
HETATM   15  N   UNK N   1      36.504   9.591  16.201  0.00  0.00    -0.273 N 
HETATM   16  C   UNK N   1      37.047   9.479  14.893  0.00  0.00     0.138 A 
HETATM   17  C   UNK N   1      36.282   8.454  17.045  0.00  0.00     0.232 C 
HETATM   18  C   UNK N   1      37.017  10.618  14.018  0.00  0.00     0.143 A 
HETATM   19  C   UNK N   1      37.717   8.310  14.342  0.00  0.00     0.175 A 
HETATM   20  N   UNK N   1      37.497  10.520  12.747  0.00  0.00    -0.306 N 
HETATM   21  C   UNK N   1      38.043   9.391  12.268  0.00  0.00     0.224 A 
ATOM     22  HN  UNK N   1      37.439  11.336  12.135  1.00  0.00     0.171 HD
HETATM   23  N   UNK N   1      38.167   8.319  13.065  0.00  0.00    -0.301 N 
ATOM     24  HN  UNK N   1      38.617   7.482  12.696  1.00  0.00     0.171 HD
HETATM   25  O   UNK N   1      36.347   7.332  16.594  0.00  0.00    -0.272 OA
BRANCH  21  26
HETATM   26  O   UNK N   1      38.502   9.347  11.006  0.00  0.00    -0.332 OA
HETATM   27  H   UNK N   1      38.435   8.557  10.509  0.00  0.00     0.221 HD
ENDBRANCH  21  26
BRANCH  19  28
HETATM   28  O   UNK N   1      38.029   7.223  15.058  0.00  0.00    -0.344 OA
ATOM     29  HO  UNK N   1      38.910   7.014  15.346  1.00  0.00     0.219 HD
ENDBRANCH  19  28
BRANCH  17  30
HETATM   30  C   UNK N   1      35.809   8.462  18.487  0.00  0.00     0.070 C 
HETATM   31  C   UNK N   1      36.851   8.142  19.549  0.00  0.00     0.019 C 
HETATM   32  C   UNK N   1      34.405   7.938  18.751  0.00  0.00     0.019 C 
ENDBRANCH  17  30
ENDBRANCH   5   6
ENDBRANCH   4   5
BRANCH   4  33
HETATM   33  O   UNK N   1      34.225  12.675  12.936  0.00  0.00    -0.391 OA
HETATM   34  H   UNK N   1      33.604  13.354  13.240  0.00  0.00     0.210 HD
ENDBRANCH   4  33
ENDBRANCH   3   4
BRANCH   3  35
HETATM   35  O   UNK N   1      34.876  13.646  10.226  0.00  0.00    -0.390 OA
HETATM   36  H   UNK N   1      35.085  12.873   9.680  0.00  0.00     0.210 HD
ENDBRANCH   3  35
ENDBRANCH   2   3
BRANCH   2  37
HETATM   37  O   UNK N   1      36.809  16.053  10.938  0.00  0.00    -0.391 OA
HETATM   38  H   UNK N   1      36.969  16.934  11.310  0.00  0.00     0.210 HD
ENDBRANCH   2  37
ENDBRANCH   1   2
BRANCH   1  39
HETATM   39  O   UNK N   1      37.720  12.635   9.845  0.00  0.00    -0.294 OA
BRANCH  39  40
HETATM   40  P   UNK N   1      38.458  12.075   8.352  0.00  0.00     0.401 P 
HETATM   41  O   UNK N   1      38.696  10.549   8.512  0.00  0.00    -0.631 OA
BRANCH  40  42
HETATM   42  O   UNK N   1      40.029  12.767   8.082  0.00  0.00    -0.307 OA
HETATM   43  H   UNK N   1      40.393  13.567   8.493  0.00  0.00     0.222 HD
ENDBRANCH  40  42
BRANCH  40  44
HETATM   44  O   UNK N   1      37.459  12.265   6.920  0.00  0.00    -0.195 OA
BRANCH  44  45
HETATM   45  P   UNK N   1      35.803  11.832   7.291  0.00  0.00     0.401 P 
HETATM   46  O   UNK N   1      35.324  10.837   6.203  0.00  0.00    -0.631 OA
BRANCH  45  47
HETATM   47  O   UNK N   1      35.794  10.960   8.789  0.00  0.00    -0.307 OA
HETATM   48  H   UNK N   1      35.442  11.278   9.635  0.00  0.00     0.222 HD
ENDBRANCH  45  47
BRANCH  45  49
HETATM   49  O   UNK N   1      34.762  13.239   7.295  0.00  0.00    -0.294 OA
BRANCH  49  50
HETATM   50  C   UNK N   1      35.390  14.343   6.737  0.00  0.00     0.215 C 
BRANCH  50  51
HETATM   51  C   UNK N   1      34.431  15.509   6.480  0.00  0.00     0.180 C 
HETATM   52  C   UNK N   1      34.674  16.774   7.319  0.00  0.00     0.182 C 
HETATM   53  C   UNK N   1      33.813  16.468   8.501  0.00  0.00     0.198 C 
HETATM   54  C   UNK N   1      32.604  15.790   7.838  0.00  0.00     0.262 C 
HETATM   55  O   UNK N   1      33.116  15.052   6.740  0.00  0.00    -0.353 OA
BRANCH  52  56
HETATM   56  O   UNK N   1      34.150  17.883   6.651  0.00  0.00    -0.390 OA
HETATM   57  H   UNK N   1      33.240  18.201   6.539  0.00  0.00     0.210 HD
ENDBRANCH  52  56
BRANCH  53  58
HETATM   58  O   UNK N   1      33.538  17.574   9.302  0.00  0.00    -0.388 OA
HETATM   59  H   UNK N   1      34.061  18.391   9.314  0.00  0.00     0.210 HD
ENDBRANCH  53  58
BRANCH  54  60
HETATM   60  N   UNK N   1      31.516  16.637   7.362  0.00  0.00    -0.297 N 
HETATM   61  C   UNK N   1      31.093  16.648   6.136  0.00  0.00     0.188 A 
HETATM   62  N   UNK N   1      29.848  17.348   6.023  0.00  0.00    -0.346 N 
HETATM   63  C   UNK N   1      29.546  17.732   7.207  0.00  0.00     0.122 A 
ATOM     64  HN  UNK N   1      29.311  17.510   5.171  1.00  0.00     0.167 HD
HETATM   65  C   UNK N   1      28.389  18.431   7.737  0.00  0.00     0.131 A 
HETATM   66  C   UNK N   1      30.552  17.327   8.108  0.00  0.00     0.142 A 
HETATM   67  N   UNK N   1      28.397  18.704   9.141  0.00  0.00    -0.337 N 
HETATM   68  C   UNK N   1      29.386  18.313   9.902  0.00  0.00     0.183 A 
ATOM     69  HN  UNK N   1      27.616  19.212   9.557  1.00  0.00     0.168 HD
HETATM   70  N   UNK N   1      30.505  17.572   9.371  0.00  0.00    -0.336 N 
ATOM     71  HN  UNK N   1      31.249  17.247   9.988  1.00  0.00     0.168 HD
BRANCH  65  72
HETATM   72  N   UNK N   1      27.382  18.734   7.006  0.00  0.00    -0.383 N 
HETATM   73  H   UNK N   1      27.423  19.498   6.387  0.00  0.00     0.157 HD
ATOM     74  HN  UNK N   1      26.530  18.178   7.065  1.00  0.00     0.157 HD
ENDBRANCH  65  72
ENDBRANCH  54  60
ENDBRANCH  50  51
ENDBRANCH  49  50
ENDBRANCH  45  49
ENDBRANCH  44  45
ENDBRANCH  40  44
ENDBRANCH  39  40
ENDBRANCH   1  39
TORSDOF 24
ENDMDL
