REMARK  24 active torsions:
REMARK  status: ('A' for Active; 'I' for Inactive)
REMARK    1  A    between atoms: C_17  and  C_7 
REMARK    2  A    between atoms: N_44  and  C_7 
REMARK    3  A    between atoms: C_18  and  C_8 
REMARK    4  A    between atoms: O_60  and  C_8 
REMARK    5  A    between atoms: C_19  and  C_9 
REMARK    6  A    between atoms: O_61  and  C_9 
REMARK    7  A    between atoms: C_29  and  C_12 
REMARK    8  A    between atoms: C_22  and  C_17 
REMARK    9  A    between atoms: C_17  and  O_47 
REMARK   10  A    between atoms: C_22  and  C_18 
REMARK   11  A    between atoms: C_18  and  O_48 
REMARK   12  A    between atoms: C_22  and  O_49 
REMARK   13  A    between atoms: C_23  and  O_50 
REMARK   14  A    between atoms: C_24  and  O_51 
REMARK   15  A    between atoms: N_32  and  C_25 
REMARK   16  A    between atoms: O_52  and  C_28 
REMARK       I    between atoms: N_46  and  C_29 
REMARK   17  A    between atoms: C_30  and  N_45 
REMARK   18  A    between atoms: O_55  and  C_31 
REMARK   19  A    between atoms: P_64  and  O_56 
REMARK   20  A    between atoms: P_65  and  O_59 
REMARK   21  A    between atoms: P_64  and  O_60 
REMARK   22  A    between atoms: P_65  and  O_61 
REMARK   23  A    between atoms: P_64  and  O_63 
REMARK   24  A    between atoms: P_65  and  O_63 
ROOT
HETATM    1  C   UNK N   1       3.309   6.258   0.699  0.00  0.00     0.215 C 
ENDROOT
BRANCH   1   2
HETATM    2  C   UNK N   1       2.186   5.575  -0.110  0.00  0.00     0.173 C 
BRANCH   2   3
HETATM    3  C   UNK N   1       1.289   4.567   0.648  0.00  0.00     0.179 C 
BRANCH   3   4
HETATM    4  C   UNK N   1       1.791   3.104   0.802  0.00  0.00     0.167 C 
BRANCH   4   5
HETATM    5  C   UNK N   1       1.894   2.356  -0.555  0.00  0.00     0.165 C 
BRANCH   5   6
HETATM    6  N   UNK N   1       1.730   0.887  -0.429  0.00  0.00    -0.327 N 
HETATM    7  C   UNK N   1       2.782   0.053  -0.648  0.00  0.00     0.064 A 
HETATM    8  C   UNK N   1       4.024   0.584  -1.057  0.00  0.00     0.039 A 
HETATM    9  C   UNK N   1       2.639  -1.351  -0.472  0.00  0.00     0.070 A 
HETATM   10  C   UNK N   1       5.124  -0.242  -1.289  0.00  0.00    -0.054 A 
HETATM   11  C   UNK N   1       6.404   0.335  -1.781  0.00  0.00     0.049 C 
HETATM   12  C   UNK N   1       5.008  -1.608  -1.072  0.00  0.00    -0.054 A 
HETATM   13  C   UNK N   1       6.159  -2.534  -1.282  0.00  0.00     0.049 C 
HETATM   14  C   UNK N   1       3.790  -2.129  -0.672  0.00  0.00     0.039 A 
HETATM   15  N   UNK N   1       1.412  -1.922  -0.108  0.00  0.00    -0.273 N 
HETATM   16  C   UNK N   1       0.291  -1.050  -0.062  0.00  0.00     0.138 A 
HETATM   17  C   UNK N   1       1.324  -3.311   0.236  0.00  0.00     0.232 C 
HETATM   18  C   UNK N   1       0.496   0.367  -0.182  0.00  0.00     0.143 A 
HETATM   19  C   UNK N   1      -1.104  -1.454   0.030  0.00  0.00     0.175 A 
HETATM   20  N   UNK N   1      -0.561   1.223  -0.102  0.00  0.00    -0.306 N 
HETATM   21  C   UNK N   1      -1.824   0.795   0.054  0.00  0.00     0.224 A 
ATOM     22  HN  UNK N   1      -0.386   2.227  -0.162  1.00  0.00     0.171 HD
HETATM   23  N   UNK N   1      -2.083  -0.520   0.095  0.00  0.00    -0.301 N 
ATOM     24  HN  UNK N   1      -3.052  -0.828   0.177  1.00  0.00     0.171 HD
HETATM   25  O   UNK N   1       0.337  -3.746   0.786  0.00  0.00    -0.272 OA
BRANCH  21  26
HETATM   26  O   UNK N   1      -2.831   1.681   0.127  0.00  0.00    -0.332 OA
HETATM   27  H   UNK N   1      -2.648   2.598   0.178  0.00  0.00     0.221 HD
ENDBRANCH  21  26
BRANCH  19  28
HETATM   28  O   UNK N   1      -1.520  -2.723  -0.054  0.00  0.00    -0.344 OA
ATOM     29  HO  UNK N   1      -2.431  -2.987   0.006  1.00  0.00     0.219 HD
ENDBRANCH  19  28
BRANCH  17  30
HETATM   30  C   UNK N   1       2.422  -4.353   0.125  0.00  0.00     0.070 C 
HETATM   31  C   UNK N   1       3.534  -4.285   1.162  0.00  0.00     0.019 C 
HETATM   32  C   UNK N   1       2.844  -4.757  -1.280  0.00  0.00     0.019 C 
ENDBRANCH  17  30
ENDBRANCH   5   6
ENDBRANCH   4   5
BRANCH   4  33
HETATM   33  O   UNK N   1       3.011   3.059   1.476  0.00  0.00    -0.391 OA
HETATM   34  H   UNK N   1       3.407   2.308   1.945  0.00  0.00     0.210 HD
ENDBRANCH   4  33
ENDBRANCH   3   4
BRANCH   3  35
HETATM   35  O   UNK N   1       0.055   4.519  -0.008  0.00  0.00    -0.390 OA
HETATM   36  H   UNK N   1      -0.402   5.243  -0.463  0.00  0.00     0.210 HD
ENDBRANCH   3  35
ENDBRANCH   2   3
BRANCH   2  37
HETATM   37  O   UNK N   1       2.622   5.042  -1.320  0.00  0.00    -0.391 OA
HETATM   38  H   UNK N   1       2.453   4.592  -2.162  0.00  0.00     0.210 HD
ENDBRANCH   2  37
ENDBRANCH   1   2
BRANCH   1  39
HETATM   39  O   UNK N   1       4.607   5.853   0.379  0.00  0.00    -0.294 OA
BRANCH  39  40
HETATM   40  P   UNK N   1       5.119   6.669  -1.090  0.00  0.00     0.401 P 
HETATM   41  O   UNK N   1       6.132   7.766  -0.666  0.00  0.00    -0.631 OA
BRANCH  40  42
HETATM   42  O   UNK N   1       3.818   7.513  -1.874  0.00  0.00    -0.307 OA
HETATM   43  H   UNK N   1       3.863   8.378  -2.312  0.00  0.00     0.222 HD
ENDBRANCH  40  42
BRANCH  40  44
HETATM   44  O   UNK N   1       5.960   5.648  -2.245  0.00  0.00    -0.195 OA
BRANCH  44  45
HETATM   45  P   UNK N   1       5.765   3.965  -1.800  0.00  0.00     0.401 P 
HETATM   46  O   UNK N   1       4.448   3.460  -2.445  0.00  0.00    -0.631 OA
BRANCH  45  47
HETATM   47  O   UNK N   1       7.047   3.059  -2.535  0.00  0.00    -0.307 OA
HETATM   48  H   UNK N   1       6.967   2.184  -2.946  0.00  0.00     0.222 HD
ENDBRANCH  45  47
BRANCH  45  49
HETATM   49  O   UNK N   1       5.677   3.771  -0.063  0.00  0.00    -0.294 OA
BRANCH  49  50
HETATM   50  C   UNK N   1       5.961   2.470   0.323  0.00  0.00     0.215 C 
BRANCH  50  51
HETATM   51  C   UNK N   1       7.394   2.297   0.833  0.00  0.00     0.180 C 
HETATM   52  C   UNK N   1       7.925   3.422   1.737  0.00  0.00     0.182 C 
HETATM   53  C   UNK N   1       8.516   4.325   0.704  0.00  0.00     0.198 C 
HETATM   54  C   UNK N   1       9.121   3.315  -0.283  0.00  0.00     0.262 C 
HETATM   55  O   UNK N   1       8.245   2.199  -0.295  0.00  0.00    -0.353 OA
BRANCH  52  56
HETATM   56  O   UNK N   1       8.950   2.924   2.545  0.00  0.00    -0.390 OA
HETATM   57  H   UNK N   1       9.007   2.134   3.106  0.00  0.00     0.210 HD
ENDBRANCH  52  56
BRANCH  53  58
HETATM   58  O   UNK N   1       9.388   5.281   1.221  0.00  0.00    -0.388 OA
HETATM   59  H   UNK N   1      10.268   5.088   1.581  0.00  0.00     0.210 HD
ENDBRANCH  53  58
BRANCH  54  60
HETATM   60  N   UNK N   1      10.477   2.838  -0.034  0.00  0.00    -0.297 N 
HETATM   61  C   UNK N   1      10.854   1.610  -0.210  0.00  0.00     0.188 A 
HETATM   62  N   UNK N   1      12.282   1.495  -0.168  0.00  0.00    -0.346 N 
HETATM   63  C   UNK N   1      12.730   2.680   0.020  0.00  0.00     0.122 A 
ATOM     64  HN  UNK N   1      12.831   0.641  -0.267  1.00  0.00     0.167 HD
HETATM   65  C   UNK N   1      14.080   3.208   0.096  0.00  0.00     0.131 A 
HETATM   66  C   UNK N   1      11.653   3.584   0.121  0.00  0.00     0.142 A 
HETATM   67  N   UNK N   1      14.203   4.614   0.328  0.00  0.00    -0.337 N 
HETATM   68  C   UNK N   1      13.147   5.378   0.435  0.00  0.00     0.183 A 
ATOM     69  HN  UNK N   1      15.131   5.029   0.411  1.00  0.00     0.168 HD
HETATM   70  N   UNK N   1      11.811   4.848   0.304  0.00  0.00    -0.336 N 
ATOM     71  HN  UNK N   1      11.002   5.467   0.357  1.00  0.00     0.168 HD
BRANCH  65  72
HETATM   72  N   UNK N   1      15.111   2.473  -0.097  0.00  0.00    -0.383 N 
HETATM   73  H   UNK N   1      15.017   1.504  -0.246  0.00  0.00     0.157 HD
ATOM     74  HN  UNK N   1      16.039   2.895  -0.097  1.00  0.00     0.157 HD
ENDBRANCH  65  72
ENDBRANCH  54  60
ENDBRANCH  50  51
ENDBRANCH  49  50
ENDBRANCH  45  49
ENDBRANCH  44  45
ENDBRANCH  40  44
ENDBRANCH  39  40
ENDBRANCH   1  39
TORSDOF 24
