MODEL 1
REMARK VINA RESULT:      -5.9      0.000      0.000
REMARK  5 active torsions:
REMARK  status: ('A' for Active; 'I' for Inactive)
REMARK    1  A    between atoms: C_7  and  C_2 
REMARK    2  A    between atoms: N_18  and  C_2 
REMARK    3  A    between atoms: C_8  and  C_5 
REMARK    4  A    between atoms: C_9  and  O_20 
REMARK    5  A    between atoms: O_21  and  C_12 
ROOT
HETATM    1  C   UNK N   1      26.426  21.463   6.931  0.00  0.00     0.173 C 
HETATM    2  O   UNK N   1      25.852  20.932   8.087  0.00  0.00    -0.400 OA
HETATM    3  H   UNK N   1      25.565  20.610   8.957  0.00  0.00     0.209 HD
ENDROOT
BRANCH   1   4
HETATM    4  C   UNK N   1      27.283  20.429   6.198  0.00  0.00     0.068 C 
HETATM    5  C   UNK N   1      28.051  19.463   7.071  0.00  0.00     0.282 C 
HETATM    6  N   UNK N   1      28.568  18.509   6.098  0.00  0.00     0.095 N 
HETATM    7  C   UNK N   1      27.419  18.264   5.218  0.00  0.00     0.304 C 
HETATM    8  C   UNK N   1      26.543  19.500   5.243  0.00  0.00     0.154 C 
BRANCH   6   9
HETATM    9  C   UNK N   1      29.042  17.286   6.757  0.00  0.00     0.310 C 
BRANCH   9  10
HETATM   10  C   UNK N   1      30.459  16.907   6.362  0.00  0.00    -0.012 C 
HETATM   11  C   UNK N   1      30.880  16.792   5.114  0.00  0.00     0.090 C 
HETATM   12  N   UNK N   1      32.183  16.301   5.064  0.00  0.00    -0.385 N 
HETATM   13  C   UNK N   1      32.666  16.009   6.385  0.00  0.00     0.183 C 
HETATM   14  H   UNK N   1      32.702  16.173   4.236  0.00  0.00     0.159 HD
HETATM   15  C   UNK N   1      31.547  16.541   7.334  0.00  0.00     0.145 C 
HETATM   16  C   UNK N   1      34.018  16.622   6.578  0.00  0.00     0.142 C 
HETATM   17  N   UNK N   1      31.937  17.701   8.117  0.00  0.00    -0.375 N 
HETATM   18  C   UNK N   1      33.139  18.171   8.154  0.00  0.00     0.178 C 
ATOM     19  HN  UNK N   1      31.219  18.172   8.670  1.00  0.00     0.161 HD
HETATM   20  N   UNK N   1      34.197  17.598   7.401  0.00  0.00    -0.335 N 
ATOM     21  HN  UNK N   1      35.139  17.975   7.515  1.00  0.00     0.168 HD
BRANCH  16  22
HETATM   22  O   UNK N   1      35.057  16.161   5.859  0.00  0.00    -0.348 OA
HETATM   23  H   UNK N   1      35.944  16.323   6.114  0.00  0.00     0.219 HD
ENDBRANCH  16  22
ENDBRANCH   9  10
ENDBRANCH   6   9
BRANCH   8  24
HETATM   24  O   UNK N   1      25.288  19.126   5.728  0.00  0.00    -0.393 OA
HETATM   25  H   UNK N   1      24.395  18.764   5.614  0.00  0.00     0.210 HD
ENDBRANCH   8  24
ENDBRANCH   1   4
TORSDOF 5
ENDMDL
MODEL 2
REMARK VINA RESULT:      -5.5      9.189     10.995
REMARK  5 active torsions:
REMARK  status: ('A' for Active; 'I' for Inactive)
REMARK    1  A    between atoms: C_7  and  C_2 
REMARK    2  A    between atoms: N_18  and  C_2 
REMARK    3  A    between atoms: C_8  and  C_5 
REMARK    4  A    between atoms: C_9  and  O_20 
REMARK    5  A    between atoms: O_21  and  C_12 
ROOT
HETATM    1  C   UNK N   1      20.789  14.150   9.697  0.00  0.00     0.173 C 
HETATM    2  O   UNK N   1      21.911  13.367   9.977  0.00  0.00    -0.400 OA
HETATM    3  H   UNK N   1      22.712  12.910  10.278  0.00  0.00     0.209 HD
ENDROOT
BRANCH   1   4
HETATM    4  C   UNK N   1      21.113  15.266   8.702  0.00  0.00     0.068 C 
HETATM    5  C   UNK N   1      21.206  14.857   7.250  0.00  0.00     0.282 C 
HETATM    6  N   UNK N   1      21.304  16.143   6.571  0.00  0.00     0.095 N 
HETATM    7  C   UNK N   1      20.293  16.964   7.249  0.00  0.00     0.304 C 
HETATM    8  C   UNK N   1      20.133  16.432   8.659  0.00  0.00     0.154 C 
BRANCH   6   9
HETATM    9  C   UNK N   1      21.041  16.004   5.133  0.00  0.00     0.310 C 
BRANCH   9  10
HETATM   10  C   UNK N   1      21.176  17.313   4.374  0.00  0.00    -0.012 C 
HETATM   11  C   UNK N   1      22.243  18.092   4.412  0.00  0.00     0.090 C 
HETATM   12  N   UNK N   1      22.022  19.285   3.727  0.00  0.00    -0.385 N 
HETATM   13  C   UNK N   1      20.676  19.341   3.228  0.00  0.00     0.183 C 
HETATM   14  H   UNK N   1      22.697  19.991   3.602  0.00  0.00     0.159 HD
HETATM   15  C   UNK N   1      20.087  17.930   3.539  0.00  0.00     0.145 C 
HETATM   16  C   UNK N   1      20.687  19.729   1.782  0.00  0.00     0.142 C 
HETATM   17  N   UNK N   1      19.834  17.121   2.359  0.00  0.00    -0.375 N 
HETATM   18  C   UNK N   1      19.935  17.564   1.150  0.00  0.00     0.178 C 
ATOM     19  HN  UNK N   1      19.560  16.147   2.493  1.00  0.00     0.161 HD
HETATM   20  N   UNK N   1      20.333  18.896   0.865  0.00  0.00    -0.335 N 
ATOM     21  HN  UNK N   1      20.338  19.207  -0.107  1.00  0.00     0.168 HD
BRANCH  16  22
HETATM   22  O   UNK N   1      21.100  20.961   1.436  0.00  0.00    -0.348 OA
HETATM   23  H   UNK N   1      21.565  21.512   2.035  0.00  0.00     0.219 HD
ENDBRANCH  16  22
ENDBRANCH   9  10
ENDBRANCH   6   9
BRANCH   8  24
HETATM   24  O   UNK N   1      18.808  16.021   8.814  0.00  0.00    -0.393 OA
HETATM   25  H   UNK N   1      17.856  16.107   8.646  0.00  0.00     0.210 HD
ENDBRANCH   8  24
ENDBRANCH   1   4
TORSDOF 5
ENDMDL
MODEL 3
REMARK VINA RESULT:      -5.5      8.327      9.990
REMARK  5 active torsions:
REMARK  status: ('A' for Active; 'I' for Inactive)
REMARK    1  A    between atoms: C_7  and  C_2 
REMARK    2  A    between atoms: N_18  and  C_2 
REMARK    3  A    between atoms: C_8  and  C_5 
REMARK    4  A    between atoms: C_9  and  O_20 
REMARK    5  A    between atoms: O_21  and  C_12 
ROOT
HETATM    1  C   UNK N   1      20.450  21.194   1.105  0.00  0.00     0.173 C 
HETATM    2  O   UNK N   1      20.798  20.481  -0.045  0.00  0.00    -0.400 OA
HETATM    3  H   UNK N   1      20.911  19.934  -0.838  0.00  0.00     0.209 HD
ENDROOT
BRANCH   1   4
HETATM    4  C   UNK N   1      20.821  20.430   2.377  0.00  0.00     0.068 C 
HETATM    5  C   UNK N   1      20.648  18.930   2.326  0.00  0.00     0.282 C 
HETATM    6  N   UNK N   1      21.274  18.503   3.571  0.00  0.00     0.095 N 
HETATM    7  C   UNK N   1      22.505  19.301   3.625  0.00  0.00     0.304 C 
HETATM    8  C   UNK N   1      22.259  20.585   2.857  0.00  0.00     0.154 C 
BRANCH   6   9
HETATM    9  C   UNK N   1      21.542  17.059   3.561  0.00  0.00     0.310 C 
BRANCH   9  10
HETATM   10  C   UNK N   1      20.981  16.341   4.778  0.00  0.00    -0.012 C 
HETATM   11  C   UNK N   1      19.883  15.606   4.770  0.00  0.00     0.090 C 
HETATM   12  N   UNK N   1      19.546  15.189   6.056  0.00  0.00    -0.385 N 
HETATM   13  C   UNK N   1      20.462  15.730   7.021  0.00  0.00     0.183 C 
HETATM   14  H   UNK N   1      18.784  14.603   6.273  0.00  0.00     0.159 HD
HETATM   15  C   UNK N   1      21.560  16.432   6.163  0.00  0.00     0.145 C 
HETATM   16  C   UNK N   1      20.950  14.641   7.924  0.00  0.00     0.142 C 
HETATM   17  N   UNK N   1      22.858  15.780   6.213  0.00  0.00    -0.375 N 
HETATM   18  C   UNK N   1      23.138  14.800   7.006  0.00  0.00     0.178 C 
ATOM     19  HN  UNK N   1      23.589  16.115   5.586  1.00  0.00     0.161 HD
HETATM   20  N   UNK N   1      22.178  14.251   7.897  0.00  0.00    -0.335 N 
ATOM     21  HN  UNK N   1      22.473  13.518   8.542  1.00  0.00     0.168 HD
BRANCH  16  22
HETATM   22  O   UNK N   1      20.082  14.042   8.759  0.00  0.00    -0.348 OA
HETATM   23  H   UNK N   1      20.214  13.166   9.063  0.00  0.00     0.219 HD
ENDBRANCH  16  22
ENDBRANCH   9  10
ENDBRANCH   6   9
BRANCH   8  24
HETATM   24  O   UNK N   1      23.171  20.634   1.802  0.00  0.00    -0.393 OA
HETATM   25  H   UNK N   1      23.633  21.098   1.086  0.00  0.00     0.210 HD
ENDBRANCH   8  24
ENDBRANCH   1   4
TORSDOF 5
ENDMDL
MODEL 4
REMARK VINA RESULT:      -5.5      2.962      3.794
REMARK  5 active torsions:
REMARK  status: ('A' for Active; 'I' for Inactive)
REMARK    1  A    between atoms: C_7  and  C_2 
REMARK    2  A    between atoms: N_18  and  C_2 
REMARK    3  A    between atoms: C_8  and  C_5 
REMARK    4  A    between atoms: C_9  and  O_20 
REMARK    5  A    between atoms: O_21  and  C_12 
ROOT
HETATM    1  C   UNK N   1      23.258  19.699   3.354  0.00  0.00     0.173 C 
HETATM    2  O   UNK N   1      22.942  20.991   2.927  0.00  0.00    -0.400 OA
HETATM    3  H   UNK N   1      22.778  21.851   2.510  0.00  0.00     0.209 HD
ENDROOT
BRANCH   1   4
HETATM    4  C   UNK N   1      24.636  19.645   4.016  0.00  0.00     0.068 C 
HETATM    5  C   UNK N   1      25.342  18.309   3.973  0.00  0.00     0.282 C 
HETATM    6  N   UNK N   1      26.669  18.643   4.475  0.00  0.00     0.095 N 
HETATM    7  C   UNK N   1      26.992  19.894   3.778  0.00  0.00     0.304 C 
HETATM    8  C   UNK N   1      25.687  20.596   3.458  0.00  0.00     0.154 C 
BRANCH   6   9
HETATM    9  C   UNK N   1      27.630  17.573   4.181  0.00  0.00     0.310 C 
BRANCH   9  10
HETATM   10  C   UNK N   1      28.717  17.442   5.235  0.00  0.00    -0.012 C 
HETATM   11  C   UNK N   1      30.008  17.594   4.999  0.00  0.00     0.090 C 
HETATM   12  N   UNK N   1      30.768  17.282   6.124  0.00  0.00    -0.385 N 
HETATM   13  C   UNK N   1      29.925  16.830   7.195  0.00  0.00     0.183 C 
HETATM   14  H   UNK N   1      31.749  17.361   6.177  0.00  0.00     0.159 HD
HETATM   15  C   UNK N   1      28.473  17.051   6.667  0.00  0.00     0.145 C 
HETATM   16  C   UNK N   1      30.269  17.560   8.455  0.00  0.00     0.142 C 
HETATM   17  N   UNK N   1      27.744  18.099   7.361  0.00  0.00    -0.375 N 
HETATM   18  C   UNK N   1      28.182  18.699   8.418  0.00  0.00     0.178 C 
ATOM     19  HN  UNK N   1      26.835  18.378   6.992  1.00  0.00     0.161 HD
HETATM   20  N   UNK N   1      29.446  18.396   8.989  0.00  0.00    -0.335 N 
ATOM     21  HN  UNK N   1      29.714  18.859   9.858  1.00  0.00     0.168 HD
BRANCH  16  22
HETATM   22  O   UNK N   1      31.472  17.358   9.024  0.00  0.00    -0.348 OA
HETATM   23  H   UNK N   1      31.926  18.043   9.474  0.00  0.00     0.219 HD
ENDBRANCH  16  22
ENDBRANCH   9  10
ENDBRANCH   6   9
BRANCH   8  24
HETATM   24  O   UNK N   1      25.603  20.730   2.070  0.00  0.00    -0.393 OA
HETATM   25  H   UNK N   1      25.690  21.238   1.248  0.00  0.00     0.210 HD
ENDBRANCH   8  24
ENDBRANCH   1   4
TORSDOF 5
ENDMDL
MODEL 5
REMARK VINA RESULT:      -5.4      9.368     11.613
REMARK  5 active torsions:
REMARK  status: ('A' for Active; 'I' for Inactive)
REMARK    1  A    between atoms: C_7  and  C_2 
REMARK    2  A    between atoms: N_18  and  C_2 
REMARK    3  A    between atoms: C_8  and  C_5 
REMARK    4  A    between atoms: C_9  and  O_20 
REMARK    5  A    between atoms: O_21  and  C_12 
ROOT
HETATM    1  C   UNK N   1      24.637  12.135  10.563  0.00  0.00     0.173 C 
HETATM    2  O   UNK N   1      24.820  12.314  11.936  0.00  0.00    -0.400 OA
HETATM    3  H   UNK N   1      24.861  12.329  12.905  0.00  0.00     0.209 HD
ENDROOT
BRANCH   1   4
HETATM    4  C   UNK N   1      23.485  12.991  10.031  0.00  0.00     0.068 C 
HETATM    5  C   UNK N   1      23.128  12.794   8.576  0.00  0.00     0.282 C 
HETATM    6  N   UNK N   1      21.897  13.566   8.452  0.00  0.00     0.095 N 
HETATM    7  C   UNK N   1      21.144  13.202   9.658  0.00  0.00     0.304 C 
HETATM    8  C   UNK N   1      22.143  12.820  10.732  0.00  0.00     0.154 C 
BRANCH   6   9
HETATM    9  C   UNK N   1      21.180  13.223   7.217  0.00  0.00     0.310 C 
BRANCH   9  10
HETATM   10  C   UNK N   1      20.715  14.444   6.441  0.00  0.00    -0.012 C 
HETATM   11  C   UNK N   1      21.230  15.654   6.573  0.00  0.00     0.090 C 
HETATM   12  N   UNK N   1      20.512  16.592   5.835  0.00  0.00    -0.385 N 
HETATM   13  C   UNK N   1      19.384  15.976   5.193  0.00  0.00     0.183 C 
HETATM   14  H   UNK N   1      20.746  17.546   5.764  0.00  0.00     0.159 HD
HETATM   15  C   UNK N   1      19.559  14.452   5.477  0.00  0.00     0.145 C 
HETATM   16  C   UNK N   1      19.352  16.361   3.747  0.00  0.00     0.142 C 
HETATM   17  N   UNK N   1      19.878  13.662   4.299  0.00  0.00    -0.375 N 
HETATM   18  C   UNK N   1      19.870  14.133   3.097  0.00  0.00     0.178 C 
ATOM     19  HN  UNK N   1      20.121  12.680   4.430  1.00  0.00     0.161 HD
HETATM   20  N   UNK N   1      19.567  15.491   2.820  0.00  0.00    -0.335 N 
ATOM     21  HN  UNK N   1      19.517  15.793   1.846  1.00  0.00     0.168 HD
BRANCH  16  22
HETATM   22  O   UNK N   1      19.119  17.643   3.413  0.00  0.00    -0.348 OA
HETATM   23  H   UNK N   1      19.558  18.351   3.842  0.00  0.00     0.219 HD
ENDBRANCH  16  22
ENDBRANCH   9  10
ENDBRANCH   6   9
BRANCH   8  24
HETATM   24  O   UNK N   1      21.896  11.495  11.095  0.00  0.00    -0.393 OA
HETATM   25  H   UNK N   1      22.081  10.697  11.615  0.00  0.00     0.210 HD
ENDBRANCH   8  24
ENDBRANCH   1   4
TORSDOF 5
ENDMDL
MODEL 6
REMARK VINA RESULT:      -5.4      5.107      7.039
REMARK  5 active torsions:
REMARK  status: ('A' for Active; 'I' for Inactive)
REMARK    1  A    between atoms: C_7  and  C_2 
REMARK    2  A    between atoms: N_18  and  C_2 
REMARK    3  A    between atoms: C_8  and  C_5 
REMARK    4  A    between atoms: C_9  and  O_20 
REMARK    5  A    between atoms: O_21  and  C_12 
ROOT
HETATM    1  C   UNK N   1      19.475  19.159   2.746  0.00  0.00     0.173 C 
HETATM    2  O   UNK N   1      18.228  18.727   2.288  0.00  0.00    -0.400 OA
HETATM    3  H   UNK N   1      17.332  18.404   2.104  0.00  0.00     0.209 HD
ENDROOT
BRANCH   1   4
HETATM    4  C   UNK N   1      20.495  18.019   2.766  0.00  0.00     0.068 C 
HETATM    5  C   UNK N   1      21.676  18.200   3.692  0.00  0.00     0.282 C 
HETATM    6  N   UNK N   1      22.314  16.891   3.639  0.00  0.00     0.095 N 
HETATM    7  C   UNK N   1      21.186  15.957   3.734  0.00  0.00     0.304 C 
HETATM    8  C   UNK N   1      19.962  16.649   3.166  0.00  0.00     0.154 C 
BRANCH   6   9
HETATM    9  C   UNK N   1      23.273  16.725   4.738  0.00  0.00     0.310 C 
BRANCH   9  10
HETATM   10  C   UNK N   1      24.718  16.692   4.268  0.00  0.00    -0.012 C 
HETATM   11  C   UNK N   1      25.118  16.167   3.122  0.00  0.00     0.090 C 
HETATM   12  N   UNK N   1      26.508  16.161   3.028  0.00  0.00    -0.385 N 
HETATM   13  C   UNK N   1      27.100  16.674   4.232  0.00  0.00     0.183 C 
HETATM   14  H   UNK N   1      27.014  15.847   2.243  0.00  0.00     0.159 HD
HETATM   15  C   UNK N   1      25.889  17.182   5.074  0.00  0.00     0.145 C 
HETATM   16  C   UNK N   1      28.126  17.709   3.891  0.00  0.00     0.142 C 
HETATM   17  N   UNK N   1      25.834  18.627   5.220  0.00  0.00    -0.375 N 
HETATM   18  C   UNK N   1      26.771  19.424   4.827  0.00  0.00     0.178 C 
ATOM     19  HN  UNK N   1      25.007  19.035   5.657  1.00  0.00     0.161 HD
HETATM   20  N   UNK N   1      27.946  18.951   4.187  0.00  0.00    -0.335 N 
ATOM     21  HN  UNK N   1      28.679  19.621   3.953  1.00  0.00     0.168 HD
BRANCH  16  22
HETATM   22  O   UNK N   1      29.243  17.338   3.239  0.00  0.00    -0.348 OA
HETATM   23  H   UNK N   1      29.554  17.804   2.489  0.00  0.00     0.219 HD
ENDBRANCH  16  22
ENDBRANCH   9  10
ENDBRANCH   6   9
BRANCH   8  24
HETATM   24  O   UNK N   1      19.005  16.724   4.180  0.00  0.00    -0.393 OA
HETATM   25  H   UNK N   1      18.276  16.355   4.703  0.00  0.00     0.210 HD
ENDBRANCH   8  24
ENDBRANCH   1   4
TORSDOF 5
ENDMDL
MODEL 7
REMARK VINA RESULT:      -5.4      2.540      3.599
REMARK  5 active torsions:
REMARK  status: ('A' for Active; 'I' for Inactive)
REMARK    1  A    between atoms: C_7  and  C_2 
REMARK    2  A    between atoms: N_18  and  C_2 
REMARK    3  A    between atoms: C_8  and  C_5 
REMARK    4  A    between atoms: C_9  and  O_20 
REMARK    5  A    between atoms: O_21  and  C_12 
ROOT
HETATM    1  C   UNK N   1      27.278  17.030   6.724  0.00  0.00     0.173 C 
HETATM    2  O   UNK N   1      26.244  16.118   6.948  0.00  0.00    -0.400 OA
HETATM    3  H   UNK N   1      25.463  15.588   7.170  0.00  0.00     0.209 HD
ENDROOT
BRANCH   1   4
HETATM    4  C   UNK N   1      28.341  16.959   7.822  0.00  0.00     0.068 C 
HETATM    5  C   UNK N   1      29.741  17.362   7.418  0.00  0.00     0.282 C 
HETATM    6  N   UNK N   1      30.436  17.393   8.699  0.00  0.00     0.095 N 
HETATM    7  C   UNK N   1      29.486  18.074   9.586  0.00  0.00     0.304 C 
HETATM    8  C   UNK N   1      28.089  17.816   9.056  0.00  0.00     0.154 C 
BRANCH   6   9
HETATM    9  C   UNK N   1      31.714  18.108   8.590  0.00  0.00     0.310 C 
BRANCH   9  10
HETATM   10  C   UNK N   1      32.859  17.216   8.138  0.00  0.00    -0.012 C 
HETATM   11  C   UNK N   1      33.758  17.558   7.232  0.00  0.00     0.090 C 
HETATM   12  N   UNK N   1      34.598  16.489   6.926  0.00  0.00    -0.385 N 
HETATM   13  C   UNK N   1      34.202  15.311   7.647  0.00  0.00     0.183 C 
HETATM   14  H   UNK N   1      35.360  16.536   6.303  0.00  0.00     0.159 HD
HETATM   15  C   UNK N   1      33.075  15.803   8.607  0.00  0.00     0.145 C 
HETATM   16  C   UNK N   1      35.394  14.700   8.314  0.00  0.00     0.142 C 
HETATM   17  N   UNK N   1      33.445  15.787  10.012  0.00  0.00    -0.375 N 
HETATM   18  C   UNK N   1      34.542  15.274  10.458  0.00  0.00     0.178 C 
ATOM     19  HN  UNK N   1      32.801  16.205  10.684  1.00  0.00     0.161 HD
HETATM   20  N   UNK N   1      35.510  14.692   9.598  0.00  0.00    -0.335 N 
ATOM     21  HN  UNK N   1      36.330  14.248  10.013  1.00  0.00     0.168 HD
BRANCH  16  22
HETATM   22  O   UNK N   1      36.374  14.174   7.557  0.00  0.00    -0.348 OA
HETATM   23  H   UNK N   1      36.441  14.357   6.640  0.00  0.00     0.219 HD
ENDBRANCH  16  22
ENDBRANCH   9  10
ENDBRANCH   6   9
BRANCH   8  24
HETATM   24  O   UNK N   1      27.516  19.050   8.742  0.00  0.00    -0.393 OA
HETATM   25  H   UNK N   1      27.571  19.998   8.542  0.00  0.00     0.210 HD
ENDBRANCH   8  24
ENDBRANCH   1   4
TORSDOF 5
ENDMDL
MODEL 8
REMARK VINA RESULT:      -5.3      5.983      8.652
REMARK  5 active torsions:
REMARK  status: ('A' for Active; 'I' for Inactive)
REMARK    1  A    between atoms: C_7  and  C_2 
REMARK    2  A    between atoms: N_18  and  C_2 
REMARK    3  A    between atoms: C_8  and  C_5 
REMARK    4  A    between atoms: C_9  and  O_20 
REMARK    5  A    between atoms: O_21  and  C_12 
ROOT
HETATM    1  C   UNK N   1      34.187  16.669   6.127  0.00  0.00     0.173 C 
HETATM    2  O   UNK N   1      33.666  17.937   5.861  0.00  0.00    -0.400 OA
HETATM    3  H   UNK N   1      33.435  18.862   5.683  0.00  0.00     0.209 HD
ENDROOT
BRANCH   1   4
HETATM    4  C   UNK N   1      34.197  16.365   7.626  0.00  0.00     0.068 C 
HETATM    5  C   UNK N   1      35.316  15.477   8.118  0.00  0.00     0.282 C 
HETATM    6  N   UNK N   1      35.168  15.563   9.565  0.00  0.00     0.095 N 
HETATM    7  C   UNK N   1      34.938  16.994   9.800  0.00  0.00     0.304 C 
HETATM    8  C   UNK N   1      34.294  17.570   8.554  0.00  0.00     0.154 C 
BRANCH   6   9
HETATM    9  C   UNK N   1      36.368  15.068  10.251  0.00  0.00     0.310 C 
BRANCH   9  10
HETATM   10  C   UNK N   1      36.067  13.978  11.266  0.00  0.00    -0.012 C 
HETATM   11  C   UNK N   1      36.247  12.687  11.049  0.00  0.00     0.090 C 
HETATM   12  N   UNK N   1      35.757  11.924  12.108  0.00  0.00    -0.385 N 
HETATM   13  C   UNK N   1      35.148  12.767  13.100  0.00  0.00     0.183 C 
HETATM   14  H   UNK N   1      35.821  10.943  12.168  0.00  0.00     0.159 HD
HETATM   15  C   UNK N   1      35.458  14.219  12.620  0.00  0.00     0.145 C 
HETATM   16  C   UNK N   1      35.670  12.412  14.457  0.00  0.00     0.142 C 
HETATM   17  N   UNK N   1      36.389  14.938  13.473  0.00  0.00    -0.375 N 
HETATM   18  C   UNK N   1      36.812  14.491  14.608  0.00  0.00     0.178 C 
ATOM     19  HN  UNK N   1      36.727  15.847  13.157  1.00  0.00     0.161 HD
HETATM   20  N   UNK N   1      36.416  13.228  15.119  0.00  0.00    -0.335 N 
ATOM     21  HN  UNK N   1      36.736  12.953  16.048  1.00  0.00     0.168 HD
BRANCH  16  22
HETATM   22  O   UNK N   1      35.374  11.209  14.980  0.00  0.00    -0.348 OA
HETATM   23  H   UNK N   1      34.967  10.536  14.471  0.00  0.00     0.219 HD
ENDBRANCH  16  22
ENDBRANCH   9  10
ENDBRANCH   6   9
BRANCH   8  24
HETATM   24  O   UNK N   1      35.141  18.561   8.054  0.00  0.00    -0.393 OA
HETATM   25  H   UNK N   1      35.675  18.960   7.350  0.00  0.00     0.210 HD
ENDBRANCH   8  24
ENDBRANCH   1   4
TORSDOF 5
ENDMDL
MODEL 9
REMARK VINA RESULT:      -5.3     12.014     14.485
REMARK  5 active torsions:
REMARK  status: ('A' for Active; 'I' for Inactive)
REMARK    1  A    between atoms: C_7  and  C_2 
REMARK    2  A    between atoms: N_18  and  C_2 
REMARK    3  A    between atoms: C_8  and  C_5 
REMARK    4  A    between atoms: C_9  and  O_20 
REMARK    5  A    between atoms: O_21  and  C_12 
ROOT
HETATM    1  C   UNK N   1      32.700  21.442  -3.282  0.00  0.00     0.173 C 
HETATM    2  O   UNK N   1      32.778  21.093  -1.932  0.00  0.00    -0.400 OA
HETATM    3  H   UNK N   1      32.806  20.721  -1.037  0.00  0.00     0.209 HD
ENDROOT
BRANCH   1   4
HETATM    4  C   UNK N   1      31.283  21.866  -3.675  0.00  0.00     0.068 C 
HETATM    5  C   UNK N   1      31.130  23.279  -4.188  0.00  0.00     0.282 C 
HETATM    6  N   UNK N   1      29.752  23.289  -4.663  0.00  0.00     0.095 N 
HETATM    7  C   UNK N   1      29.631  22.015  -5.382  0.00  0.00     0.304 C 
HETATM    8  C   UNK N   1      30.614  21.040  -4.767  0.00  0.00     0.154 C 
BRANCH   6   9
HETATM    9  C   UNK N   1      29.499  24.448  -5.528  0.00  0.00     0.310 C 
BRANCH   9  10
HETATM   10  C   UNK N   1      28.645  25.514  -4.861  0.00  0.00    -0.012 C 
HETATM   11  C   UNK N   1      29.102  26.680  -4.439  0.00  0.00     0.090 C 
HETATM   12  N   UNK N   1      28.119  27.388  -3.749  0.00  0.00    -0.385 N 
HETATM   13  C   UNK N   1      26.913  26.614  -3.652  0.00  0.00     0.183 C 
HETATM   14  H   UNK N   1      28.237  28.294  -3.381  0.00  0.00     0.159 HD
HETATM   15  C   UNK N   1      27.187  25.353  -4.528  0.00  0.00     0.145 C 
HETATM   16  C   UNK N   1      25.742  27.447  -4.071  0.00  0.00     0.142 C 
HETATM   17  N   UNK N   1      26.394  25.293  -5.745  0.00  0.00    -0.375 N 
HETATM   18  C   UNK N   1      25.437  26.116  -6.018  0.00  0.00     0.178 C 
ATOM     19  HN  UNK N   1      26.605  24.559  -6.421  1.00  0.00     0.161 HD
HETATM   20  N   UNK N   1      25.087  27.183  -5.150  0.00  0.00    -0.335 N 
ATOM     21  HN  UNK N   1      24.284  27.765  -5.389  1.00  0.00     0.168 HD
BRANCH  16  22
HETATM   22  O   UNK N   1      25.385  28.504  -3.320  0.00  0.00    -0.348 OA
HETATM   23  H   UNK N   1      24.694  29.082  -3.579  0.00  0.00     0.219 HD
ENDBRANCH  16  22
ENDBRANCH   9  10
ENDBRANCH   6   9
BRANCH   8  24
HETATM   24  O   UNK N   1      31.510  20.649  -5.764  0.00  0.00    -0.393 OA
HETATM   25  H   UNK N   1      32.055  20.825  -6.548  0.00  0.00     0.210 HD
ENDBRANCH   8  24
ENDBRANCH   1   4
TORSDOF 5
ENDMDL
