MODEL 1
REMARK VINA RESULT:      -5.0      0.000      0.000
REMARK  1 active torsions:
REMARK  status: ('A' for Active; 'I' for Inactive)
REMARK    1  A    between atoms: O_12  and  C_4 
REMARK       I    between atoms: N_8  and  C_7 
ROOT
HETATM    1  C   UNK N   1      21.143  19.621   3.871  0.00  0.00     0.039 A 
HETATM    2  C   UNK N   1      20.608  18.319   3.798  0.00  0.00     0.035 A 
HETATM    3  C   UNK N   1      20.920  19.884   1.445  0.00  0.00     0.069 A 
HETATM    4  C   UNK N   1      21.298  20.401   2.697  0.00  0.00     0.068 A 
HETATM    5  C   UNK N   1      20.247  17.846   2.540  0.00  0.00     0.076 A 
HETATM    6  C   UNK N   1      20.398  18.598   1.414  0.00  0.00     0.079 A 
HETATM    7  C   UNK N   1      19.572  16.729   0.873  0.00  0.00     0.676 A 
HETATM    8  N   UNK N   1      19.093  15.778   0.167  0.00  0.00    -0.234 N 
ATOM      9  HN  UNK N   1      19.001  15.889  -0.843  1.00  0.00     0.174 HD
HETATM   10  N   UNK N   1      19.723  16.653   2.219  0.00  0.00    -0.190 N 
HETATM   11  N   UNK N   1      19.976  17.909   0.345  0.00  0.00    -0.190 N 
HETATM   12  H   UNK N   1      18.813  14.937   0.598  0.00  0.00     0.174 HD
HETATM   13  H   UNK N   1      19.502  15.902   2.817  0.00  0.00     0.184 HD
HETATM   14  H   UNK N   1      19.962  18.193  -0.597  0.00  0.00     0.184 HD
ENDROOT
BRANCH   4  15
HETATM   15  O   UNK N   1      21.808  21.639   2.776  0.00  0.00    -0.361 OA
HETATM   16  H   UNK N   1      21.795  22.200   2.026  0.00  0.00     0.217 HD
ENDBRANCH   4  15
TORSDOF 1
ENDMDL
MODEL 2
REMARK VINA RESULT:      -5.0     11.063     11.584
REMARK  1 active torsions:
REMARK  status: ('A' for Active; 'I' for Inactive)
REMARK    1  A    between atoms: O_12  and  C_4 
REMARK       I    between atoms: N_8  and  C_7 
ROOT
HETATM    1  C   UNK N   1      25.324  27.813  -4.682  0.00  0.00     0.039 A 
HETATM    2  C   UNK N   1      25.050  27.012  -5.808  0.00  0.00     0.035 A 
HETATM    3  C   UNK N   1      26.478  25.946  -3.593  0.00  0.00     0.069 A 
HETATM    4  C   UNK N   1      26.037  27.281  -3.577  0.00  0.00     0.068 A 
HETATM    5  C   UNK N   1      25.505  25.697  -5.782  0.00  0.00     0.076 A 
HETATM    6  C   UNK N   1      26.189  25.189  -4.720  0.00  0.00     0.079 A 
HETATM    7  C   UNK N   1      25.991  23.676  -6.183  0.00  0.00     0.676 A 
HETATM    8  N   UNK N   1      26.084  22.548  -6.776  0.00  0.00    -0.234 N 
ATOM      9  HN  UNK N   1      26.565  21.771  -6.322  1.00  0.00     0.174 HD
HETATM   10  N   UNK N   1      25.367  24.752  -6.726  0.00  0.00    -0.190 N 
HETATM   11  N   UNK N   1      26.507  23.908  -4.953  0.00  0.00    -0.190 N 
HETATM   12  H   UNK N   1      25.692  22.428  -7.671  0.00  0.00     0.174 HD
HETATM   13  H   UNK N   1      24.921  24.822  -7.601  0.00  0.00     0.184 HD
HETATM   14  H   UNK N   1      26.998  23.286  -4.369  0.00  0.00     0.184 HD
ENDROOT
BRANCH   4  15
HETATM   15  O   UNK N   1      26.293  28.051  -2.509  0.00  0.00    -0.361 OA
HETATM   16  H   UNK N   1      27.085  27.929  -2.023  0.00  0.00     0.217 HD
ENDBRANCH   4  15
TORSDOF 1
ENDMDL
MODEL 3
REMARK VINA RESULT:      -4.9      9.356     10.609
REMARK  1 active torsions:
REMARK  status: ('A' for Active; 'I' for Inactive)
REMARK    1  A    between atoms: O_12  and  C_4 
REMARK       I    between atoms: N_8  and  C_7 
ROOT
HETATM    1  C   UNK N   1      19.778  13.191  10.549  0.00  0.00     0.039 A 
HETATM    2  C   UNK N   1      20.620  12.290  11.232  0.00  0.00     0.035 A 
HETATM    3  C   UNK N   1      21.711  14.210   9.441  0.00  0.00     0.069 A 
HETATM    4  C   UNK N   1      20.323  14.148   9.656  0.00  0.00     0.068 A 
HETATM    5  C   UNK N   1      21.987  12.386  10.990  0.00  0.00     0.076 A 
HETATM    6  C   UNK N   1      22.507  13.307  10.132  0.00  0.00     0.079 A 
HETATM    7  C   UNK N   1      24.091  12.163  10.939  0.00  0.00     0.676 A 
HETATM    8  N   UNK N   1      25.269  11.729  11.179  0.00  0.00    -0.234 N 
ATOM      9  HN  UNK N   1      26.073  12.154  10.717  1.00  0.00     0.174 HD
HETATM   10  N   UNK N   1      22.977  11.647  11.516  0.00  0.00    -0.190 N 
HETATM   11  N   UNK N   1      23.840  13.183  10.084  0.00  0.00    -0.190 N 
HETATM   12  H   UNK N   1      25.401  10.984  11.809  0.00  0.00     0.174 HD
HETATM   13  H   UNK N   1      22.911  10.908  12.163  0.00  0.00     0.184 HD
HETATM   14  H   UNK N   1      24.483  13.708   9.555  0.00  0.00     0.184 HD
ENDROOT
BRANCH   4  15
HETATM   15  O   UNK N   1      19.513  15.002   9.011  0.00  0.00    -0.361 OA
HETATM   16  H   UNK N   1      19.771  15.356   8.182  0.00  0.00     0.217 HD
ENDBRANCH   4  15
TORSDOF 1
ENDMDL
MODEL 4
REMARK VINA RESULT:      -4.8     11.618     12.548
REMARK  1 active torsions:
REMARK  status: ('A' for Active; 'I' for Inactive)
REMARK    1  A    between atoms: O_12  and  C_4 
REMARK       I    between atoms: N_8  and  C_7 
ROOT
HETATM    1  C   UNK N   1      32.583  17.186   6.073  0.00  0.00     0.039 A 
HETATM    2  C   UNK N   1      31.182  17.036   6.086  0.00  0.00     0.035 A 
HETATM    3  C   UNK N   1      32.540  18.106   8.343  0.00  0.00     0.069 A 
HETATM    4  C   UNK N   1      33.260  17.720   7.199  0.00  0.00     0.068 A 
HETATM    5  C   UNK N   1      30.509  17.431   7.238  0.00  0.00     0.076 A 
HETATM    6  C   UNK N   1      31.162  17.943   8.318  0.00  0.00     0.079 A 
HETATM    7  C   UNK N   1      29.093  17.887   8.744  0.00  0.00     0.676 A 
HETATM    8  N   UNK N   1      27.981  18.015   9.362  0.00  0.00    -0.234 N 
ATOM      9  HN  UNK N   1      27.965  18.398  10.307  1.00  0.00     0.174 HD
HETATM   10  N   UNK N   1      29.190  17.385   7.487  0.00  0.00    -0.190 N 
HETATM   11  N   UNK N   1      30.283  18.239   9.285  0.00  0.00    -0.190 N 
HETATM   12  H   UNK N   1      27.141  17.744   8.926  0.00  0.00     0.174 HD
HETATM   13  H   UNK N   1      28.468  17.066   6.899  0.00  0.00     0.184 HD
HETATM   14  H   UNK N   1      30.460  18.621  10.175  0.00  0.00     0.184 HD
ENDROOT
BRANCH   4  15
HETATM   15  O   UNK N   1      34.594  17.859   7.176  0.00  0.00    -0.361 OA
HETATM   16  H   UNK N   1      34.997  18.585   7.610  0.00  0.00     0.217 HD
ENDBRANCH   4  15
TORSDOF 1
ENDMDL
MODEL 5
REMARK VINA RESULT:      -4.8     21.599     22.387
REMARK  1 active torsions:
REMARK  status: ('A' for Active; 'I' for Inactive)
REMARK    1  A    between atoms: O_12  and  C_4 
REMARK       I    between atoms: N_8  and  C_7 
ROOT
HETATM    1  C   UNK N   1      41.021  20.109   3.119  0.00  0.00     0.039 A 
HETATM    2  C   UNK N   1      42.320  20.451   3.546  0.00  0.00     0.035 A 
HETATM    3  C   UNK N   1      40.806  22.250   1.948  0.00  0.00     0.069 A 
HETATM    4  C   UNK N   1      40.266  21.006   2.323  0.00  0.00     0.068 A 
HETATM    5  C   UNK N   1      42.815  21.690   3.153  0.00  0.00     0.076 A 
HETATM    6  C   UNK N   1      42.088  22.550   2.388  0.00  0.00     0.079 A 
HETATM    7  C   UNK N   1      43.960  23.436   2.806  0.00  0.00     0.676 A 
HETATM    8  N   UNK N   1      44.922  24.278   2.827  0.00  0.00    -0.234 N 
ATOM      9  HN  UNK N   1      44.831  25.169   2.339  1.00  0.00     0.174 HD
HETATM   10  N   UNK N   1      44.011  22.234   3.431  0.00  0.00    -0.190 N 
HETATM   11  N   UNK N   1      42.795  23.664   2.156  0.00  0.00    -0.190 N 
HETATM   12  H   UNK N   1      45.751  24.066   3.315  0.00  0.00     0.174 HD
HETATM   13  H   UNK N   1      44.747  21.851   3.962  0.00  0.00     0.184 HD
HETATM   14  H   UNK N   1      42.531  24.458   1.636  0.00  0.00     0.184 HD
ENDROOT
BRANCH   4  15
HETATM   15  O   UNK N   1      39.031  20.672   1.921  0.00  0.00    -0.361 OA
HETATM   16  H   UNK N   1      38.327  21.285   2.010  0.00  0.00     0.217 HD
ENDBRANCH   4  15
TORSDOF 1
ENDMDL
MODEL 6
REMARK VINA RESULT:      -4.8     12.849     13.673
REMARK  1 active torsions:
REMARK  status: ('A' for Active; 'I' for Inactive)
REMARK    1  A    between atoms: O_12  and  C_4 
REMARK       I    between atoms: N_8  and  C_7 
ROOT
HETATM    1  C   UNK N   1      30.704  17.223   5.650  0.00  0.00     0.039 A 
HETATM    2  C   UNK N   1      30.838  17.106   7.048  0.00  0.00     0.035 A 
HETATM    3  C   UNK N   1      33.123  17.532   5.411  0.00  0.00     0.069 A 
HETATM    4  C   UNK N   1      31.844  17.435   4.834  0.00  0.00     0.068 A 
HETATM    5  C   UNK N   1      32.120  17.207   7.577  0.00  0.00     0.076 A 
HETATM    6  C   UNK N   1      33.213  17.412   6.791  0.00  0.00     0.079 A 
HETATM    7  C   UNK N   1      33.842  17.295   8.805  0.00  0.00     0.676 A 
HETATM    8  N   UNK N   1      34.594  17.286   9.839  0.00  0.00    -0.234 N 
ATOM      9  HN  UNK N   1      35.601  17.415   9.738  1.00  0.00     0.174 HD
HETATM   10  N   UNK N   1      32.497  17.130   8.864  0.00  0.00    -0.190 N 
HETATM   11  N   UNK N   1      34.316  17.471   7.550  0.00  0.00    -0.190 N 
HETATM   12  H   UNK N   1      34.202  17.155  10.733  0.00  0.00     0.174 HD
HETATM   13  H   UNK N   1      31.933  16.988   9.658  0.00  0.00     0.184 HD
HETATM   14  H   UNK N   1      35.248  17.609   7.262  0.00  0.00     0.184 HD
ENDROOT
BRANCH   4  15
HETATM   15  O   UNK N   1      31.707  17.546   3.504  0.00  0.00    -0.361 OA
HETATM   16  H   UNK N   1      32.276  18.110   3.019  0.00  0.00     0.217 HD
ENDBRANCH   4  15
TORSDOF 1
ENDMDL
MODEL 7
REMARK VINA RESULT:      -4.8     11.420     12.400
REMARK  1 active torsions:
REMARK  status: ('A' for Active; 'I' for Inactive)
REMARK    1  A    between atoms: O_12  and  C_4 
REMARK       I    between atoms: N_8  and  C_7 
ROOT
HETATM    1  C   UNK N   1      28.454  17.513   7.372  0.00  0.00     0.039 A 
HETATM    2  C   UNK N   1      29.605  17.214   6.615  0.00  0.00     0.035 A 
HETATM    3  C   UNK N   1      29.838  18.120   9.300  0.00  0.00     0.069 A 
HETATM    4  C   UNK N   1      28.570  17.965   8.711  0.00  0.00     0.068 A 
HETATM    5  C   UNK N   1      30.838  17.381   7.237  0.00  0.00     0.076 A 
HETATM    6  C   UNK N   1      30.947  17.815   8.523  0.00  0.00     0.079 A 
HETATM    7  C   UNK N   1      32.888  17.484   7.755  0.00  0.00     0.676 A 
HETATM    8  N   UNK N   1      34.162  17.411   7.677  0.00  0.00    -0.234 N 
ATOM      9  HN  UNK N   1      34.737  17.664   8.481  1.00  0.00     0.174 HD
HETATM   10  N   UNK N   1      32.061  17.164   6.728  0.00  0.00    -0.190 N 
HETATM   11  N   UNK N   1      32.239  17.888   8.872  0.00  0.00    -0.190 N 
HETATM   12  H   UNK N   1      34.588  17.111   6.842  0.00  0.00     0.174 HD
HETATM   13  H   UNK N   1      32.301  16.848   5.827  0.00  0.00     0.184 HD
HETATM   14  H   UNK N   1      32.623  18.168   9.735  0.00  0.00     0.184 HD
ENDROOT
BRANCH   4  15
HETATM   15  O   UNK N   1      27.469  18.247   9.423  0.00  0.00    -0.361 OA
HETATM   16  H   UNK N   1      27.230  17.707  10.150  0.00  0.00     0.217 HD
ENDBRANCH   4  15
TORSDOF 1
ENDMDL
MODEL 8
REMARK VINA RESULT:      -4.8     21.105     22.174
REMARK  1 active torsions:
REMARK  status: ('A' for Active; 'I' for Inactive)
REMARK    1  A    between atoms: O_12  and  C_4 
REMARK       I    between atoms: N_8  and  C_7 
ROOT
HETATM    1  C   UNK N   1      34.560  10.602  15.186  0.00  0.00     0.039 A 
HETATM    2  C   UNK N   1      34.833  10.211  16.512  0.00  0.00     0.035 A 
HETATM    3  C   UNK N   1      34.698  12.965  15.819  0.00  0.00     0.069 A 
HETATM    4  C   UNK N   1      34.492  11.976  14.841  0.00  0.00     0.068 A 
HETATM    5  C   UNK N   1      35.030  11.221  17.448  0.00  0.00     0.076 A 
HETATM    6  C   UNK N   1      34.965  12.540  17.114  0.00  0.00     0.079 A 
HETATM    7  C   UNK N   1      35.392  12.387  19.178  0.00  0.00     0.676 A 
HETATM    8  N   UNK N   1      35.644  12.711  20.388  0.00  0.00    -0.234 N 
ATOM      9  HN  UNK N   1      35.701  13.695  20.650  1.00  0.00     0.174 HD
HETATM   10  N   UNK N   1      35.301  11.100  18.757  0.00  0.00    -0.190 N 
HETATM   11  N   UNK N   1      35.191  13.297  18.196  0.00  0.00    -0.190 N 
HETATM   12  H   UNK N   1      35.783  12.012  21.068  0.00  0.00     0.174 HD
HETATM   13  H   UNK N   1      35.408  10.276  19.285  0.00  0.00     0.184 HD
HETATM   14  H   UNK N   1      35.208  14.279  18.261  0.00  0.00     0.184 HD
ENDROOT
BRANCH   4  15
HETATM   15  O   UNK N   1      34.231  12.338  13.576  0.00  0.00    -0.361 OA
HETATM   16  H   UNK N   1      33.602  13.010  13.402  0.00  0.00     0.217 HD
ENDBRANCH   4  15
TORSDOF 1
ENDMDL
MODEL 9
REMARK VINA RESULT:      -4.7      8.958     10.113
REMARK  1 active torsions:
REMARK  status: ('A' for Active; 'I' for Inactive)
REMARK    1  A    between atoms: O_12  and  C_4 
REMARK       I    between atoms: N_8  and  C_7 
ROOT
HETATM    1  C   UNK N   1      22.948  11.914  11.773  0.00  0.00     0.039 A 
HETATM    2  C   UNK N   1      21.691  12.320  11.283  0.00  0.00     0.035 A 
HETATM    3  C   UNK N   1      24.066  12.928   9.843  0.00  0.00     0.069 A 
HETATM    4  C   UNK N   1      24.133  12.218  11.054  0.00  0.00     0.068 A 
HETATM    5  C   UNK N   1      21.670  13.021  10.081  0.00  0.00     0.076 A 
HETATM    6  C   UNK N   1      22.809  13.311   9.393  0.00  0.00     0.079 A 
HETATM    7  C   UNK N   1      21.159  14.090   8.327  0.00  0.00     0.676 A 
HETATM    8  N   UNK N   1      20.471  14.680   7.426  0.00  0.00    -0.234 N 
ATOM      9  HN  UNK N   1      20.937  15.102   6.623  1.00  0.00     0.174 HD
HETATM   10  N   UNK N   1      20.607  13.507   9.421  0.00  0.00    -0.190 N 
HETATM   11  N   UNK N   1      22.508  13.989   8.277  0.00  0.00    -0.190 N 
HETATM   12  H   UNK N   1      19.490  14.728   7.507  0.00  0.00     0.174 HD
HETATM   13  H   UNK N   1      19.656  13.454   9.671  0.00  0.00     0.184 HD
HETATM   14  H   UNK N   1      23.121  14.331   7.587  0.00  0.00     0.184 HD
ENDROOT
BRANCH   4  15
HETATM   15  O   UNK N   1      25.325  11.827  11.529  0.00  0.00    -0.361 OA
HETATM   16  H   UNK N   1      25.671  10.988  11.294  0.00  0.00     0.217 HD
ENDBRANCH   4  15
TORSDOF 1
ENDMDL
