MODEL 1
REMARK VINA RESULT:      -7.1      0.000      0.000
REMARK  12 active torsions:
REMARK  status: ('A' for Active; 'I' for Inactive)
REMARK    1  A    between atoms: N_2  and  C_3 
REMARK    2  A    between atoms: N_2  and  C_10 
REMARK    3  A    between atoms: C_3  and  C_4 
REMARK    4  A    between atoms: C_4  and  C_5 
REMARK    5  A    between atoms: C_5  and  N_6 
REMARK    6  A    between atoms: C_5  and  C_7 
REMARK    7  A    between atoms: C_7  and  O_8 
REMARK    8  A    between atoms: C_11  and  C_10 
REMARK    9  A    between atoms: C_13  and  N_18 
REMARK   10  A    between atoms: C_14  and  O_15 
REMARK   11  A    between atoms: C_16  and  O_17 
REMARK   12  A    between atoms: C_23  and  N_24 
ROOT
HETATM    1  C   UNK N   1      33.853  15.928   9.879  0.00  0.00     0.183 C 
HETATM    2  O   UNK N   1      32.747  15.660   9.041  0.00  0.00    -0.354 OA
HETATM    3  C   UNK N   1      32.895  16.489   7.907  0.00  0.00     0.262 C 
HETATM    4  C   UNK N   1      33.804  17.626   8.299  0.00  0.00     0.198 C 
HETATM    5  C   UNK N   1      34.771  16.875   9.133  0.00  0.00     0.182 C 
ENDROOT
BRANCH   3   6
HETATM    6  N   UNK N   1      31.584  16.922   7.405  0.00  0.00    -0.297 N 
HETATM    7  C   UNK N   1      31.177  16.896   6.107  0.00  0.00     0.188 A 
HETATM    8  N   UNK N   1      29.933  17.431   5.962  0.00  0.00    -0.346 N 
HETATM    9  C   UNK N   1      29.576  17.786   7.210  0.00  0.00     0.122 A 
ATOM     10  HN  UNK N   1      29.393  17.536   5.103  1.00  0.00     0.167 HD
HETATM   11  C   UNK N   1      28.411  18.383   7.665  0.00  0.00     0.131 A 
HETATM   12  C   UNK N   1      30.566  17.483   8.072  0.00  0.00     0.142 A 
HETATM   13  N   UNK N   1      28.301  18.633   9.004  0.00  0.00    -0.337 N 
HETATM   14  C   UNK N   1      29.318  18.307   9.869  0.00  0.00     0.183 A 
ATOM     15  HN  UNK N   1      27.452  19.066   9.367  1.00  0.00     0.168 HD
HETATM   16  N   UNK N   1      30.469  17.732   9.401  0.00  0.00    -0.336 N 
ATOM     17  HN  UNK N   1      31.233  17.498  10.034  1.00  0.00     0.168 HD
BRANCH  11  18
HETATM   18  N   UNK N   1      27.370  18.731   6.782  0.00  0.00    -0.383 N 
HETATM   19  H   UNK N   1      26.601  18.132   6.650  0.00  0.00     0.157 HD
HETATM   20  H   UNK N   1      27.413  19.583   6.290  0.00  0.00     0.157 HD
ENDBRANCH  11  18
ENDBRANCH   3   6
BRANCH   4  21
HETATM   21  O   UNK N   1      34.466  18.143   7.184  0.00  0.00    -0.388 OA
HETATM   22  H   UNK N   1      34.286  18.968   6.706  0.00  0.00     0.210 HD
ENDBRANCH   4  21
BRANCH   1  23
HETATM   23  C   UNK N   1      34.570  14.612  10.176  0.00  0.00     0.306 C 
BRANCH  23  24
HETATM   24  N   UNK N   1      35.961  14.612   9.744  0.00  0.00     0.086 N 
HETATM   25  C   UNK N   1      36.124  13.550   8.763  0.00  0.00     0.310 C 
BRANCH  24  26
HETATM   26  C   UNK N   1      36.728  14.203  10.910  0.00  0.00     0.274 C 
BRANCH  26  27
HETATM   27  C   UNK N   1      36.134  14.775  12.187  0.00  0.00     0.065 C 
BRANCH  27  28
HETATM   28  C   UNK N   1      36.401  13.802  13.323  0.00  0.00     0.174 C 
BRANCH  28  29
HETATM   29  N   UNK N   1      37.353  12.791  12.889  0.00  0.00    -0.418 N 
HETATM   30  H   UNK N   1      38.212  12.585  13.398  0.00  0.00     0.150 HD
HETATM   31  H   UNK N   1      37.152  12.266  12.038  0.00  0.00     0.150 HD
ENDBRANCH  28  29
BRANCH  28  32
HETATM   32  C   UNK N   1      35.129  13.159  13.807  0.00  0.00     0.163 C 
HETATM   33  O   UNK N   1      34.810  13.242  14.982  0.00  0.00    -0.648 OA
BRANCH  32  34
HETATM   34  O   UNK N   1      34.347  12.464  12.956  0.00  0.00    -0.775 OA
HETATM   35  H   UNK N   1      34.507  11.570  12.722  0.00  0.00     0.167 HD
ENDBRANCH  32  34
ENDBRANCH  28  32
ENDBRANCH  27  28
ENDBRANCH  26  27
ENDBRANCH  24  26
ENDBRANCH  23  24
ENDBRANCH   1  23
BRANCH   5  36
HETATM   36  O   UNK N   1      35.458  17.732   9.992  0.00  0.00    -0.390 OA
HETATM   37  H   UNK N   1      36.330  18.158  10.026  0.00  0.00     0.210 HD
ENDBRANCH   5  36
TORSDOF 12
ENDMDL
MODEL 2
REMARK VINA RESULT:      -6.8      2.457      7.941
REMARK  12 active torsions:
REMARK  status: ('A' for Active; 'I' for Inactive)
REMARK    1  A    between atoms: N_2  and  C_3 
REMARK    2  A    between atoms: N_2  and  C_10 
REMARK    3  A    between atoms: C_3  and  C_4 
REMARK    4  A    between atoms: C_4  and  C_5 
REMARK    5  A    between atoms: C_5  and  N_6 
REMARK    6  A    between atoms: C_5  and  C_7 
REMARK    7  A    between atoms: C_7  and  O_8 
REMARK    8  A    between atoms: C_11  and  C_10 
REMARK    9  A    between atoms: C_13  and  N_18 
REMARK   10  A    between atoms: C_14  and  O_15 
REMARK   11  A    between atoms: C_16  and  O_17 
REMARK   12  A    between atoms: C_23  and  N_24 
ROOT
HETATM    1  C   UNK N   1      32.798  16.555   7.249  0.00  0.00     0.183 C 
HETATM    2  O   UNK N   1      33.095  16.013   8.519  0.00  0.00    -0.354 OA
HETATM    3  C   UNK N   1      34.047  16.874   9.108  0.00  0.00     0.262 C 
HETATM    4  C   UNK N   1      34.709  17.641   7.991  0.00  0.00     0.198 C 
HETATM    5  C   UNK N   1      33.521  17.881   7.139  0.00  0.00     0.182 C 
ENDROOT
BRANCH   3   6
HETATM    6  N   UNK N   1      34.986  16.116   9.945  0.00  0.00    -0.297 N 
HETATM    7  C   UNK N   1      35.520  16.532  11.126  0.00  0.00     0.188 A 
HETATM    8  N   UNK N   1      36.410  15.626  11.619  0.00  0.00    -0.346 N 
HETATM    9  C   UNK N   1      36.411  14.633  10.713  0.00  0.00     0.122 A 
ATOM     10  HN  UNK N   1      36.951  15.687  12.481  1.00  0.00     0.167 HD
HETATM   11  C   UNK N   1      37.131  13.449  10.693  0.00  0.00     0.131 A 
HETATM   12  C   UNK N   1      35.560  14.927   9.711  0.00  0.00     0.142 A 
HETATM   13  N   UNK N   1      36.934  12.598   9.641  0.00  0.00    -0.337 N 
HETATM   14  C   UNK N   1      36.055  12.912   8.634  0.00  0.00     0.183 A 
ATOM     15  HN  UNK N   1      37.447  11.717   9.605  1.00  0.00     0.168 HD
HETATM   16  N   UNK N   1      35.363  14.093   8.660  0.00  0.00    -0.336 N 
ATOM     17  HN  UNK N   1      34.717  14.339   7.911  1.00  0.00     0.168 HD
BRANCH  11  18
HETATM   18  N   UNK N   1      38.044  13.126  11.716  0.00  0.00    -0.383 N 
HETATM   19  H   UNK N   1      38.567  12.294  11.680  0.00  0.00     0.157 HD
HETATM   20  H   UNK N   1      38.159  13.741  12.477  0.00  0.00     0.157 HD
ENDBRANCH  11  18
ENDBRANCH   3   6
BRANCH   4  21
HETATM   21  O   UNK N   1      35.199  18.864   8.448  0.00  0.00    -0.388 OA
HETATM   22  H   UNK N   1      35.143  19.734   8.021  0.00  0.00     0.210 HD
ENDBRANCH   4  21
BRANCH   1  23
HETATM   23  C   UNK N   1      31.287  16.760   7.148  0.00  0.00     0.306 C 
BRANCH  23  24
HETATM   24  N   UNK N   1      30.658  15.876   6.176  0.00  0.00     0.086 N 
HETATM   25  C   UNK N   1      31.140  16.249   4.855  0.00  0.00     0.310 C 
BRANCH  24  26
HETATM   26  C   UNK N   1      29.245  16.218   6.199  0.00  0.00     0.274 C 
BRANCH  26  27
HETATM   27  C   UNK N   1      29.042  17.723   6.123  0.00  0.00     0.065 C 
BRANCH  27  28
HETATM   28  C   UNK N   1      27.830  18.091   6.962  0.00  0.00     0.174 C 
BRANCH  28  29
HETATM   29  N   UNK N   1      27.143  19.223   6.360  0.00  0.00    -0.418 N 
HETATM   30  H   UNK N   1      27.632  20.055   6.031  0.00  0.00     0.150 HD
HETATM   31  H   UNK N   1      26.129  19.183   6.264  0.00  0.00     0.150 HD
ENDBRANCH  28  29
BRANCH  28  32
HETATM   32  C   UNK N   1      28.219  18.401   8.383  0.00  0.00     0.163 C 
HETATM   33  O   UNK N   1      29.239  19.028   8.614  0.00  0.00    -0.648 OA
BRANCH  32  34
HETATM   34  O   UNK N   1      27.462  17.967   9.410  0.00  0.00    -0.775 OA
HETATM   35  H   UNK N   1      27.073  17.114   9.440  0.00  0.00     0.167 HD
ENDBRANCH  32  34
ENDBRANCH  28  32
ENDBRANCH  27  28
ENDBRANCH  26  27
ENDBRANCH  24  26
ENDBRANCH  23  24
ENDBRANCH   1  23
BRANCH   5  36
HETATM   36  O   UNK N   1      33.900  18.170   5.828  0.00  0.00    -0.390 OA
HETATM   37  H   UNK N   1      34.621  18.645   5.383  0.00  0.00     0.210 HD
ENDBRANCH   5  36
TORSDOF 12
ENDMDL
MODEL 3
REMARK VINA RESULT:      -6.7      2.282      3.277
REMARK  12 active torsions:
REMARK  status: ('A' for Active; 'I' for Inactive)
REMARK    1  A    between atoms: N_2  and  C_3 
REMARK    2  A    between atoms: N_2  and  C_10 
REMARK    3  A    between atoms: C_3  and  C_4 
REMARK    4  A    between atoms: C_4  and  C_5 
REMARK    5  A    between atoms: C_5  and  N_6 
REMARK    6  A    between atoms: C_5  and  C_7 
REMARK    7  A    between atoms: C_7  and  O_8 
REMARK    8  A    between atoms: C_11  and  C_10 
REMARK    9  A    between atoms: C_13  and  N_18 
REMARK   10  A    between atoms: C_14  and  O_15 
REMARK   11  A    between atoms: C_16  and  O_17 
REMARK   12  A    between atoms: C_23  and  N_24 
ROOT
HETATM    1  C   UNK N   1      34.145  17.146   9.419  0.00  0.00     0.183 C 
HETATM    2  O   UNK N   1      33.050  16.367   8.982  0.00  0.00    -0.354 OA
HETATM    3  C   UNK N   1      32.893  16.637   7.604  0.00  0.00     0.262 C 
HETATM    4  C   UNK N   1      33.555  17.964   7.330  0.00  0.00     0.198 C 
HETATM    5  C   UNK N   1      34.745  17.814   8.199  0.00  0.00     0.182 C 
ENDROOT
BRANCH   3   6
HETATM    6  N   UNK N   1      31.474  16.591   7.224  0.00  0.00    -0.297 N 
HETATM    7  C   UNK N   1      30.977  16.120   6.048  0.00  0.00     0.188 A 
HETATM    8  N   UNK N   1      29.626  16.280   5.977  0.00  0.00    -0.346 N 
HETATM    9  C   UNK N   1      29.298  16.862   7.144  0.00  0.00     0.122 A 
ATOM     10  HN  UNK N   1      29.005  16.018   5.212  1.00  0.00     0.167 HD
HETATM   11  C   UNK N   1      28.059  17.261   7.621  0.00  0.00     0.131 A 
HETATM   12  C   UNK N   1      30.404  17.048   7.889  0.00  0.00     0.142 A 
HETATM   13  N   UNK N   1      28.004  17.827   8.864  0.00  0.00    -0.337 N 
HETATM   14  C   UNK N   1      29.143  18.000   9.612  0.00  0.00     0.183 A 
ATOM     15  HN  UNK N   1      27.104  18.125   9.241  1.00  0.00     0.168 HD
HETATM   16  N   UNK N   1      30.361  17.615   9.120  0.00  0.00    -0.336 N 
ATOM     17  HN  UNK N   1      31.213  17.750   9.664  1.00  0.00     0.168 HD
BRANCH  11  18
HETATM   18  N   UNK N   1      26.889  17.098   6.853  0.00  0.00    -0.383 N 
HETATM   19  H   UNK N   1      26.942  16.843   5.904  0.00  0.00     0.157 HD
HETATM   20  H   UNK N   1      26.009  17.239   7.271  0.00  0.00     0.157 HD
ENDBRANCH  11  18
ENDBRANCH   3   6
BRANCH   4  21
HETATM   21  O   UNK N   1      33.968  18.048   5.999  0.00  0.00    -0.388 OA
HETATM   22  H   UNK N   1      34.873  18.043   5.648  0.00  0.00     0.210 HD
ENDBRANCH   4  21
BRANCH   1  23
HETATM   23  C   UNK N   1      35.167  16.223  10.081  0.00  0.00     0.306 C 
BRANCH  23  24
HETATM   24  N   UNK N   1      34.672  14.865  10.260  0.00  0.00     0.086 N 
HETATM   25  C   UNK N   1      34.880  14.495  11.652  0.00  0.00     0.310 C 
BRANCH  24  26
HETATM   26  C   UNK N   1      35.566  14.022   9.483  0.00  0.00     0.274 C 
BRANCH  26  27
HETATM   27  C   UNK N   1      34.885  12.724   9.078  0.00  0.00     0.065 C 
BRANCH  27  28
HETATM   28  C   UNK N   1      33.482  13.045   8.592  0.00  0.00     0.174 C 
BRANCH  28  29
HETATM   29  N   UNK N   1      32.516  12.228   9.309  0.00  0.00    -0.418 N 
HETATM   30  H   UNK N   1      31.545  12.510   9.444  0.00  0.00     0.150 HD
HETATM   31  H   UNK N   1      32.823  11.335   9.695  0.00  0.00     0.150 HD
ENDBRANCH  28  29
BRANCH  28  32
HETATM   32  C   UNK N   1      33.354  12.835   7.106  0.00  0.00     0.163 C 
HETATM   33  O   UNK N   1      33.901  13.602   6.331  0.00  0.00    -0.648 OA
BRANCH  32  34
HETATM   34  O   UNK N   1      32.614  11.819   6.620  0.00  0.00    -0.775 OA
HETATM   35  H   UNK N   1      31.740  11.926   6.295  0.00  0.00     0.167 HD
ENDBRANCH  32  34
ENDBRANCH  28  32
ENDBRANCH  27  28
ENDBRANCH  26  27
ENDBRANCH  24  26
ENDBRANCH  23  24
ENDBRANCH   1  23
BRANCH   5  36
HETATM   36  O   UNK N   1      35.302  19.057   8.497  0.00  0.00    -0.390 OA
HETATM   37  H   UNK N   1      35.051  19.848   9.001  0.00  0.00     0.210 HD
ENDBRANCH   5  36
TORSDOF 12
ENDMDL
MODEL 4
REMARK VINA RESULT:      -6.4      5.782     11.030
REMARK  12 active torsions:
REMARK  status: ('A' for Active; 'I' for Inactive)
REMARK    1  A    between atoms: N_2  and  C_3 
REMARK    2  A    between atoms: N_2  and  C_10 
REMARK    3  A    between atoms: C_3  and  C_4 
REMARK    4  A    between atoms: C_4  and  C_5 
REMARK    5  A    between atoms: C_5  and  N_6 
REMARK    6  A    between atoms: C_5  and  C_7 
REMARK    7  A    between atoms: C_7  and  O_8 
REMARK    8  A    between atoms: C_11  and  C_10 
REMARK    9  A    between atoms: C_13  and  N_18 
REMARK   10  A    between atoms: C_14  and  O_15 
REMARK   11  A    between atoms: C_16  and  O_17 
REMARK   12  A    between atoms: C_23  and  N_24 
ROOT
HETATM    1  C   UNK N   1      27.179  18.501   4.790  0.00  0.00     0.183 C 
HETATM    2  O   UNK N   1      27.854  17.647   5.690  0.00  0.00    -0.354 OA
HETATM    3  C   UNK N   1      27.775  18.263   6.959  0.00  0.00     0.262 C 
HETATM    4  C   UNK N   1      27.510  19.730   6.729  0.00  0.00     0.198 C 
HETATM    5  C   UNK N   1      26.558  19.619   5.600  0.00  0.00     0.182 C 
ENDROOT
BRANCH   3   6
HETATM    6  N   UNK N   1      28.988  17.994   7.743  0.00  0.00    -0.297 N 
HETATM    7  C   UNK N   1      29.133  18.188   9.082  0.00  0.00     0.188 A 
HETATM    8  N   UNK N   1      30.401  17.909   9.494  0.00  0.00    -0.346 N 
HETATM    9  C   UNK N   1      31.040  17.532   8.371  0.00  0.00     0.122 A 
ATOM     10  HN  UNK N   1      30.780  17.971  10.439  1.00  0.00     0.167 HD
HETATM   11  C   UNK N   1      32.356  17.137   8.187  0.00  0.00     0.131 A 
HETATM   12  C   UNK N   1      30.194  17.585   7.325  0.00  0.00     0.142 A 
HETATM   13  N   UNK N   1      32.750  16.793   6.925  0.00  0.00    -0.337 N 
HETATM   14  C   UNK N   1      31.869  16.845   5.872  0.00  0.00     0.183 A 
ATOM     15  HN  UNK N   1      33.711  16.493   6.762  1.00  0.00     0.168 HD
HETATM   16  N   UNK N   1      30.577  17.251   6.067  0.00  0.00    -0.336 N 
ATOM     17  HN  UNK N   1      29.920  17.303   5.289  1.00  0.00     0.168 HD
BRANCH  11  18
HETATM   18  N   UNK N   1      33.267  17.095   9.261  0.00  0.00    -0.383 N 
HETATM   19  H   UNK N   1      34.055  16.507   9.229  0.00  0.00     0.157 HD
HETATM   20  H   UNK N   1      33.113  17.659  10.052  0.00  0.00     0.157 HD
ENDBRANCH  11  18
ENDBRANCH   3   6
BRANCH   4  21
HETATM   21  O   UNK N   1      26.858  20.296   7.825  0.00  0.00    -0.388 OA
HETATM   22  H   UNK N   1      26.710  19.910   8.703  0.00  0.00     0.210 HD
ENDBRANCH   4  21
BRANCH   1  23
HETATM   23  C   UNK N   1      26.097  17.696   4.072  0.00  0.00     0.306 C 
BRANCH  23  24
HETATM   24  N   UNK N   1      24.892  17.524   4.872  0.00  0.00     0.086 N 
HETATM   25  C   UNK N   1      24.856  16.144   5.333  0.00  0.00     0.310 C 
BRANCH  24  26
HETATM   26  C   UNK N   1      23.786  17.665   3.940  0.00  0.00     0.274 C 
BRANCH  26  27
HETATM   27  C   UNK N   1      22.901  18.844   4.310  0.00  0.00     0.065 C 
BRANCH  27  28
HETATM   28  C   UNK N   1      22.781  19.758   3.102  0.00  0.00     0.174 C 
BRANCH  28  29
HETATM   29  N   UNK N   1      23.910  20.674   3.066  0.00  0.00    -0.418 N 
HETATM   30  H   UNK N   1      23.826  21.664   3.295  0.00  0.00     0.150 HD
HETATM   31  H   UNK N   1      24.825  20.311   2.800  0.00  0.00     0.150 HD
ENDBRANCH  28  29
BRANCH  28  32
HETATM   32  C   UNK N   1      21.481  20.518   3.114  0.00  0.00     0.163 C 
HETATM   33  O   UNK N   1      20.631  20.261   3.950  0.00  0.00    -0.648 OA
BRANCH  32  34
HETATM   34  O   UNK N   1      21.234  21.466   2.188  0.00  0.00    -0.775 OA
HETATM   35  H   UNK N   1      21.584  21.442   1.318  0.00  0.00     0.167 HD
ENDBRANCH  32  34
ENDBRANCH  28  32
ENDBRANCH  27  28
ENDBRANCH  26  27
ENDBRANCH  24  26
ENDBRANCH  23  24
ENDBRANCH   1  23
BRANCH   5  36
HETATM   36  O   UNK N   1      26.492  20.816   4.887  0.00  0.00    -0.390 OA
HETATM   37  H   UNK N   1      27.094  21.541   4.654  0.00  0.00     0.210 HD
ENDBRANCH   5  36
TORSDOF 12
ENDMDL
MODEL 5
REMARK VINA RESULT:      -6.4      2.065      7.533
REMARK  12 active torsions:
REMARK  status: ('A' for Active; 'I' for Inactive)
REMARK    1  A    between atoms: N_2  and  C_3 
REMARK    2  A    between atoms: N_2  and  C_10 
REMARK    3  A    between atoms: C_3  and  C_4 
REMARK    4  A    between atoms: C_4  and  C_5 
REMARK    5  A    between atoms: C_5  and  N_6 
REMARK    6  A    between atoms: C_5  and  C_7 
REMARK    7  A    between atoms: C_7  and  O_8 
REMARK    8  A    between atoms: C_11  and  C_10 
REMARK    9  A    between atoms: C_13  and  N_18 
REMARK   10  A    between atoms: C_14  and  O_15 
REMARK   11  A    between atoms: C_16  and  O_17 
REMARK   12  A    between atoms: C_23  and  N_24 
ROOT
HETATM    1  C   UNK N   1      34.178  17.117   7.348  0.00  0.00     0.183 C 
HETATM    2  O   UNK N   1      34.072  15.747   7.676  0.00  0.00    -0.354 OA
HETATM    3  C   UNK N   1      34.348  15.645   9.058  0.00  0.00     0.262 C 
HETATM    4  C   UNK N   1      35.127  16.875   9.451  0.00  0.00     0.198 C 
HETATM    5  C   UNK N   1      34.402  17.879   8.638  0.00  0.00     0.182 C 
ENDROOT
BRANCH   3   6
HETATM    6  N   UNK N   1      35.039  14.384   9.358  0.00  0.00    -0.297 N 
HETATM    7  C   UNK N   1      35.580  13.533   8.445  0.00  0.00     0.188 A 
HETATM    8  N   UNK N   1      36.088  12.418   9.040  0.00  0.00    -0.346 N 
HETATM    9  C   UNK N   1      35.850  12.602  10.351  0.00  0.00     0.122 A 
ATOM     10  HN  UNK N   1      36.546  11.624   8.593  1.00  0.00     0.167 HD
HETATM   11  C   UNK N   1      36.146  11.786  11.431  0.00  0.00     0.131 A 
HETATM   12  C   UNK N   1      35.221  13.778  10.540  0.00  0.00     0.142 A 
HETATM   13  N   UNK N   1      35.796  12.223  12.678  0.00  0.00    -0.337 N 
HETATM   14  C   UNK N   1      35.164  13.431  12.851  0.00  0.00     0.183 A 
ATOM     15  HN  UNK N   1      36.008  11.645  13.491  1.00  0.00     0.168 HD
HETATM   16  N   UNK N   1      34.864  14.217  11.772  0.00  0.00    -0.336 N 
ATOM     17  HN  UNK N   1      34.384  15.109  11.891  1.00  0.00     0.168 HD
BRANCH  11  18
HETATM   18  N   UNK N   1      36.784  10.542  11.259  0.00  0.00    -0.383 N 
HETATM   19  H   UNK N   1      37.658  10.482  10.812  0.00  0.00     0.157 HD
HETATM   20  H   UNK N   1      36.349   9.723  11.589  0.00  0.00     0.157 HD
ENDBRANCH  11  18
ENDBRANCH   3   6
BRANCH   4  21
HETATM   21  O   UNK N   1      34.948  17.167  10.804  0.00  0.00    -0.388 OA
HETATM   22  H   UNK N   1      35.087  16.585  11.568  0.00  0.00     0.210 HD
ENDBRANCH   4  21
BRANCH   1  23
HETATM   23  C   UNK N   1      32.875  17.561   6.684  0.00  0.00     0.306 C 
BRANCH  23  24
HETATM   24  N   UNK N   1      32.242  16.501   5.911  0.00  0.00     0.086 N 
HETATM   25  C   UNK N   1      32.414  16.815   4.500  0.00  0.00     0.310 C 
BRANCH  24  26
HETATM   26  C   UNK N   1      30.819  16.623   6.179  0.00  0.00     0.274 C 
BRANCH  26  27
HETATM   27  C   UNK N   1      30.566  17.362   7.483  0.00  0.00     0.065 C 
BRANCH  27  28
HETATM   28  C   UNK N   1      29.068  17.551   7.650  0.00  0.00     0.174 C 
BRANCH  28  29
HETATM   29  N   UNK N   1      28.552  18.361   6.557  0.00  0.00    -0.418 N 
HETATM   30  H   UNK N   1      28.738  18.151   5.577  0.00  0.00     0.150 HD
HETATM   31  H   UNK N   1      27.980  19.175   6.782  0.00  0.00     0.150 HD
ENDBRANCH  28  29
BRANCH  28  32
HETATM   32  C   UNK N   1      28.737  18.180   8.977  0.00  0.00     0.163 C 
HETATM   33  O   UNK N   1      29.622  18.671   9.659  0.00  0.00    -0.648 OA
BRANCH  32  34
HETATM   34  O   UNK N   1      27.470  18.183   9.437  0.00  0.00    -0.775 OA
HETATM   35  H   UNK N   1      26.861  17.488   9.275  0.00  0.00     0.167 HD
ENDBRANCH  32  34
ENDBRANCH  28  32
ENDBRANCH  27  28
ENDBRANCH  26  27
ENDBRANCH  24  26
ENDBRANCH  23  24
ENDBRANCH   1  23
BRANCH   5  36
HETATM   36  O   UNK N   1      35.179  19.022   8.449  0.00  0.00    -0.390 OA
HETATM   37  H   UNK N   1      35.183  19.791   7.858  0.00  0.00     0.210 HD
ENDBRANCH   5  36
TORSDOF 12
ENDMDL
MODEL 6
REMARK VINA RESULT:      -6.3      6.682     11.996
REMARK  12 active torsions:
REMARK  status: ('A' for Active; 'I' for Inactive)
REMARK    1  A    between atoms: N_2  and  C_3 
REMARK    2  A    between atoms: N_2  and  C_10 
REMARK    3  A    between atoms: C_3  and  C_4 
REMARK    4  A    between atoms: C_4  and  C_5 
REMARK    5  A    between atoms: C_5  and  N_6 
REMARK    6  A    between atoms: C_5  and  C_7 
REMARK    7  A    between atoms: C_7  and  O_8 
REMARK    8  A    between atoms: C_11  and  C_10 
REMARK    9  A    between atoms: C_13  and  N_18 
REMARK   10  A    between atoms: C_14  and  O_15 
REMARK   11  A    between atoms: C_16  and  O_17 
REMARK   12  A    between atoms: C_23  and  N_24 
ROOT
HETATM    1  C   UNK N   1      25.090  18.224   3.822  0.00  0.00     0.183 C 
HETATM    2  O   UNK N   1      25.931  17.534   4.725  0.00  0.00    -0.354 OA
HETATM    3  C   UNK N   1      26.511  18.516   5.559  0.00  0.00     0.262 C 
HETATM    4  C   UNK N   1      26.427  19.832   4.827  0.00  0.00     0.198 C 
HETATM    5  C   UNK N   1      25.078  19.682   4.233  0.00  0.00     0.182 C 
ENDROOT
BRANCH   3   6
HETATM    6  N   UNK N   1      27.879  18.133   5.937  0.00  0.00    -0.297 N 
HETATM    7  C   UNK N   1      28.876  17.783   5.080  0.00  0.00     0.188 A 
HETATM    8  N   UNK N   1      30.004  17.416   5.748  0.00  0.00    -0.346 N 
HETATM    9  C   UNK N   1      29.680  17.551   7.047  0.00  0.00     0.122 A 
ATOM     10  HN  UNK N   1      30.893  17.109   5.354  1.00  0.00     0.167 HD
HETATM   11  C   UNK N   1      30.440  17.314   8.182  0.00  0.00     0.131 A 
HETATM   12  C   UNK N   1      28.408  17.979   7.158  0.00  0.00     0.142 A 
HETATM   13  N   UNK N   1      29.861  17.544   9.398  0.00  0.00    -0.337 N 
HETATM   14  C   UNK N   1      28.565  17.989   9.491  0.00  0.00     0.183 A 
ATOM     15  HN  UNK N   1      30.400  17.383  10.250  1.00  0.00     0.168 HD
HETATM   16  N   UNK N   1      27.823  18.203   8.361  0.00  0.00    -0.336 N 
ATOM     17  HN  UNK N   1      26.857  18.523   8.421  1.00  0.00     0.168 HD
BRANCH  11  18
HETATM   18  N   UNK N   1      31.766  16.845   8.094  0.00  0.00    -0.383 N 
HETATM   19  H   UNK N   1      32.519  17.475   8.031  0.00  0.00     0.157 HD
HETATM   20  H   UNK N   1      31.940  15.877   8.095  0.00  0.00     0.157 HD
ENDBRANCH  11  18
ENDBRANCH   3   6
BRANCH   4  21
HETATM   21  O   UNK N   1      26.416  20.900   5.724  0.00  0.00    -0.388 OA
HETATM   22  H   UNK N   1      27.143  21.502   5.954  0.00  0.00     0.210 HD
ENDBRANCH   4  21
BRANCH   1  23
HETATM   23  C   UNK N   1      23.685  17.631   3.914  0.00  0.00     0.306 C 
BRANCH  23  24
HETATM   24  N   UNK N   1      22.975  18.035   5.120  0.00  0.00     0.086 N 
HETATM   25  C   UNK N   1      22.679  16.835   5.887  0.00  0.00     0.310 C 
BRANCH  24  26
HETATM   26  C   UNK N   1      21.694  18.546   4.662  0.00  0.00     0.274 C 
BRANCH  26  27
HETATM   27  C   UNK N   1      21.382  18.066   3.254  0.00  0.00     0.065 C 
BRANCH  27  28
HETATM   28  C   UNK N   1      20.552  19.128   2.553  0.00  0.00     0.174 C 
BRANCH  28  29
HETATM   29  N   UNK N   1      20.202  18.674   1.216  0.00  0.00    -0.418 N 
HETATM   30  H   UNK N   1      20.272  19.271   0.393  0.00  0.00     0.150 HD
HETATM   31  H   UNK N   1      19.873  17.716   1.097  0.00  0.00     0.150 HD
ENDBRANCH  28  29
BRANCH  28  32
HETATM   32  C   UNK N   1      21.282  20.443   2.491  0.00  0.00     0.163 C 
HETATM   33  O   UNK N   1      22.339  20.529   1.886  0.00  0.00    -0.648 OA
BRANCH  32  34
HETATM   34  O   UNK N   1      20.793  21.529   3.124  0.00  0.00    -0.775 OA
HETATM   35  H   UNK N   1      19.885  21.640   3.329  0.00  0.00     0.167 HD
ENDBRANCH  32  34
ENDBRANCH  28  32
ENDBRANCH  27  28
ENDBRANCH  26  27
ENDBRANCH  24  26
ENDBRANCH  23  24
ENDBRANCH   1  23
BRANCH   5  36
HETATM   36  O   UNK N   1      24.916  20.538   3.144  0.00  0.00    -0.390 OA
HETATM   37  H   UNK N   1      24.345  21.285   2.904  0.00  0.00     0.210 HD
ENDBRANCH   5  36
TORSDOF 12
ENDMDL
MODEL 7
REMARK VINA RESULT:      -6.2      2.450      4.202
REMARK  12 active torsions:
REMARK  status: ('A' for Active; 'I' for Inactive)
REMARK    1  A    between atoms: N_2  and  C_3 
REMARK    2  A    between atoms: N_2  and  C_10 
REMARK    3  A    between atoms: C_3  and  C_4 
REMARK    4  A    between atoms: C_4  and  C_5 
REMARK    5  A    between atoms: C_5  and  N_6 
REMARK    6  A    between atoms: C_5  and  C_7 
REMARK    7  A    between atoms: C_7  and  O_8 
REMARK    8  A    between atoms: C_11  and  C_10 
REMARK    9  A    between atoms: C_13  and  N_18 
REMARK   10  A    between atoms: C_14  and  O_15 
REMARK   11  A    between atoms: C_16  and  O_17 
REMARK   12  A    between atoms: C_23  and  N_24 
ROOT
HETATM    1  C   UNK N   1      31.104  15.887   7.414  0.00  0.00     0.183 C 
HETATM    2  O   UNK N   1      30.387  16.403   6.311  0.00  0.00    -0.354 OA
HETATM    3  C   UNK N   1      29.736  17.569   6.769  0.00  0.00     0.262 C 
HETATM    4  C   UNK N   1      29.638  17.467   8.271  0.00  0.00     0.198 C 
HETATM    5  C   UNK N   1      30.969  16.878   8.550  0.00  0.00     0.182 C 
ENDROOT
BRANCH   3   6
HETATM    6  N   UNK N   1      28.438  17.736   6.100  0.00  0.00    -0.297 N 
HETATM    7  C   UNK N   1      27.765  16.775   5.413  0.00  0.00     0.188 A 
HETATM    8  N   UNK N   1      26.625  17.266   4.852  0.00  0.00    -0.346 N 
HETATM    9  C   UNK N   1      26.607  18.561   5.215  0.00  0.00     0.122 A 
ATOM     10  HN  UNK N   1      25.939  16.765   4.287  1.00  0.00     0.167 HD
HETATM   11  C   UNK N   1      25.682  19.553   4.927  0.00  0.00     0.131 A 
HETATM   12  C   UNK N   1      27.693  18.842   5.960  0.00  0.00     0.142 A 
HETATM   13  N   UNK N   1      25.904  20.802   5.435  0.00  0.00    -0.337 N 
HETATM   14  C   UNK N   1      27.013  21.065   6.201  0.00  0.00     0.183 A 
ATOM     15  HN  UNK N   1      25.236  21.548   5.243  1.00  0.00     0.168 HD
HETATM   16  N   UNK N   1      27.926  20.079   6.463  0.00  0.00    -0.336 N 
ATOM     17  HN  UNK N   1      28.757  20.270   7.022  1.00  0.00     0.168 HD
BRANCH  11  18
HETATM   18  N   UNK N   1      24.549  19.291   4.132  0.00  0.00    -0.383 N 
HETATM   19  H   UNK N   1      24.071  18.434   4.203  0.00  0.00     0.157 HD
HETATM   20  H   UNK N   1      24.232  19.974   3.497  0.00  0.00     0.157 HD
ENDBRANCH  11  18
ENDBRANCH   3   6
BRANCH   4  21
HETATM   21  O   UNK N   1      29.566  18.733   8.853  0.00  0.00    -0.388 OA
HETATM   22  H   UNK N   1      29.994  19.048   9.665  0.00  0.00     0.210 HD
ENDBRANCH   4  21
BRANCH   1  23
HETATM   23  C   UNK N   1      32.570  15.730   7.013  0.00  0.00     0.306 C 
BRANCH  23  24
HETATM   24  N   UNK N   1      33.357  16.932   7.258  0.00  0.00     0.086 N 
HETATM   25  C   UNK N   1      33.716  17.501   5.967  0.00  0.00     0.310 C 
BRANCH  24  26
HETATM   26  C   UNK N   1      34.600  16.465   7.851  0.00  0.00     0.274 C 
BRANCH  26  27
HETATM   27  C   UNK N   1      34.601  16.667   9.357  0.00  0.00     0.065 C 
BRANCH  27  28
HETATM   28  C   UNK N   1      34.706  15.308  10.028  0.00  0.00     0.174 C 
BRANCH  28  29
HETATM   29  N   UNK N   1      33.551  15.094  10.886  0.00  0.00    -0.418 N 
HETATM   30  H   UNK N   1      33.441  14.265  11.469  0.00  0.00     0.150 HD
HETATM   31  H   UNK N   1      32.819  15.805  10.905  0.00  0.00     0.150 HD
ENDBRANCH  28  29
BRANCH  28  32
HETATM   32  C   UNK N   1      35.982  15.181  10.816  0.00  0.00     0.163 C 
HETATM   33  O   UNK N   1      36.195  14.179  11.478  0.00  0.00    -0.648 OA
BRANCH  32  34
HETATM   34  O   UNK N   1      36.886  16.182  10.822  0.00  0.00    -0.775 OA
HETATM   35  H   UNK N   1      37.398  16.411  11.573  0.00  0.00     0.167 HD
ENDBRANCH  32  34
ENDBRANCH  28  32
ENDBRANCH  27  28
ENDBRANCH  26  27
ENDBRANCH  24  26
ENDBRANCH  23  24
ENDBRANCH   1  23
BRANCH   5  36
HETATM   36  O   UNK N   1      30.985  16.258   9.800  0.00  0.00    -0.390 OA
HETATM   37  H   UNK N   1      31.459  16.361  10.640  0.00  0.00     0.210 HD
ENDBRANCH   5  36
TORSDOF 12
ENDMDL
MODEL 8
REMARK VINA RESULT:      -6.2      1.928      3.130
REMARK  12 active torsions:
REMARK  status: ('A' for Active; 'I' for Inactive)
REMARK    1  A    between atoms: N_2  and  C_3 
REMARK    2  A    between atoms: N_2  and  C_10 
REMARK    3  A    between atoms: C_3  and  C_4 
REMARK    4  A    between atoms: C_4  and  C_5 
REMARK    5  A    between atoms: C_5  and  N_6 
REMARK    6  A    between atoms: C_5  and  C_7 
REMARK    7  A    between atoms: C_7  and  O_8 
REMARK    8  A    between atoms: C_11  and  C_10 
REMARK    9  A    between atoms: C_13  and  N_18 
REMARK   10  A    between atoms: C_14  and  O_15 
REMARK   11  A    between atoms: C_16  and  O_17 
REMARK   12  A    between atoms: C_23  and  N_24 
ROOT
HETATM    1  C   UNK N   1      32.714  13.933   8.758  0.00  0.00     0.183 C 
HETATM    2  O   UNK N   1      32.243  14.412   7.515  0.00  0.00    -0.354 OA
HETATM    3  C   UNK N   1      32.352  15.820   7.563  0.00  0.00     0.262 C 
HETATM    4  C   UNK N   1      32.396  16.215   9.018  0.00  0.00     0.198 C 
HETATM    5  C   UNK N   1      33.250  15.119   9.531  0.00  0.00     0.182 C 
ENDROOT
BRANCH   3   6
HETATM    6  N   UNK N   1      31.260  16.451   6.809  0.00  0.00    -0.297 N 
HETATM    7  C   UNK N   1      30.209  17.129   7.343  0.00  0.00     0.188 A 
HETATM    8  N   UNK N   1      29.333  17.532   6.381  0.00  0.00    -0.346 N 
HETATM    9  C   UNK N   1      29.874  17.089   5.232  0.00  0.00     0.122 A 
ATOM     10  HN  UNK N   1      28.465  18.054   6.503  1.00  0.00     0.167 HD
HETATM   11  C   UNK N   1      29.415  17.208   3.929  0.00  0.00     0.131 A 
HETATM   12  C   UNK N   1      31.026  16.441   5.489  0.00  0.00     0.142 A 
HETATM   13  N   UNK N   1      30.174  16.665   2.931  0.00  0.00    -0.337 N 
HETATM   14  C   UNK N   1      31.352  16.016   3.214  0.00  0.00     0.183 A 
ATOM     15  HN  UNK N   1      29.863  16.743   1.963  1.00  0.00     0.168 HD
HETATM   16  N   UNK N   1      31.783  15.893   4.507  0.00  0.00    -0.336 N 
ATOM     17  HN  UNK N   1      32.650  15.403   4.726  1.00  0.00     0.168 HD
BRANCH  11  18
HETATM   18  N   UNK N   1      28.202  17.861   3.635  0.00  0.00    -0.383 N 
HETATM   19  H   UNK N   1      28.053  18.272   2.753  0.00  0.00     0.157 HD
HETATM   20  H   UNK N   1      27.496  17.908   4.318  0.00  0.00     0.157 HD
ENDBRANCH  11  18
ENDBRANCH   3   6
BRANCH   4  21
HETATM   21  O   UNK N   1      33.062  17.430   9.183  0.00  0.00    -0.388 OA
HETATM   22  H   UNK N   1      33.839  17.622   9.732  0.00  0.00     0.210 HD
ENDBRANCH   4  21
BRANCH   1  23
HETATM   23  C   UNK N   1      33.826  12.917   8.499  0.00  0.00     0.306 C 
BRANCH  23  24
HETATM   24  N   UNK N   1      35.148  13.524   8.443  0.00  0.00     0.086 N 
HETATM   25  C   UNK N   1      35.589  13.508   7.056  0.00  0.00     0.310 C 
BRANCH  24  26
HETATM   26  C   UNK N   1      36.025  12.607   9.153  0.00  0.00     0.274 C 
BRANCH  26  27
HETATM   27  C   UNK N   1      35.721  12.598  10.643  0.00  0.00     0.065 C 
BRANCH  27  28
HETATM   28  C   UNK N   1      36.523  13.705  11.307  0.00  0.00     0.174 C 
BRANCH  28  29
HETATM   29  N   UNK N   1      37.928  13.332  11.354  0.00  0.00    -0.418 N 
HETATM   30  H   UNK N   1      38.300  12.662  12.025  0.00  0.00     0.150 HD
HETATM   31  H   UNK N   1      38.568  13.761  10.686  0.00  0.00     0.150 HD
ENDBRANCH  28  29
BRANCH  28  32
HETATM   32  C   UNK N   1      36.007  14.003  12.690  0.00  0.00     0.163 C 
HETATM   33  O   UNK N   1      34.844  13.767  12.973  0.00  0.00    -0.648 OA
BRANCH  32  34
HETATM   34  O   UNK N   1      36.815  14.557  13.617  0.00  0.00    -0.775 OA
HETATM   35  H   UNK N   1      36.758  14.362  14.533  0.00  0.00     0.167 HD
ENDBRANCH  32  34
ENDBRANCH  28  32
ENDBRANCH  27  28
ENDBRANCH  26  27
ENDBRANCH  24  26
ENDBRANCH  23  24
ENDBRANCH   1  23
BRANCH   5  36
HETATM   36  O   UNK N   1      33.091  14.969  10.908  0.00  0.00    -0.390 OA
HETATM   37  H   UNK N   1      33.171  15.526  11.700  0.00  0.00     0.210 HD
ENDBRANCH   5  36
TORSDOF 12
ENDMDL
MODEL 9
REMARK VINA RESULT:      -6.2      2.504      8.493
REMARK  12 active torsions:
REMARK  status: ('A' for Active; 'I' for Inactive)
REMARK    1  A    between atoms: N_2  and  C_3 
REMARK    2  A    between atoms: N_2  and  C_10 
REMARK    3  A    between atoms: C_3  and  C_4 
REMARK    4  A    between atoms: C_4  and  C_5 
REMARK    5  A    between atoms: C_5  and  N_6 
REMARK    6  A    between atoms: C_5  and  C_7 
REMARK    7  A    between atoms: C_7  and  O_8 
REMARK    8  A    between atoms: C_11  and  C_10 
REMARK    9  A    between atoms: C_13  and  N_18 
REMARK   10  A    between atoms: C_14  and  O_15 
REMARK   11  A    between atoms: C_16  and  O_17 
REMARK   12  A    between atoms: C_23  and  N_24 
ROOT
HETATM    1  C   UNK N   1      35.281  14.288  10.536  0.00  0.00     0.183 C 
HETATM    2  O   UNK N   1      34.657  13.334  11.371  0.00  0.00    -0.354 OA
HETATM    3  C   UNK N   1      35.086  13.615  12.687  0.00  0.00     0.262 C 
HETATM    4  C   UNK N   1      36.367  14.403  12.582  0.00  0.00     0.198 C 
HETATM    5  C   UNK N   1      36.016  15.264  11.429  0.00  0.00     0.182 C 
ENDROOT
BRANCH   3   6
HETATM    6  N   UNK N   1      35.213  12.376  13.468  0.00  0.00    -0.297 N 
HETATM    7  C   UNK N   1      35.318  11.119  12.958  0.00  0.00     0.188 A 
HETATM    8  N   UNK N   1      35.350  10.181  13.945  0.00  0.00    -0.346 N 
HETATM    9  C   UNK N   1      35.266  10.892  15.084  0.00  0.00     0.122 A 
ATOM     10  HN  UNK N   1      35.423   9.168  13.844  1.00  0.00     0.167 HD
HETATM   11  C   UNK N   1      35.250  10.463  16.402  0.00  0.00     0.131 A 
HETATM   12  C   UNK N   1      35.183  12.206  14.797  0.00  0.00     0.142 A 
HETATM   13  N   UNK N   1      35.165  11.410  17.383  0.00  0.00    -0.337 N 
HETATM   14  C   UNK N   1      35.090  12.746  17.069  0.00  0.00     0.183 A 
ATOM     15  HN  UNK N   1      35.157  11.122  18.361  1.00  0.00     0.168 HD
HETATM   16  N   UNK N   1      35.091  13.153  15.763  0.00  0.00    -0.336 N 
ATOM     17  HN  UNK N   1      35.024  14.141  15.521  1.00  0.00     0.168 HD
BRANCH  11  18
HETATM   18  N   UNK N   1      35.314   9.094  16.729  0.00  0.00    -0.383 N 
HETATM   19  H   UNK N   1      35.275   8.406  16.026  0.00  0.00     0.157 HD
HETATM   20  H   UNK N   1      35.398   8.822  17.671  0.00  0.00     0.157 HD
ENDBRANCH  11  18
ENDBRANCH   3   6
BRANCH   4  21
HETATM   21  O   UNK N   1      36.555  15.201  13.711  0.00  0.00    -0.388 OA
HETATM   22  H   UNK N   1      35.902  15.744  14.180  0.00  0.00     0.210 HD
ENDBRANCH   4  21
BRANCH   1  23
HETATM   23  C   UNK N   1      34.202  15.009   9.729  0.00  0.00     0.306 C 
BRANCH  23  24
HETATM   24  N   UNK N   1      33.958  14.396   8.431  0.00  0.00     0.086 N 
HETATM   25  C   UNK N   1      35.108  14.674   7.583  0.00  0.00     0.310 C 
BRANCH  24  26
HETATM   26  C   UNK N   1      32.847  15.135   7.856  0.00  0.00     0.274 C 
BRANCH  26  27
HETATM   27  C   UNK N   1      32.481  16.335   8.715  0.00  0.00     0.065 C 
BRANCH  27  28
HETATM   28  C   UNK N   1      32.450  17.571   7.832  0.00  0.00     0.174 C 
BRANCH  28  29
HETATM   29  N   UNK N   1      31.761  17.268   6.588  0.00  0.00    -0.418 N 
HETATM   30  H   UNK N   1      31.173  16.444   6.468  0.00  0.00     0.150 HD
HETATM   31  H   UNK N   1      31.871  17.907   5.801  0.00  0.00     0.150 HD
ENDBRANCH  28  29
BRANCH  28  32
HETATM   32  C   UNK N   1      33.838  18.085   7.557  0.00  0.00     0.163 C 
HETATM   33  O   UNK N   1      34.472  18.639   8.441  0.00  0.00    -0.648 OA
BRANCH  32  34
HETATM   34  O   UNK N   1      34.382  17.965   6.330  0.00  0.00    -0.775 OA
HETATM   35  H   UNK N   1      35.066  17.357   6.126  0.00  0.00     0.167 HD
ENDBRANCH  32  34
ENDBRANCH  28  32
ENDBRANCH  27  28
ENDBRANCH  26  27
ENDBRANCH  24  26
ENDBRANCH  23  24
ENDBRANCH   1  23
BRANCH   5  36
HETATM   36  O   UNK N   1      37.164  15.775  10.823  0.00  0.00    -0.390 OA
HETATM   37  H   UNK N   1      38.069  16.003  11.089  0.00  0.00     0.210 HD
ENDBRANCH   5  36
TORSDOF 12
ENDMDL
