MODEL 1
REMARK VINA RESULT:      -5.2      0.000      0.000
REMARK  5 active torsions:
REMARK  status: ('A' for Active; 'I' for Inactive)
REMARK    1  A    between atoms: C_5  and  C_3 
REMARK    2  A    between atoms: C_6  and  C_3 
REMARK    3  A    between atoms: C_9  and  C_6 
REMARK    4  A    between atoms: C_6  and  N_10 
REMARK    5  A    between atoms: O_13  and  C_9 
ROOT
HETATM    1  C   UNK N   1      24.983  27.196  -5.458  0.00  0.00     0.030 A 
HETATM    2  C   UNK N   1      25.437  28.112  -4.516  0.00  0.00     0.002 A 
HETATM    3  C   UNK N   1      26.080  23.898  -5.146  0.00  0.00     0.096 A 
HETATM    4  C   UNK N   1      26.698  24.533  -4.069  0.00  0.00    -0.027 A 
HETATM    5  C   UNK N   1      25.496  25.963  -5.197  0.00  0.00     0.043 A 
HETATM    6  C   UNK N   1      26.300  25.856  -4.135  0.00  0.00     0.011 A 
HETATM    7  N   UNK N   1      25.335  24.794  -5.838  0.00  0.00    -0.365 N 
HETATM    8 Se   UNK N   1      26.560  27.404  -3.226  0.00  0.00     0.000 Se
HETATM    9  H   UNK N   1      24.791  24.623  -6.641  0.00  0.00     0.165 HD
ENDROOT
BRANCH   4  10
HETATM   10  C   UNK N   1      27.585  23.810  -3.091  0.00  0.00     0.076 C 
BRANCH  10  11
HETATM   11  C   UNK N   1      29.091  24.055  -3.194  0.00  0.00     0.177 C 
BRANCH  11  12
HETATM   12  C   UNK N   1      29.860  22.930  -2.555  0.00  0.00     0.163 C 
HETATM   13  O   UNK N   1      30.348  23.084  -1.446  0.00  0.00    -0.648 OA
BRANCH  12  14
HETATM   14  O   UNK N   1      30.019  21.751  -3.189  0.00  0.00    -0.775 OA
HETATM   15  H   UNK N   1      29.840  20.945  -2.745  0.00  0.00     0.167 HD
ENDBRANCH  12  14
ENDBRANCH  11  12
BRANCH  11  16
HETATM   16  N   UNK N   1      29.489  24.153  -4.588  0.00  0.00    -0.417 N 
HETATM   17  H   UNK N   1      30.151  24.652  -5.184  0.00  0.00     0.150 HD
HETATM   18  H   UNK N   1      28.926  23.518  -5.153  0.00  0.00     0.150 HD
ENDBRANCH  11  16
ENDBRANCH  10  11
ENDBRANCH   4  10
TORSDOF 5
ENDMDL
MODEL 2
REMARK VINA RESULT:      -5.1     16.203     18.925
REMARK  5 active torsions:
REMARK  status: ('A' for Active; 'I' for Inactive)
REMARK    1  A    between atoms: C_5  and  C_3 
REMARK    2  A    between atoms: C_6  and  C_3 
REMARK    3  A    between atoms: C_9  and  C_6 
REMARK    4  A    between atoms: C_6  and  N_10 
REMARK    5  A    between atoms: O_13  and  C_9 
ROOT
HETATM    1  C   UNK N   1      35.095  12.784  12.340  0.00  0.00     0.030 A 
HETATM    2  C   UNK N   1      35.768  13.809  12.996  0.00  0.00     0.002 A 
HETATM    3  C   UNK N   1      33.999  13.410   9.087  0.00  0.00     0.096 A 
HETATM    4  C   UNK N   1      34.624  14.606   9.438  0.00  0.00    -0.027 A 
HETATM    5  C   UNK N   1      34.740  13.183  11.089  0.00  0.00     0.043 A 
HETATM    6  C   UNK N   1      35.085  14.422  10.729  0.00  0.00     0.011 A 
HETATM    7  N   UNK N   1      34.079  12.532  10.117  0.00  0.00    -0.365 N 
HETATM    8 Se   UNK N   1      35.980  15.356  12.002  0.00  0.00     0.000 Se
HETATM    9  H   UNK N   1      33.727  11.613  10.147  0.00  0.00     0.165 HD
ENDROOT
BRANCH   4  10
HETATM   10  C   UNK N   1      34.723  15.783   8.506  0.00  0.00     0.076 C 
BRANCH  10  11
HETATM   11  C   UNK N   1      34.205  17.129   9.014  0.00  0.00     0.177 C 
BRANCH  11  12
HETATM   12  C   UNK N   1      34.638  18.246   8.102  0.00  0.00     0.163 C 
HETATM   13  O   UNK N   1      34.366  18.195   6.913  0.00  0.00    -0.648 OA
BRANCH  12  14
HETATM   14  O   UNK N   1      35.323  19.305   8.579  0.00  0.00    -0.775 OA
HETATM   15  H   UNK N   1      35.248  20.143   8.167  0.00  0.00     0.167 HD
ENDBRANCH  12  14
ENDBRANCH  11  12
BRANCH  11  16
HETATM   16  N   UNK N   1      32.753  17.117   9.073  0.00  0.00    -0.417 N 
HETATM   17  H   UNK N   1      31.975  16.461   9.145  0.00  0.00     0.150 HD
HETATM   18  H   UNK N   1      32.398  18.072   9.028  0.00  0.00     0.150 HD
ENDBRANCH  11  16
ENDBRANCH  10  11
ENDBRANCH   4  10
TORSDOF 5
ENDMDL
MODEL 3
REMARK VINA RESULT:      -5.1     15.987     18.588
REMARK  5 active torsions:
REMARK  status: ('A' for Active; 'I' for Inactive)
REMARK    1  A    between atoms: C_5  and  C_3 
REMARK    2  A    between atoms: C_6  and  C_3 
REMARK    3  A    between atoms: C_9  and  C_6 
REMARK    4  A    between atoms: C_6  and  N_10 
REMARK    5  A    between atoms: O_13  and  C_9 
ROOT
HETATM    1  C   UNK N   1      38.392  13.417   9.258  0.00  0.00     0.030 A 
HETATM    2  C   UNK N   1      38.165  12.861   8.004  0.00  0.00     0.002 A 
HETATM    3  C   UNK N   1      35.999  15.643  10.482  0.00  0.00     0.096 A 
HETATM    4  C   UNK N   1      35.475  15.275   9.243  0.00  0.00    -0.027 A 
HETATM    5  C   UNK N   1      37.372  14.255   9.590  0.00  0.00     0.043 A 
HETATM    6  C   UNK N   1      36.385  14.385   8.700  0.00  0.00     0.011 A 
HETATM    7  N   UNK N   1      37.175  15.002  10.688  0.00  0.00    -0.365 N 
HETATM    8 Se   UNK N   1      36.594  13.402   7.190  0.00  0.00     0.000 Se
HETATM    9  H   UNK N   1      37.761  15.070  11.477  0.00  0.00     0.165 HD
ENDROOT
BRANCH   4  10
HETATM   10  C   UNK N   1      34.165  15.800   8.719  0.00  0.00     0.076 C 
BRANCH  10  11
HETATM   11  C   UNK N   1      33.824  17.262   9.014  0.00  0.00     0.177 C 
BRANCH  11  12
HETATM   12  C   UNK N   1      34.553  18.181   8.070  0.00  0.00     0.163 C 
HETATM   13  O   UNK N   1      34.480  17.991   6.866  0.00  0.00    -0.648 OA
BRANCH  12  14
HETATM   14  O   UNK N   1      35.286  19.212   8.533  0.00  0.00    -0.775 OA
HETATM   15  H   UNK N   1      35.006  20.096   8.391  0.00  0.00     0.167 HD
ENDBRANCH  12  14
ENDBRANCH  11  12
BRANCH  11  16
HETATM   16  N   UNK N   1      32.396  17.483   8.865  0.00  0.00    -0.417 N 
HETATM   17  H   UNK N   1      31.732  18.235   8.679  0.00  0.00     0.150 HD
HETATM   18  H   UNK N   1      31.896  16.602   8.984  0.00  0.00     0.150 HD
ENDBRANCH  11  16
ENDBRANCH  10  11
ENDBRANCH   4  10
TORSDOF 5
ENDMDL
MODEL 4
REMARK VINA RESULT:      -5.0     13.653     14.578
REMARK  5 active torsions:
REMARK  status: ('A' for Active; 'I' for Inactive)
REMARK    1  A    between atoms: C_5  and  C_3 
REMARK    2  A    between atoms: C_6  and  C_3 
REMARK    3  A    between atoms: C_9  and  C_6 
REMARK    4  A    between atoms: C_6  and  N_10 
REMARK    5  A    between atoms: O_13  and  C_9 
ROOT
HETATM    1  C   UNK N   1      27.420  16.585   6.821  0.00  0.00     0.030 A 
HETATM    2  C   UNK N   1      28.163  16.170   5.722  0.00  0.00     0.002 A 
HETATM    3  C   UNK N   1      29.129  18.213   9.392  0.00  0.00     0.096 A 
HETATM    4  C   UNK N   1      30.139  17.947   8.468  0.00  0.00    -0.027 A 
HETATM    5  C   UNK N   1      28.227  17.201   7.727  0.00  0.00     0.043 A 
HETATM    6  C   UNK N   1      29.522  17.296   7.415  0.00  0.00     0.011 A 
HETATM    7  N   UNK N   1      27.945  17.748   8.921  0.00  0.00    -0.365 N 
HETATM    8 Se   UNK N   1      29.968  16.572   5.812  0.00  0.00     0.000 Se
HETATM    9  H   UNK N   1      27.066  17.801   9.360  0.00  0.00     0.165 HD
ENDROOT
BRANCH   4  10
HETATM   10  C   UNK N   1      31.573  18.350   8.684  0.00  0.00     0.076 C 
BRANCH  10  11
HETATM   11  C   UNK N   1      32.655  17.352   8.270  0.00  0.00     0.177 C 
BRANCH  11  12
HETATM   12  C   UNK N   1      33.799  18.056   7.591  0.00  0.00     0.163 C 
HETATM   13  O   UNK N   1      34.459  18.874   8.212  0.00  0.00    -0.648 OA
BRANCH  12  14
HETATM   14  O   UNK N   1      34.107  17.798   6.304  0.00  0.00    -0.775 OA
HETATM   15  H   UNK N   1      33.442  17.525   5.702  0.00  0.00     0.167 HD
ENDBRANCH  12  14
ENDBRANCH  11  12
BRANCH  11  16
HETATM   16  N   UNK N   1      33.168  16.656   9.437  0.00  0.00    -0.417 N 
HETATM   17  H   UNK N   1      33.201  15.721   9.844  0.00  0.00     0.150 HD
HETATM   18  H   UNK N   1      33.651  17.315  10.047  0.00  0.00     0.150 HD
ENDBRANCH  11  16
ENDBRANCH  10  11
ENDBRANCH   4  10
TORSDOF 5
ENDMDL
MODEL 5
REMARK VINA RESULT:      -5.0     17.644     18.950
REMARK  5 active torsions:
REMARK  status: ('A' for Active; 'I' for Inactive)
REMARK    1  A    between atoms: C_5  and  C_3 
REMARK    2  A    between atoms: C_6  and  C_3 
REMARK    3  A    between atoms: C_9  and  C_6 
REMARK    4  A    between atoms: C_6  and  N_10 
REMARK    5  A    between atoms: O_13  and  C_9 
ROOT
HETATM    1  C   UNK N   1      23.559  11.746  11.680  0.00  0.00     0.030 A 
HETATM    2  C   UNK N   1      24.613  12.160  10.874  0.00  0.00     0.002 A 
HETATM    3  C   UNK N   1      20.349  12.774  10.775  0.00  0.00     0.096 A 
HETATM    4  C   UNK N   1      21.147  13.338   9.781  0.00  0.00    -0.027 A 
HETATM    5  C   UNK N   1      22.382  12.224  11.194  0.00  0.00     0.043 A 
HETATM    6  C   UNK N   1      22.444  12.965  10.084  0.00  0.00     0.011 A 
HETATM    7  N   UNK N   1      21.125  12.082  11.646  0.00  0.00    -0.365 N 
HETATM    8 Se   UNK N   1      24.118  13.196   9.424  0.00  0.00     0.000 Se
HETATM    9  H   UNK N   1      20.830  11.582  12.441  0.00  0.00     0.165 HD
ENDROOT
BRANCH   4  10
HETATM   10  C   UNK N   1      20.588  14.158   8.649  0.00  0.00     0.076 C 
BRANCH  10  11
HETATM   11  C   UNK N   1      20.619  15.679   8.799  0.00  0.00     0.177 C 
BRANCH  11  12
HETATM   12  C   UNK N   1      21.244  16.322   7.590  0.00  0.00     0.163 C 
HETATM   13  O   UNK N   1      21.986  15.669   6.874  0.00  0.00    -0.648 OA
BRANCH  12  14
HETATM   14  O   UNK N   1      20.997  17.612   7.285  0.00  0.00    -0.775 OA
HETATM   15  H   UNK N   1      20.248  18.049   7.640  0.00  0.00     0.167 HD
ENDBRANCH  12  14
ENDBRANCH  11  12
BRANCH  11  16
HETATM   16  N   UNK N   1      19.269  16.195   8.952  0.00  0.00    -0.417 N 
HETATM   17  H   UNK N   1      18.446  16.081   9.543  0.00  0.00     0.150 HD
HETATM   18  H   UNK N   1      19.087  16.900   8.237  0.00  0.00     0.150 HD
ENDBRANCH  11  16
ENDBRANCH  10  11
ENDBRANCH   4  10
TORSDOF 5
ENDMDL
MODEL 6
REMARK VINA RESULT:      -5.0     14.671     17.011
REMARK  5 active torsions:
REMARK  status: ('A' for Active; 'I' for Inactive)
REMARK    1  A    between atoms: C_5  and  C_3 
REMARK    2  A    between atoms: C_6  and  C_3 
REMARK    3  A    between atoms: C_9  and  C_6 
REMARK    4  A    between atoms: C_6  and  N_10 
REMARK    5  A    between atoms: O_13  and  C_9 
ROOT
HETATM    1  C   UNK N   1      33.217  17.484   5.247  0.00  0.00     0.030 A 
HETATM    2  C   UNK N   1      33.478  16.320   4.534  0.00  0.00     0.002 A 
HETATM    3  C   UNK N   1      34.236  17.584   8.583  0.00  0.00     0.096 A 
HETATM    4  C   UNK N   1      34.647  16.316   8.172  0.00  0.00    -0.027 A 
HETATM    5  C   UNK N   1      33.676  17.365   6.522  0.00  0.00     0.043 A 
HETATM    6  C   UNK N   1      34.269  16.212   6.845  0.00  0.00     0.011 A 
HETATM    7  N   UNK N   1      33.637  18.227   7.551  0.00  0.00    -0.365 N 
HETATM    8 Se   UNK N   1      34.350  15.002   5.497  0.00  0.00     0.000 Se
HETATM    9  H   UNK N   1      33.255  19.135   7.555  0.00  0.00     0.165 HD
ENDROOT
BRANCH   4  10
HETATM   10  C   UNK N   1      35.361  15.352   9.080  0.00  0.00     0.076 C 
BRANCH  10  11
HETATM   11  C   UNK N   1      35.407  15.692  10.570  0.00  0.00     0.177 C 
BRANCH  11  12
HETATM   12  C   UNK N   1      34.380  14.896  11.331  0.00  0.00     0.163 C 
HETATM   13  O   UNK N   1      34.739  14.127  12.209  0.00  0.00    -0.648 OA
BRANCH  12  14
HETATM   14  O   UNK N   1      33.066  15.020  11.058  0.00  0.00    -0.775 OA
HETATM   15  H   UNK N   1      32.782  15.321  10.217  0.00  0.00     0.167 HD
ENDBRANCH  12  14
ENDBRANCH  11  12
BRANCH  11  16
HETATM   16  N   UNK N   1      36.721  15.389  11.113  0.00  0.00    -0.417 N 
HETATM   17  H   UNK N   1      37.439  14.665  11.075  0.00  0.00     0.150 HD
HETATM   18  H   UNK N   1      37.022  16.143  11.730  0.00  0.00     0.150 HD
ENDBRANCH  11  16
ENDBRANCH  10  11
ENDBRANCH   4  10
TORSDOF 5
ENDMDL
MODEL 7
REMARK VINA RESULT:      -4.9     14.246     15.334
REMARK  5 active torsions:
REMARK  status: ('A' for Active; 'I' for Inactive)
REMARK    1  A    between atoms: C_5  and  C_3 
REMARK    2  A    between atoms: C_6  and  C_3 
REMARK    3  A    between atoms: C_9  and  C_6 
REMARK    4  A    between atoms: C_6  and  N_10 
REMARK    5  A    between atoms: O_13  and  C_9 
ROOT
HETATM    1  C   UNK N   1      30.723  14.536   5.041  0.00  0.00     0.030 A 
HETATM    2  C   UNK N   1      31.722  13.599   5.280  0.00  0.00     0.002 A 
HETATM    3  C   UNK N   1      30.556  17.285   7.183  0.00  0.00     0.096 A 
HETATM    4  C   UNK N   1      31.642  16.568   7.683  0.00  0.00    -0.027 A 
HETATM    5  C   UNK N   1      30.795  15.541   5.955  0.00  0.00     0.043 A 
HETATM    6  C   UNK N   1      31.764  15.455   6.871  0.00  0.00     0.011 A 
HETATM    7  N   UNK N   1      30.039  16.640   6.109  0.00  0.00    -0.365 N 
HETATM    8 Se   UNK N   1      32.819  13.988   6.718  0.00  0.00     0.000 Se
HETATM    9  H   UNK N   1      29.272  16.919   5.558  0.00  0.00     0.165 HD
ENDROOT
BRANCH   4  10
HETATM   10  C   UNK N   1      32.450  17.025   8.869  0.00  0.00     0.076 C 
BRANCH  10  11
HETATM   11  C   UNK N   1      33.973  16.991   8.738  0.00  0.00     0.177 C 
BRANCH  11  12
HETATM   12  C   UNK N   1      34.458  18.113   7.859  0.00  0.00     0.163 C 
HETATM   13  O   UNK N   1      34.990  19.090   8.363  0.00  0.00    -0.648 OA
BRANCH  12  14
HETATM   14  O   UNK N   1      34.313  18.058   6.520  0.00  0.00    -0.775 OA
HETATM   15  H   UNK N   1      34.758  18.671   5.968  0.00  0.00     0.167 HD
ENDBRANCH  12  14
ENDBRANCH  11  12
BRANCH  11  16
HETATM   16  N   UNK N   1      34.592  17.128  10.045  0.00  0.00    -0.417 N 
HETATM   17  H   UNK N   1      34.338  17.232  11.028  0.00  0.00     0.150 HD
HETATM   18  H   UNK N   1      35.607  17.116   9.950  0.00  0.00     0.150 HD
ENDBRANCH  11  16
ENDBRANCH  10  11
ENDBRANCH   4  10
TORSDOF 5
ENDMDL
MODEL 8
REMARK VINA RESULT:      -4.9     12.763     14.248
REMARK  5 active torsions:
REMARK  status: ('A' for Active; 'I' for Inactive)
REMARK    1  A    between atoms: C_5  and  C_3 
REMARK    2  A    between atoms: C_6  and  C_3 
REMARK    3  A    between atoms: C_9  and  C_6 
REMARK    4  A    between atoms: C_6  and  N_10 
REMARK    5  A    between atoms: O_13  and  C_9 
ROOT
HETATM    1  C   UNK N   1      29.621  17.316   4.643  0.00  0.00     0.030 A 
HETATM    2  C   UNK N   1      29.093  16.982   5.885  0.00  0.00     0.002 A 
HETATM    3  C   UNK N   1      33.080  17.725   4.428  0.00  0.00     0.096 A 
HETATM    4  C   UNK N   1      32.890  17.395   5.770  0.00  0.00    -0.027 A 
HETATM    5  C   UNK N   1      30.974  17.435   4.726  0.00  0.00     0.043 A 
HETATM    6  C   UNK N   1      31.527  17.218   5.922  0.00  0.00     0.011 A 
HETATM    7  N   UNK N   1      31.885  17.744   3.789  0.00  0.00    -0.365 N 
HETATM    8 Se   UNK N   1      30.347  16.797   7.234  0.00  0.00     0.000 Se
HETATM    9  H   UNK N   1      31.720  17.943   2.839  0.00  0.00     0.165 HD
ENDROOT
BRANCH   4  10
HETATM   10  C   UNK N   1      34.024  17.273   6.752  0.00  0.00     0.076 C 
BRANCH  10  11
HETATM   11  C   UNK N   1      33.828  17.896   8.134  0.00  0.00     0.177 C 
BRANCH  11  12
HETATM   12  C   UNK N   1      33.895  16.844   9.209  0.00  0.00     0.163 C 
HETATM   13  O   UNK N   1      33.309  15.784   9.054  0.00  0.00    -0.648 OA
BRANCH  12  14
HETATM   14  O   UNK N   1      34.593  17.053  10.343  0.00  0.00    -0.775 OA
HETATM   15  H   UNK N   1      35.105  16.364  10.719  0.00  0.00     0.167 HD
ENDBRANCH  12  14
ENDBRANCH  11  12
BRANCH  11  16
HETATM   16  N   UNK N   1      34.862  18.884   8.390  0.00  0.00    -0.417 N 
HETATM   17  H   UNK N   1      35.444  19.234   9.152  0.00  0.00     0.150 HD
HETATM   18  H   UNK N   1      35.076  19.390   7.531  0.00  0.00     0.150 HD
ENDBRANCH  11  16
ENDBRANCH  10  11
ENDBRANCH   4  10
TORSDOF 5
ENDMDL
MODEL 9
REMARK VINA RESULT:      -4.8      2.892      4.091
REMARK  5 active torsions:
REMARK  status: ('A' for Active; 'I' for Inactive)
REMARK    1  A    between atoms: C_5  and  C_3 
REMARK    2  A    between atoms: C_6  and  C_3 
REMARK    3  A    between atoms: C_9  and  C_6 
REMARK    4  A    between atoms: C_6  and  N_10 
REMARK    5  A    between atoms: O_13  and  C_9 
ROOT
HETATM    1  C   UNK N   1      27.898  30.223  -5.146  0.00  0.00     0.030 A 
HETATM    2  C   UNK N   1      28.558  29.870  -6.317  0.00  0.00     0.002 A 
HETATM    3  C   UNK N   1      25.367  28.097  -4.028  0.00  0.00     0.096 A 
HETATM    4  C   UNK N   1      25.814  27.463  -5.187  0.00  0.00    -0.027 A 
HETATM    5  C   UNK N   1      26.948  29.296  -4.846  0.00  0.00     0.043 A 
HETATM    6  C   UNK N   1      26.827  28.263  -5.684  0.00  0.00     0.011 A 
HETATM    7  N   UNK N   1      26.079  29.232  -3.824  0.00  0.00    -0.365 N 
HETATM    8 Se   UNK N   1      27.974  28.292  -7.089  0.00  0.00     0.000 Se
HETATM    9  H   UNK N   1      25.980  29.874  -3.084  0.00  0.00     0.165 HD
ENDROOT
BRANCH   4  10
HETATM   10  C   UNK N   1      25.237  26.165  -5.685  0.00  0.00     0.076 C 
BRANCH  10  11
HETATM   11  C   UNK N   1      26.167  24.951  -5.722  0.00  0.00     0.177 C 
BRANCH  11  12
HETATM   12  C   UNK N   1      26.815  24.734  -4.381  0.00  0.00     0.163 C 
HETATM   13  O   UNK N   1      26.150  24.304  -3.451  0.00  0.00    -0.648 OA
BRANCH  12  14
HETATM   14  O   UNK N   1      28.121  25.008  -4.189  0.00  0.00    -0.775 OA
HETATM   15  H   UNK N   1      28.382  25.680  -3.590  0.00  0.00     0.167 HD
ENDBRANCH  12  14
ENDBRANCH  11  12
BRANCH  11  16
HETATM   16  N   UNK N   1      25.416  23.757  -6.072  0.00  0.00    -0.417 N 
HETATM   17  H   UNK N   1      25.368  22.764  -5.843  0.00  0.00     0.150 HD
HETATM   18  H   UNK N   1      24.710  23.985  -6.771  0.00  0.00     0.150 HD
ENDBRANCH  11  16
ENDBRANCH  10  11
ENDBRANCH   4  10
TORSDOF 5
ENDMDL
