REMARK WARNING: 32 MAX_TORS EXCEEDED!!!
REMARK  38 active torsions:
REMARK  status: ('A' for Active; 'I' for Inactive)
REMARK    1  A    between atoms: C_17  and  C_11 
REMARK    2  A    between atoms: C_19  and  C_11 
REMARK    3  A    between atoms: C_18  and  C_12 
REMARK    4  A    between atoms: C_20  and  C_12 
REMARK    5  A    between atoms: C_21  and  C_13 
REMARK    6  A    between atoms: C_23  and  C_13 
REMARK    7  A    between atoms: C_22  and  C_14 
REMARK    8  A    between atoms: C_24  and  C_14 
REMARK    9  A    between atoms: C_25  and  C_15 
REMARK   10  A    between atoms: C_27  and  C_15 
REMARK   11  A    between atoms: C_26  and  C_16 
REMARK   12  A    between atoms: C_28  and  C_16 
REMARK   13  A    between atoms: C_35  and  C_17 
REMARK   14  A    between atoms: C_36  and  C_18 
REMARK   15  A    between atoms: C_37  and  C_19 
REMARK   16  A    between atoms: C_38  and  C_20 
REMARK   17  A    between atoms: C_37  and  C_21 
REMARK   18  A    between atoms: C_38  and  C_22 
REMARK   19  A    between atoms: C_39  and  C_23 
REMARK   20  A    between atoms: C_40  and  C_24 
REMARK   21  A    between atoms: C_39  and  C_25 
REMARK   22  A    between atoms: C_40  and  C_26 
REMARK   23  A    between atoms: C_41  and  C_27 
REMARK   24  A    between atoms: C_42  and  C_28 
REMARK   25  A    between atoms: C_31  and  C_29 
REMARK   26  A    between atoms: C_41  and  C_29 
REMARK   27  A    between atoms: C_32  and  C_30 
REMARK   28  A    between atoms: C_42  and  C_30 
REMARK   29  A    between atoms: O_47  and  C_31 
REMARK   30  A    between atoms: O_48  and  C_32 
REMARK   31  A    between atoms: C_43  and  C_33 
REMARK   32  A    between atoms: O_47  and  C_33 
REMARK   33  A    between atoms: C_43  and  C_34 
REMARK   34  A    between atoms: O_49  and  C_34 
REMARK   35  A    between atoms: C_43  and  O_48 
REMARK   36  A    between atoms: P_50  and  O_44 
REMARK   37  A    between atoms: P_50  and  O_45 
REMARK   38  A    between atoms: P_50  and  O_49 
ROOT
HETATM    1  C   UNK N   1      22.149  -5.382   0.075  0.00  0.00     0.169 C 
ENDROOT
BRANCH   1   2
HETATM    2  C   UNK N   1      21.188  -5.081   1.233  0.00  0.00     0.201 C 
BRANCH   2   3
HETATM    3  O   UNK N   1      19.905  -4.788   0.769  0.00  0.00    -0.389 OA
BRANCH   3   4
HETATM    4  C   UNK N   1      19.248  -6.021   0.809  0.00  0.00     0.168 C 
BRANCH   4   5
HETATM    5  C   UNK N   1      18.997  -6.502  -0.612  0.00  0.00     0.030 C 
BRANCH   5   6
HETATM    6  C   UNK N   1      17.681  -5.964  -1.146  0.00  0.00    -0.017 C 
HETATM    7  C   UNK N   1      17.755  -5.949  -2.657  0.00  0.00     0.010 C 
BRANCH   6   8
HETATM    8  C   UNK N   1      16.512  -6.859  -0.754  0.00  0.00     0.004 C 
BRANCH   8   9
HETATM    9  C   UNK N   1      16.326  -7.128   0.739  0.00  0.00     0.001 C 
BRANCH   9  10
HETATM   10  C   UNK N   1      16.136  -5.897   1.630  0.00  0.00     0.004 C 
BRANCH  10  11
HETATM   11  C   UNK N   1      14.953  -4.965   1.339  0.00  0.00    -0.019 C 
HETATM   12  C   UNK N   1      15.401  -3.765   0.518  0.00  0.00     0.010 C 
BRANCH  11  13
HETATM   13  C   UNK N   1      13.710  -5.649   0.750  0.00  0.00     0.004 C 
BRANCH  13  14
HETATM   14  C   UNK N   1      13.775  -5.771  -0.773  0.00  0.00     0.001 C 
BRANCH  14  15
HETATM   15  C   UNK N   1      12.424  -5.681  -1.489  0.00  0.00     0.004 C 
BRANCH  15  16
HETATM   16  C   UNK N   1      11.378  -4.733  -0.880  0.00  0.00    -0.019 C 
HETATM   17  C   UNK N   1      11.974  -3.386  -0.506  0.00  0.00     0.010 C 
BRANCH  16  18
HETATM   18  C   UNK N   1      10.705  -5.363   0.333  0.00  0.00     0.004 C 
BRANCH  18  19
HETATM   19  C   UNK N   1       9.928  -6.609  -0.070  0.00  0.00     0.001 C 
BRANCH  19  20
HETATM   20  C   UNK N   1       8.791  -6.893   0.906  0.00  0.00     0.004 C 
BRANCH  20  21
HETATM   21  C   UNK N   1       7.587  -5.961   0.735  0.00  0.00    -0.023 C 
HETATM   22  C   UNK N   1       7.043  -5.985  -0.683  0.00  0.00     0.009 C 
HETATM   23  C   UNK N   1       7.895  -4.537   1.162  0.00  0.00     0.009 C 
ENDBRANCH  20  21
ENDBRANCH  19  20
ENDBRANCH  18  19
ENDBRANCH  16  18
ENDBRANCH  15  16
ENDBRANCH  14  15
ENDBRANCH  13  14
ENDBRANCH  11  13
ENDBRANCH  10  11
ENDBRANCH   9  10
ENDBRANCH   8   9
ENDBRANCH   6   8
ENDBRANCH   5   6
ENDBRANCH   4   5
ENDBRANCH   3   4
ENDBRANCH   2   3
ENDBRANCH   1   2
BRANCH   1  24
HETATM   24  C   UNK N   1      23.222  -6.331   0.592  0.00  0.00     0.214 C 
BRANCH  24  25
HETATM   25  O   UNK N   1      23.619  -7.236  -0.395  0.00  0.00    -0.294 OA
BRANCH  25  26
HETATM   26  P   UNK N   1      22.932  -8.749   0.124  0.00  0.00     0.390 P 
HETATM   27  O   UNK N   1      23.551  -9.862  -0.761  0.00  0.00    -0.632 OA
BRANCH  26  28
HETATM   28  O   UNK N   1      21.213  -8.808  -0.118  0.00  0.00    -0.307 OA
HETATM   29  H   UNK N   1      20.705  -7.993  -0.253  0.00  0.00     0.222 HD
ENDBRANCH  26  28
BRANCH  26  30
HETATM   30  O   UNK N   1      23.359  -9.122   1.766  0.00  0.00    -0.307 OA
HETATM   31  H   UNK N   1      23.298  -9.432   2.683  0.00  0.00     0.222 HD
ENDBRANCH  26  30
ENDBRANCH  25  26
ENDBRANCH  24  25
ENDBRANCH   1  24
BRANCH   1  32
HETATM   32  O   UNK N   1      22.684  -4.219  -0.544  0.00  0.00    -0.382 OA
BRANCH  32  33
HETATM   33  C   UNK N   1      23.261  -3.391   0.438  0.00  0.00     0.168 C 
BRANCH  33  34
HETATM   34  C   UNK N   1      24.691  -2.978   0.091  0.00  0.00     0.030 C 
BRANCH  34  35
HETATM   35  C   UNK N   1      25.601  -4.155  -0.243  0.00  0.00    -0.017 C 
HETATM   36  C   UNK N   1      25.399  -4.573  -1.687  0.00  0.00     0.010 C 
BRANCH  35  37
HETATM   37  C   UNK N   1      27.053  -3.751  -0.064  0.00  0.00     0.004 C 
BRANCH  37  38
HETATM   38  C   UNK N   1      27.475  -3.744   1.405  0.00  0.00     0.001 C 
BRANCH  38  39
HETATM   39  C   UNK N   1      27.667  -5.152   2.001  0.00  0.00     0.004 C 
BRANCH  39  40
HETATM   40  C   UNK N   1      28.457  -6.149   1.139  0.00  0.00    -0.019 C 
HETATM   41  C   UNK N   1      27.543  -6.823   0.121  0.00  0.00     0.010 C 
BRANCH  40  42
HETATM   42  C   UNK N   1      29.698  -5.481   0.540  0.00  0.00     0.004 C 
BRANCH  42  43
HETATM   43  C   UNK N   1      29.810  -5.524  -0.983  0.00  0.00     0.001 C 
BRANCH  43  44
HETATM   44  C   UNK N   1      30.985  -6.380  -1.470  0.00  0.00     0.004 C 
BRANCH  44  45
HETATM   45  C   UNK N   1      32.318  -6.167  -0.740  0.00  0.00    -0.019 C 
HETATM   46  C   UNK N   1      32.318  -6.977   0.549  0.00  0.00     0.010 C 
BRANCH  45  47
HETATM   47  C   UNK N   1      32.557  -4.676  -0.452  0.00  0.00     0.004 C 
BRANCH  47  48
HETATM   48  C   UNK N   1      33.997  -4.253  -0.155  0.00  0.00     0.001 C 
BRANCH  48  49
HETATM   49  C   UNK N   1      34.774  -5.221   0.725  0.00  0.00     0.004 C 
BRANCH  49  50
HETATM   50  C   UNK N   1      35.701  -6.058  -0.141  0.00  0.00    -0.023 C 
HETATM   51  C   UNK N   1      36.841  -5.206  -0.666  0.00  0.00     0.009 C 
HETATM   52  C   UNK N   1      36.264  -7.205   0.668  0.00  0.00     0.009 C 
ENDBRANCH  49  50
ENDBRANCH  48  49
ENDBRANCH  47  48
ENDBRANCH  45  47
ENDBRANCH  44  45
ENDBRANCH  43  44
ENDBRANCH  42  43
ENDBRANCH  40  42
ENDBRANCH  39  40
ENDBRANCH  38  39
ENDBRANCH  37  38
ENDBRANCH  35  37
ENDBRANCH  34  35
ENDBRANCH  33  34
ENDBRANCH  32  33
ENDBRANCH   1  32
TORSDOF 38
