REMARK  9 active torsions:
REMARK  status: ('A' for Active; 'I' for Inactive)
REMARK    1  A    between atoms: O_1  and  C_12 
REMARK    2  A    between atoms: O_1  and  C_23 
REMARK    3  A    between atoms: N_3  and  C_10 
REMARK    4  A    between atoms: C_5  and  C_11 
REMARK    5  A    between atoms: C_5  and  C_12 
REMARK    6  A    between atoms: C_10  and  C_13 
REMARK    7  A    between atoms: C_13  and  C_14 
REMARK    8  A    between atoms: C_14  and  C_17 
REMARK    9  A    between atoms: C_14  and  C_18 
ROOT
HETATM    1  N   UNK N   1       5.804  -2.134   2.319  0.00  0.00    -0.196 NA
HETATM    2  C   UNK N   1       4.342  -2.432   0.145  0.00  0.00     0.104 C 
HETATM    3  C   UNK N   1       5.140  -2.253   1.379  0.00  0.00     0.079 C 
ENDROOT
BRANCH   2   4
HETATM    4  C   UNK N   1       5.012  -1.626  -1.014  0.00  0.00     0.065 C 
BRANCH   4   5
HETATM    5  C   UNK N   1       6.102  -0.566  -0.643  0.00  0.00     0.275 C 
BRANCH   5   6
HETATM    6  N   UNK N   1       5.659   0.826  -0.424  0.00  0.00     0.088 N 
HETATM    7  C   UNK N   1       4.529   1.179  -1.278  0.00  0.00     0.274 C 
HETATM    8  C   UNK N   1       4.147   2.657  -1.156  0.00  0.00     0.055 C 
HETATM    9  C   UNK N   1       4.754   3.416   0.042  0.00  0.00     0.078 C 
HETATM   10  C   UNK N   1       4.760   2.473   1.265  0.00  0.00     0.055 C 
HETATM   11  C   UNK N   1       5.370   1.073   0.995  0.00  0.00     0.274 C 
BRANCH   9  12
HETATM   12  C   UNK N   1       6.162   3.943  -0.240  0.00  0.00    -0.040 A 
HETATM   13  C   UNK N   1       6.798   4.799   0.679  0.00  0.00     0.008 A 
HETATM   14  C   UNK N   1       8.057   5.340   0.391  0.00  0.00     0.001 A 
HETATM   15  C   UNK N   1       8.697   5.025  -0.810  0.00  0.00     0.000 A 
HETATM   16  C   UNK N   1       8.079   4.171  -1.726  0.00  0.00     0.001 A 
HETATM   17  C   UNK N   1       6.817   3.642  -1.447  0.00  0.00     0.008 A 
ENDBRANCH   9  12
BRANCH   9  18
HETATM   18  C   UNK N   1       3.838   4.610   0.258  0.00  0.00     0.272 C 
HETATM   19  O   UNK N   1       3.791   5.490  -0.590  0.00  0.00    -0.264 OA
BRANCH  18  20
HETATM   20  O   UNK N   1       2.992   4.677   1.313  0.00  0.00    -0.321 OA
BRANCH  20  21
HETATM   21  C   UNK N   1       1.739   4.097   1.255  0.00  0.00     0.174 C 
HETATM   22  C   UNK N   1       0.963   4.548   0.018  0.00  0.00     0.034 C 
ENDBRANCH  20  21
ENDBRANCH  18  20
ENDBRANCH   9  18
ENDBRANCH   5   6
ENDBRANCH   4   5
ENDBRANCH   2   4
BRANCH   2  23
HETATM   23  C   UNK N   1       2.882  -1.999   0.306  0.00  0.00    -0.031 A 
HETATM   24  C   UNK N   1       2.182  -2.236   1.506  0.00  0.00     0.009 A 
HETATM   25  C   UNK N   1       0.805  -1.999   1.588  0.00  0.00     0.001 A 
HETATM   26  C   UNK N   1       0.099  -1.555   0.467  0.00  0.00     0.000 A 
HETATM   27  C   UNK N   1       0.771  -1.348  -0.739  0.00  0.00     0.001 A 
HETATM   28  C   UNK N   1       2.147  -1.581  -0.822  0.00  0.00     0.009 A 
ENDBRANCH   2  23
BRANCH   2  29
HETATM   29  C   UNK N   1       4.313  -3.943  -0.107  0.00  0.00    -0.031 A 
HETATM   30  C   UNK N   1       4.755  -4.509  -1.315  0.00  0.00     0.009 A 
HETATM   31  C   UNK N   1       4.724  -5.897  -1.501  0.00  0.00     0.001 A 
HETATM   32  C   UNK N   1       4.261  -6.735  -0.481  0.00  0.00     0.000 A 
HETATM   33  C   UNK N   1       3.817  -6.190   0.722  0.00  0.00     0.001 A 
HETATM   34  C   UNK N   1       3.837  -4.808   0.905  0.00  0.00     0.009 A 
ENDBRANCH   2  29
TORSDOF 9
