REMARK  2 active torsions:
REMARK  status: ('A' for Active; 'I' for Inactive)
REMARK    1  A    between atoms: C_4  and  C_7 
REMARK    2  A    between atoms: C_4  and  C_8 
ROOT
HETATM    1  O   UNK N   1       0.975  -0.158   0.783  0.00  0.00    -0.296 OA
HETATM    2  O   UNK N   1       5.469   0.334  -0.579  0.00  0.00    -0.272 OA
HETATM    3  N   UNK N   1       4.618  -1.636   0.009  0.00  0.00    -0.359 N 
HETATM    4  C   UNK N   1       3.175   0.446   0.075  0.00  0.00     0.101 C 
HETATM    5  C   UNK N   1       2.242  -1.990  -0.029  0.00  0.00     0.070 C 
HETATM    6  C   UNK N   1       2.048  -0.544   0.337  0.00  0.00     0.150 C 
HETATM    7  C   UNK N   1       4.495  -0.293  -0.196  0.00  0.00     0.233 C 
HETATM    8  C   UNK N   1       3.554  -2.446   0.556  0.00  0.00     0.134 C 
HETATM    9  C   UNK N   1       1.095  -2.893   0.391  0.00  0.00     0.020 C 
HETATM   10  H   UNK N   1       5.470  -2.072  -0.225  0.00  0.00     0.162 HD
ENDROOT
BRANCH   4  11
HETATM   11  C   UNK N   1       2.798   1.287  -1.160  0.00  0.00     0.022 C 
HETATM   12  C   UNK N   1       1.567   2.164  -0.952  0.00  0.00     0.007 C 
ENDBRANCH   4  11
BRANCH   4  13
HETATM   13  C   UNK N   1       3.372   1.344   1.314  0.00  0.00     0.022 C 
HETATM   14  C   UNK N   1       4.376   2.473   1.099  0.00  0.00     0.007 C 
ENDBRANCH   4  13
TORSDOF 2
