REMARK  2 active torsions:
REMARK  status: ('A' for Active; 'I' for Inactive)
REMARK    1  A    between atoms: N_5  and  C_11 
REMARK    2  A    between atoms: C_6  and  C_7 
ROOT
HETATM    1  O   UNK N   1       1.845   1.196   0.030  0.00  0.00    -0.302 OA
HETATM    2  O   UNK N   1       5.260   1.021  -0.008  0.00  0.00    -0.270 OA
HETATM    3  N   UNK N   1       3.598   2.550  -0.017  0.00  0.00    -0.290 N 
ATOM      4  HN  UNK N   1       4.149   3.407  -0.042  1.00  0.00     0.172 HD
HETATM    5  C   UNK N   1       2.940   0.359   0.041  0.00  0.00     0.257 A 
HETATM    6  C   UNK N   1       4.073   1.302   0.005  0.00  0.00     0.259 A 
HETATM    7  C   UNK N   1       2.318   2.469  -0.001  0.00  0.00     0.220 A 
ENDROOT
BRANCH   5   8
HETATM    8  C   UNK N   1       2.862  -1.125   0.042  0.00  0.00    -0.020 A 
HETATM    9  C   UNK N   1       4.036  -1.885   0.026  0.00  0.00     0.010 A 
HETATM   10  C   UNK N   1       3.967  -3.279   0.021  0.00  0.00     0.001 A 
HETATM   11  C   UNK N   1       2.723  -3.916   0.032  0.00  0.00     0.000 A 
HETATM   12  C   UNK N   1       1.548  -3.158   0.049  0.00  0.00     0.001 A 
HETATM   13  C   UNK N   1       1.617  -1.763   0.054  0.00  0.00     0.010 A 
ENDBRANCH   5   8
BRANCH   7  14
HETATM   14  N   UNK N   1       1.480   3.604  -0.017  0.00  0.00    -0.365 N 
HETATM   15  H   UNK N   1       1.874   4.506  -0.028  0.00  0.00     0.159 HD
HETATM   16  H   UNK N   1       0.502   3.493  -0.017  0.00  0.00     0.159 HD
ENDBRANCH   7  14
TORSDOF 2
