REMARK  4 active torsions:
REMARK  status: ('A' for Active; 'I' for Inactive)
REMARK    1  A    between atoms: C_6  and  C_7 
REMARK    2  A    between atoms: C_6  and  C_8 
REMARK    3  A    between atoms: C_7  and  C_9 
REMARK    4  A    between atoms: C_9  and  C_12 
ROOT
HETATM    1  O   UNK N   1       1.142  -0.367   0.942  0.00  0.00    -0.272 OA
HETATM    2  O   UNK N   1       5.270  -0.064  -1.313  0.00  0.00    -0.272 OA
HETATM    3  O   UNK N   1       3.494  -3.969  -0.163  0.00  0.00    -0.247 OA
HETATM    4  N   UNK N   1       2.319  -2.165   0.391  0.00  0.00    -0.278 N 
HETATM    5  N   UNK N   1       4.387  -2.013  -0.727  0.00  0.00    -0.278 N 
HETATM    6  C   UNK N   1       3.166   0.122  -0.212  0.00  0.00     0.122 A 
HETATM    7  C   UNK N   1       2.143  -0.822   0.409  0.00  0.00     0.243 A 
HETATM    8  C   UNK N   1       4.347  -0.660  -0.778  0.00  0.00     0.243 A 
HETATM    9  C   UNK N   1       3.403  -2.753  -0.166  0.00  0.00     0.329 A 
HETATM   10  H   UNK N   1       1.630  -2.737   0.801  0.00  0.00     0.173 HD
HETATM   11  H   UNK N   1       5.165  -2.477  -1.113  0.00  0.00     0.173 HD
ENDROOT
BRANCH   6  12
HETATM   12  C   UNK N   1       3.638   1.087   0.896  0.00  0.00     0.029 C 
BRANCH  12  13
HETATM   13  C   UNK N   1       4.702   2.087   0.450  0.00  0.00     0.001 C 
BRANCH  13  14
HETATM   14  C   UNK N   1       4.382   3.476   0.963  0.00  0.00    -0.005 C 
HETATM   15  C   UNK N   1       3.352   4.131   0.063  0.00  0.00     0.005 C 
ENDBRANCH  13  14
ENDBRANCH  12  13
ENDBRANCH   6  12
BRANCH   6  16
HETATM   16  C   UNK N   1       2.529   0.889  -1.390  0.00  0.00     0.024 C 
HETATM   17  C   UNK N   1       1.283   1.689  -1.034  0.00  0.00     0.007 C 
ENDBRANCH   6  16
TORSDOF 4
