REMARK  4 active torsions:
REMARK  status: ('A' for Active; 'I' for Inactive)
REMARK    1  A    between atoms: O_1  and  C_12 
REMARK    2  A    between atoms: N_2  and  C_7 
REMARK    3  A    between atoms: C_4  and  C_5 
REMARK    4  A    between atoms: C_4  and  C_7 
ROOT
HETATM    1  N   UNK N   1       5.239  -2.747  -0.120  0.00  0.00    -0.365 N 
HETATM    2  C   UNK N   1       5.400  -0.556   0.348  0.00  0.00    -0.029 A 
HETATM    3  C   UNK N   1       4.078  -0.857   0.150  0.00  0.00     0.001 A 
HETATM    4  C   UNK N   1       4.012  -2.192  -0.127  0.00  0.00     0.043 A 
HETATM    5  C   UNK N   1       6.106  -1.743   0.176  0.00  0.00     0.096 A 
HETATM    6  C   UNK N   1       2.937  -0.060   0.213  0.00  0.00     0.050 A 
HETATM    7  C   UNK N   1       2.800  -2.836  -0.356  0.00  0.00     0.033 A 
HETATM    8  C   UNK N   1       1.694  -0.676  -0.020  0.00  0.00     0.066 A 
HETATM    9  C   UNK N   1       1.626  -2.061  -0.301  0.00  0.00     0.039 A 
HETATM   10  H   UNK N   1       5.463  -3.690  -0.294  0.00  0.00     0.165 HD
ENDROOT
BRANCH   2  11
HETATM   11  C   UNK N   1       5.951   0.774   0.746  0.00  0.00     0.071 C 
BRANCH  11  12
HETATM   12  C   UNK N   1       6.963   1.321  -0.247  0.00  0.00     0.276 C 
BRANCH  12  13
HETATM   13  N   UNK N   1       7.408   2.632   0.204  0.00  0.00     0.080 N 
HETATM   14  C   UNK N   1       8.708   2.887  -0.388  0.00  0.00     0.309 C 
HETATM   15  C   UNK N   1       6.492   3.624  -0.333  0.00  0.00     0.309 C 
ENDBRANCH  12  13
ENDBRANCH  11  12
ENDBRANCH   2  11
BRANCH   8  16
HETATM   16  O   UNK N   1       0.568   0.054   0.026  0.00  0.00    -0.361 OA
HETATM   17  H   UNK N   1       0.616   0.989   0.058  0.00  0.00     0.217 HD
ENDBRANCH   8  16
TORSDOF 4
