REMARK  2 active torsions:
REMARK  status: ('A' for Active; 'I' for Inactive)
REMARK    1  A    between atoms: N_4  and  C_9 
REMARK    2  A    between atoms: C_5  and  C_7 
ROOT
HETATM    1  O   UNK N   1       1.993   1.248  -0.000  0.00  0.00    -0.310 OA
HETATM    2  N   UNK N   1       3.658   2.704   0.000  0.00  0.00    -0.349 N 
ATOM      3  HN  UNK N   1       4.143   3.601  -0.000  1.00  0.00     0.163 HD
HETATM    4  C   UNK N   1       3.114   0.452  -0.000  0.00  0.00     0.187 A 
HETATM    5  C   UNK N   1       4.280   1.415   0.000  0.00  0.00     0.115 A 
HETATM    6  C   UNK N   1       5.783   1.230  -0.000  0.00  0.00     0.035 C 
HETATM    7  C   UNK N   1       2.388   2.537  -0.000  0.00  0.00     0.213 A 
ENDROOT
BRANCH   4   8
HETATM    8  C   UNK N   1       3.019  -1.036   0.000  0.00  0.00    -0.027 A 
HETATM    9  C   UNK N   1       4.175  -1.825   0.000  0.00  0.00     0.010 A 
HETATM   10  C   UNK N   1       4.068  -3.219   0.000  0.00  0.00     0.001 A 
HETATM   11  C   UNK N   1       2.808  -3.825   0.000  0.00  0.00     0.000 A 
HETATM   12  C   UNK N   1       1.653  -3.038   0.000  0.00  0.00     0.001 A 
HETATM   13  C   UNK N   1       1.760  -1.646  -0.000  0.00  0.00     0.010 A 
ENDBRANCH   4   8
BRANCH   7  14
HETATM   14  N   UNK N   1       1.479   3.616  -0.000  0.00  0.00    -0.365 N 
HETATM   15  H   UNK N   1       1.814   4.541  -0.000  0.00  0.00     0.159 HD
HETATM   16  H   UNK N   1       0.510   3.443  -0.000  0.00  0.00     0.159 HD
ENDBRANCH   7  14
TORSDOF 2
