REMARK  4 active torsions:
REMARK  status: ('A' for Active; 'I' for Inactive)
REMARK    1  A    between atoms: C_16  and  O_2 
REMARK    2  A    between atoms: O_2  and  C_24 
REMARK    3  A    between atoms: O_3  and  C_22 
REMARK    4  A    between atoms: O_3  and  C_26 
ROOT
HETATM    1  O   UNK N   1       1.895   0.331  -0.649  0.00  0.00    -0.338 OA
HETATM    2  N   UNK N   1       6.900  -0.898  -0.821  0.00  0.00     0.089 N 
HETATM    3  C   UNK N   1       3.995  -0.689  -0.490  0.00  0.00     0.030 C 
HETATM    4  C   UNK N   1       4.825  -1.600   0.411  0.00  0.00     0.057 C 
HETATM    5  C   UNK N   1       6.252  -0.943   0.509  0.00  0.00     0.235 C 
HETATM    6  C   UNK N   1       2.457  -0.955  -0.622  0.00  0.00     0.176 C 
HETATM    7  C   UNK N   1       4.647  -0.637  -1.885  0.00  0.00     0.048 C 
HETATM    8  C   UNK N   1       3.960   0.670   0.062  0.00  0.00    -0.003 A 
HETATM    9  C   UNK N   1       6.229   0.513   1.087  0.00  0.00     0.075 C 
HETATM   10  C   UNK N   1       6.110  -0.175  -1.829  0.00  0.00     0.273 C 
HETATM   11  C   UNK N   1       4.995   1.307   0.720  0.00  0.00    -0.046 A 
HETATM   12  C   UNK N   1       1.889  -1.688   0.627  0.00  0.00     0.185 C 
HETATM   13  C   UNK N   1       4.145  -1.786   1.741  0.00  0.00    -0.020 C 
HETATM   14  C   UNK N   1       2.752   1.225  -0.138  0.00  0.00     0.111 A 
HETATM   15  C   UNK N   1       2.808  -1.895   1.822  0.00  0.00     0.004 C 
HETATM   16  C   UNK N   1       7.222  -2.232  -1.315  0.00  0.00     0.310 C 
HETATM   17  C   UNK N   1       4.795   2.633   1.131  0.00  0.00     0.011 A 
HETATM   18  C   UNK N   1       2.502   2.553   0.235  0.00  0.00     0.113 A 
HETATM   19  C   UNK N   1       3.559   3.265   0.860  0.00  0.00     0.041 A 
ENDROOT
BRANCH  12  20
HETATM   20  O   UNK N   1       1.097  -2.784   0.323  0.00  0.00    -0.310 OA
BRANCH  20  21
HETATM   21  C   UNK N   1       1.553  -3.954  -0.194  0.00  0.00     0.255 C 
HETATM   22  O   UNK N   1       2.746  -4.144  -0.371  0.00  0.00    -0.266 OA
HETATM   23  C   UNK N   1       0.578  -5.018  -0.564  0.00  0.00     0.126 C 
ENDBRANCH  20  21
ENDBRANCH  12  20
BRANCH  18  24
HETATM   24  O   UNK N   1       1.278   3.102   0.004  0.00  0.00    -0.276 OA
BRANCH  24  25
HETATM   25  C   UNK N   1       0.874   4.364   0.328  0.00  0.00     0.260 C 
HETATM   26  O   UNK N   1       1.606   5.138   0.924  0.00  0.00    -0.265 OA
HETATM   27  C   UNK N   1      -0.496   4.808  -0.050  0.00  0.00     0.126 C 
ENDBRANCH  24  25
ENDBRANCH  18  24
TORSDOF 4
