REMARK  3 active torsions:
REMARK  status: ('A' for Active; 'I' for Inactive)
REMARK    1  A    between atoms: N_3  and  C_4 
REMARK    2  A    between atoms: C_4  and  C_5 
REMARK    3  A    between atoms: C_5  and  C_6 
ROOT
HETATM    1  O   UNK N   1       8.025   0.816   0.128  0.00  0.00    -0.323 OA
HETATM    2  O   UNK N   1       8.053  -1.381  -0.154  0.00  0.00    -0.323 OA
HETATM    3  C   UNK N   1       4.374   0.390   0.018  0.00  0.00    -0.053 A 
HETATM    4  C   UNK N   1       5.589   1.093   0.132  0.00  0.00     0.047 A 
HETATM    5  C   UNK N   1       6.775   0.367   0.051  0.00  0.00     0.105 A 
HETATM    6  C   UNK N   1       4.397  -1.017  -0.175  0.00  0.00     0.010 A 
HETATM    7  C   UNK N   1       6.790  -0.959  -0.122  0.00  0.00     0.105 A 
HETATM    8  C   UNK N   1       5.624  -1.708  -0.242  0.00  0.00     0.040 A 
HETATM    9  C   UNK N   1       8.894  -0.274   0.002  0.00  0.00     0.352 A 
ENDROOT
BRANCH   3  10
HETATM   10  C   UNK N   1       3.090   1.170   0.130  0.00  0.00     0.063 C 
BRANCH  10  11
HETATM   11  C   UNK N   1       1.775   0.424  -0.113  0.00  0.00     0.076 C 
HETATM   12  C   UNK N   1       1.597  -0.724   0.873  0.00  0.00     0.032 C 
BRANCH  11  13
HETATM   13  N   UNK N   1       0.685   1.377   0.055  0.00  0.00    -0.421 N 
HETATM   14  C   UNK N   1      -0.507   0.840  -0.583  0.00  0.00     0.140 C 
HETATM   15  H   UNK N   1       0.747   2.272   0.539  0.00  0.00     0.153 HD
ENDBRANCH  11  13
ENDBRANCH  10  11
ENDBRANCH   3  10
TORSDOF 3
