REMARK  5 active torsions:
REMARK  status: ('A' for Active; 'I' for Inactive)
REMARK    1  A    between atoms: N_1  and  C_3 
REMARK    2  A    between atoms: N_1  and  C_7 
REMARK    3  A    between atoms: N_1  and  C_8 
REMARK    4  A    between atoms: C_3  and  C_4 
REMARK    5  A    between atoms: C_4  and  C_5 
ROOT
HETATM    1  N   UNK N   1       3.597  -3.350  -0.079  0.00  0.00    -0.365 N 
HETATM    2  C   UNK N   1       3.723  -1.117   0.148  0.00  0.00    -0.029 A 
HETATM    3  C   UNK N   1       2.401  -1.471   0.091  0.00  0.00    -0.002 A 
HETATM    4  C   UNK N   1       2.358  -2.828  -0.045  0.00  0.00     0.042 A 
HETATM    5  C   UNK N   1       4.453  -2.300   0.040  0.00  0.00     0.096 A 
HETATM    6  C   UNK N   1       1.246  -0.695   0.151  0.00  0.00     0.014 A 
HETATM    7  C   UNK N   1       1.150  -3.517  -0.128  0.00  0.00     0.030 A 
HETATM    8  C   UNK N   1       0.009  -1.359   0.066  0.00  0.00     0.001 A 
HETATM    9  C   UNK N   1      -0.039  -2.765  -0.071  0.00  0.00     0.002 A 
HETATM   10  H   UNK N   1       3.836  -4.301  -0.171  0.00  0.00     0.165 HD
ENDROOT
BRANCH   2  11
HETATM   11  C   UNK N   1       4.229   0.279   0.329  0.00  0.00     0.071 C 
BRANCH  11  12
HETATM   12  C   UNK N   1       5.667   0.490  -0.136  0.00  0.00     0.277 C 
BRANCH  12  13
HETATM   13  N   UNK N   1       6.094   1.859   0.148  0.00  0.00     0.088 N 
BRANCH  13  14
HETATM   14  C   UNK N   1       5.300   2.774  -0.668  0.00  0.00     0.268 C 
HETATM   15  C   UNK N   1       4.921   3.994   0.152  0.00  0.00     0.037 C 
ENDBRANCH  13  14
BRANCH  13  16
HETATM   16  C   UNK N   1       7.483   1.970  -0.280  0.00  0.00     0.268 C 
HETATM   17  C   UNK N   1       8.123   3.231   0.282  0.00  0.00     0.037 C 
ENDBRANCH  13  16
ENDBRANCH  12  13
ENDBRANCH  11  12
ENDBRANCH   2  11
TORSDOF 5
