REMARK  6 active torsions:
REMARK  status: ('A' for Active; 'I' for Inactive)
REMARK    1  A    between atoms: N_3  and  C_10 
REMARK    2  A    between atoms: N_4  and  C_5 
REMARK    3  A    between atoms: N_4  and  C_13 
REMARK       I    between atoms: N_4  and  C_14 
REMARK    4  A    between atoms: C_10  and  C_11 
REMARK    5  A    between atoms: C_11  and  C_15 
REMARK    6  A    between atoms: C_14  and  C_16 
ROOT
HETATM    1  N   UNK N   1       3.447  -0.933  -0.197  0.00  0.00     0.093 N 
HETATM    2  C   UNK N   1       2.817   1.635  -0.234  0.00  0.00     0.096 C 
HETATM    3  C   UNK N   1       1.719   0.756  -0.836  0.00  0.00     0.056 C 
HETATM    4  C   UNK N   1       3.238   1.166   1.148  0.00  0.00     0.056 C 
HETATM    5  C   UNK N   1       2.027  -0.726  -0.543  0.00  0.00     0.275 C 
HETATM    6  C   UNK N   1       3.800  -0.247   1.061  0.00  0.00     0.275 C 
ENDROOT
BRANCH   2   7
HETATM    7  N   UNK N   1       2.723   3.089  -0.284  0.00  0.00    -0.313 N 
HETATM    8  C   UNK N   1       1.498   3.736  -0.296  0.00  0.00     0.224 C 
HETATM    9  O   UNK N   1       0.462   3.080  -0.283  0.00  0.00    -0.273 OA
BRANCH   7  10
HETATM   10  C   UNK N   1       3.992   3.782  -0.208  0.00  0.00     0.037 A 
HETATM   11  C   UNK N   1       4.105   5.115   0.219  0.00  0.00     0.030 A 
HETATM   12  C   UNK N   1       5.360   5.712   0.373  0.00  0.00     0.002 A 
HETATM   13  C   UNK N   1       6.522   4.987   0.100  0.00  0.00     0.000 A 
HETATM   14  C   UNK N   1       6.433   3.666  -0.331  0.00  0.00     0.002 A 
HETATM   15  C   UNK N   1       5.182   3.067  -0.473  0.00  0.00     0.030 A 
ENDBRANCH   7  10
BRANCH   8  16
HETATM   16  C   UNK N   1       1.387   5.242  -0.333  0.00  0.00     0.099 C 
HETATM   17  C   UNK N   1      -0.046   5.752  -0.284  0.00  0.00     0.014 C 
ENDBRANCH   8  16
ENDBRANCH   2   7
BRANCH   1  18
HETATM   18  C   UNK N   1       3.712  -2.367  -0.068  0.00  0.00     0.223 C 
HETATM   19  C   UNK N   1       5.205  -2.655  -0.008  0.00  0.00     0.043 C 
BRANCH  18  20
HETATM   20  C   UNK N   1       2.988  -2.988   1.125  0.00  0.00     0.081 C 
BRANCH  20  21
HETATM   21  C   UNK N   1       2.348  -4.242   0.676  0.00  0.00    -0.016 A 
HETATM   22  S   UNK N   1       0.771  -4.401   0.227  0.00  0.00    -0.106 SA
HETATM   23  C   UNK N   1       0.775  -5.988  -0.252  0.00  0.00     0.050 A 
HETATM   24  C   UNK N   1       2.088  -6.445  -0.061  0.00  0.00     0.008 A 
HETATM   25  C   UNK N   1       2.977  -5.460   0.453  0.00  0.00     0.015 A 
ENDBRANCH  20  21
ENDBRANCH  18  20
ENDBRANCH   1  18
TORSDOF 6
