REMARK  0 active torsions:
REMARK  status: ('A' for Active; 'I' for Inactive)
ROOT
HETATM    1  O   UNK N   1       8.265   2.198  -1.334  0.00  0.00    -0.389 OA
HETATM    2  O   UNK N   1      -0.180  -3.338  -0.181  0.00  0.00    -0.293 OA
HETATM    3  C   UNK N   1       6.899   0.038  -0.113  0.00  0.00     0.001 C 
HETATM    4  C   UNK N   1       6.733   1.473   0.391  0.00  0.00    -0.009 C 
HETATM    5  C   UNK N   1       5.672  -0.846   0.230  0.00  0.00    -0.001 C 
HETATM    6  C   UNK N   1       4.394  -0.178  -0.373  0.00  0.00     0.003 C 
HETATM    7  C   UNK N   1       8.112   2.057   0.050  0.00  0.00     0.062 C 
HETATM    8  C   UNK N   1       3.117  -0.946   0.064  0.00  0.00    -0.016 C 
HETATM    9  C   UNK N   1       5.539   2.122  -0.307  0.00  0.00     0.013 C 
HETATM   10  C   UNK N   1       4.271   1.319   0.012  0.00  0.00     0.007 C 
HETATM   11  C   UNK N   1       8.257  -0.356   0.469  0.00  0.00     0.009 C 
HETATM   12  C   UNK N   1       5.784  -2.269  -0.371  0.00  0.00    -0.010 C 
HETATM   13  C   UNK N   1       9.063   0.958   0.533  0.00  0.00     0.038 C 
HETATM   14  C   UNK N   1       4.561  -3.133  -0.066  0.00  0.00     0.039 C 
HETATM   15  C   UNK N   1       3.246  -2.429  -0.255  0.00  0.00    -0.067 C 
HETATM   16  C   UNK N   1       6.504   1.521   1.919  0.00  0.00     0.018 C 
HETATM   17  C   UNK N   1       1.892  -0.374  -0.674  0.00  0.00     0.022 C 
HETATM   18  C   UNK N   1       8.402   3.398   0.707  0.00  0.00     0.046 C 
HETATM   19  C   UNK N   1       2.902  -0.798   1.574  0.00  0.00     0.020 C 
HETATM   20  C   UNK N   1       7.005  -3.028   0.119  0.00  0.00     0.010 C 
HETATM   21  C   UNK N   1       0.593  -1.118  -0.341  0.00  0.00     0.084 C 
HETATM   22  C   UNK N   1       2.146  -3.197  -0.315  0.00  0.00     0.053 C 
HETATM   23  C   UNK N   1       0.791  -2.607  -0.287  0.00  0.00     0.149 C 
HETATM   24  H   UNK N   1       8.402   2.155  -2.293  0.00  0.00     0.210 HD
ENDROOT
TORSDOF 0
