REMARK  2 active torsions:
REMARK  status: ('A' for Active; 'I' for Inactive)
REMARK    1  A    between atoms: C_6  and  C_7 
REMARK    2  A    between atoms: C_6  and  C_8 
ROOT
HETATM    1  O   UNK N   1       0.971   0.465  -0.779  0.00  0.00    -0.272 OA
HETATM    2  O   UNK N   1       5.377   0.725   0.870  0.00  0.00    -0.272 OA
HETATM    3  O   UNK N   1       3.466  -3.155  -0.143  0.00  0.00    -0.247 OA
HETATM    4  N   UNK N   1       2.218  -1.343  -0.461  0.00  0.00    -0.278 N 
HETATM    5  N   UNK N   1       4.423  -1.212   0.360  0.00  0.00    -0.278 N 
HETATM    6  C   UNK N   1       3.144   0.933   0.070  0.00  0.00     0.121 A 
HETATM    7  C   UNK N   1       2.042   0.000  -0.418  0.00  0.00     0.243 A 
HETATM    8  C   UNK N   1       4.387   0.139   0.458  0.00  0.00     0.243 A 
HETATM    9  C   UNK N   1       3.372  -1.941  -0.083  0.00  0.00     0.329 A 
HETATM   10  H   UNK N   1       1.476  -1.907  -0.779  0.00  0.00     0.173 HD
HETATM   11  H   UNK N   1       5.247  -1.683   0.621  0.00  0.00     0.173 HD
ENDROOT
BRANCH   6  12
HETATM   12  C   UNK N   1       2.652   1.699   1.316  0.00  0.00     0.024 C 
HETATM   13  C   UNK N   1       1.503   2.661   1.033  0.00  0.00     0.007 C 
ENDBRANCH   6  12
BRANCH   6  14
HETATM   14  C   UNK N   1       3.495   1.908  -1.073  0.00  0.00     0.024 C 
HETATM   15  C   UNK N   1       4.466   3.012  -0.663  0.00  0.00     0.007 C 
ENDBRANCH   6  14
TORSDOF 2
