REMARK  10 active torsions:
REMARK  status: ('A' for Active; 'I' for Inactive)
REMARK    1  A    between atoms: O_1  and  C_15 
REMARK    2  A    between atoms: O_3  and  C_20 
REMARK    3  A    between atoms: N_4  and  C_8 
REMARK       I    between atoms: N_4  and  C_14 
REMARK    4  A    between atoms: C_5  and  C_6 
REMARK    5  A    between atoms: C_5  and  C_7 
REMARK    6  A    between atoms: C_5  and  C_8 
REMARK    7  A    between atoms: C_5  and  C_9 
REMARK    8  A    between atoms: C_14  and  C_17 
REMARK    9  A    between atoms: C_17  and  C_19 
REMARK   10  A    between atoms: C_19  and  C_20 
ROOT
HETATM    1  C   UNK N   1       2.913  -0.678  -0.389  0.00  0.00     0.002 C 
ENDROOT
BRANCH   1   2
HETATM    2  C   UNK N   1       3.893  -0.547  -1.582  0.00  0.00     0.012 C 
HETATM    3  C   UNK N   1       5.312  -1.023  -1.303  0.00  0.00     0.006 C 
ENDBRANCH   1   2
BRANCH   1   4
HETATM    4  C   UNK N   1       1.605   0.045  -0.771  0.00  0.00     0.012 C 
HETATM    5  C   UNK N   1       0.974  -0.435  -2.073  0.00  0.00     0.006 C 
ENDBRANCH   1   4
BRANCH   1   6
HETATM    6  C   UNK N   1       3.462   0.036   0.867  0.00  0.00     0.137 C 
BRANCH   6   7
HETATM    7  N   UNK N   1       4.221   1.230   0.546  0.00  0.00    -0.360 N 
HETATM    8  C   UNK N   1       3.667   2.440   0.289  0.00  0.00     0.217 C 
HETATM    9  O   UNK N   1       2.457   2.601   0.350  0.00  0.00    -0.274 OA
HETATM   10  H   UNK N   1       5.202   1.157   0.512  0.00  0.00     0.162 HD
BRANCH   8  11
HETATM   11  C   UNK N   1       4.546   3.589  -0.090  0.00  0.00     0.105 C 
BRANCH  11  12
HETATM   12  C   UNK N   1       5.532   3.887   1.027  0.00  0.00     0.035 C 
BRANCH  12  13
HETATM   13  C   UNK N   1       6.956   3.712   0.534  0.00  0.00     0.164 C 
BRANCH  13  14
HETATM   14  O   UNK N   1       7.447   4.931   0.066  0.00  0.00    -0.401 OA
HETATM   15  H   UNK N   1       8.352   5.059  -0.259  0.00  0.00     0.209 HD
ENDBRANCH  13  14
ENDBRANCH  12  13
ENDBRANCH  11  12
ENDBRANCH   8  11
ENDBRANCH   6   7
ENDBRANCH   1   6
BRANCH   1  16
HETATM   16  C   UNK N   1       2.687  -2.156  -0.055  0.00  0.00    -0.045 A 
HETATM   17  C   UNK N   1       1.424  -2.764  -0.198  0.00  0.00     0.044 A 
HETATM   18  C   UNK N   1       1.244  -4.126   0.067  0.00  0.00     0.068 A 
HETATM   19  C   UNK N   1       2.337  -4.895   0.498  0.00  0.00     0.037 A 
HETATM   20  C   UNK N   1       3.590  -4.304   0.662  0.00  0.00     0.003 A 
HETATM   21  C   UNK N   1       3.764  -2.948   0.383  0.00  0.00     0.008 A 
BRANCH  18  22
HETATM   22  O   UNK N   1       0.019  -4.674  -0.113  0.00  0.00    -0.356 OA
HETATM   23  C   UNK N   1      -0.243  -6.012   0.074  0.00  0.00     0.210 C 
ENDBRANCH  18  22
ENDBRANCH   1  16
TORSDOF 10
