REMARK  6 active torsions:
REMARK  status: ('A' for Active; 'I' for Inactive)
REMARK    1  A    between atoms: O_3  and  C_16 
REMARK    2  A    between atoms: C_9  and  C_11 
REMARK    3  A    between atoms: C_11  and  C_12 
REMARK    4  A    between atoms: C_12  and  C_14 
REMARK    5  A    between atoms: C_14  and  C_15 
REMARK    6  A    between atoms: C_15  and  C_16 
ROOT
HETATM    1  S   UNK N   1       5.704  -2.644  -0.308  0.00  0.00    -0.160 SA
HETATM    2  O   UNK N   1      -0.057  -2.103   0.162  0.00  0.00    -0.247 OA
HETATM    3  N   UNK N   1       2.016  -1.230   0.354  0.00  0.00    -0.335 N 
HETATM    4  N   UNK N   1       1.761  -3.374  -0.271  0.00  0.00    -0.336 N 
HETATM    5  C   UNK N   1       3.295  -1.689  -0.112  0.00  0.00     0.123 C 
HETATM    6  C   UNK N   1       3.163  -3.189   0.000  0.00  0.00     0.119 C 
HETATM    7  C   UNK N   1       4.617  -1.383   0.527  0.00  0.00     0.072 C 
HETATM    8  C   UNK N   1       4.272  -3.683  -0.883  0.00  0.00     0.101 C 
HETATM    9  C   UNK N   1       1.155  -2.227   0.087  0.00  0.00     0.316 C 
HETATM   10  H   UNK N   1       1.813  -0.366   0.780  0.00  0.00     0.164 HD
HETATM   11  H   UNK N   1       1.332  -4.178  -0.644  0.00  0.00     0.164 HD
ENDROOT
BRANCH   7  12
HETATM   12  C   UNK N   1       4.986   0.048   0.163  0.00  0.00     0.017 C 
BRANCH  12  13
HETATM   13  C   UNK N   1       6.433   0.381   0.452  0.00  0.00     0.002 C 
BRANCH  13  14
HETATM   14  C   UNK N   1       6.651   1.819   0.041  0.00  0.00     0.010 C 
BRANCH  14  15
HETATM   15  C   UNK N   1       8.130   2.159   0.039  0.00  0.00     0.110 C 
BRANCH  15  16
HETATM   16  C   UNK N   1       8.365   3.641  -0.022  0.00  0.00     0.139 C 
HETATM   17  O   UNK N   1       7.430   4.428  -0.015  0.00  0.00    -0.650 OA
BRANCH  16  18
HETATM   18  O   UNK N   1       9.625   4.108  -0.068  0.00  0.00    -0.776 OA
HETATM   19  H   UNK N   1      10.346   3.511  -0.101  0.00  0.00     0.167 HD
ENDBRANCH  16  18
ENDBRANCH  15  16
ENDBRANCH  14  15
ENDBRANCH  13  14
ENDBRANCH  12  13
ENDBRANCH   7  12
TORSDOF 6
