REMARK  17 active torsions:
REMARK  status: ('A' for Active; 'I' for Inactive)
REMARK    1  A    between atoms: P_1  and  O_9 
REMARK    2  A    between atoms: P_1  and  O_11 
REMARK    3  A    between atoms: P_1  and  O_12 
REMARK    4  A    between atoms: P_2  and  O_10 
REMARK    5  A    between atoms: P_2  and  O_11 
REMARK    6  A    between atoms: P_2  and  O_13 
REMARK    7  A    between atoms: C_27  and  O_5 
REMARK    8  A    between atoms: C_31  and  O_7 
REMARK    9  A    between atoms: C_32  and  O_8 
REMARK   10  A    between atoms: O_9  and  C_35 
REMARK   11  A    between atoms: O_10  and  C_36 
REMARK   12  A    between atoms: C_30  and  N_17 
REMARK   13  A    between atoms: C_34  and  N_18 
REMARK   14  A    between atoms: N_25  and  C_45 
REMARK       I    between atoms: N_26  and  C_46 
REMARK   15  A    between atoms: C_29  and  C_35 
REMARK   16  A    between atoms: C_33  and  C_36 
REMARK   17  A    between atoms: C_42  and  C_46 
ROOT
HETATM    1  O   UNK N   1       4.693   0.375   0.979  0.00  0.00    -0.353 OA
HETATM    2  O   UNK N   1       2.222   1.052  -0.368  0.00  0.00    -0.388 OA
HETATM    3  C   UNK N   1       3.191   2.115   1.512  0.00  0.00     0.182 C 
HETATM    4  C   UNK N   1       2.386   0.953   1.020  0.00  0.00     0.198 C 
HETATM    5  C   UNK N   1       4.606   1.786   1.033  0.00  0.00     0.180 C 
HETATM    6  C   UNK N   1       3.418  -0.110   1.353  0.00  0.00     0.262 C 
HETATM    7  H   UNK N   1       2.224   1.185  -1.329  0.00  0.00     0.210 HD
ENDROOT
BRANCH   3   8
HETATM    8  O   UNK N   1       2.707   3.349   1.067  0.00  0.00    -0.390 OA
HETATM    9  H   UNK N   1       3.281   4.067   0.758  0.00  0.00     0.210 HD
ENDBRANCH   3   8
BRANCH   6  10
HETATM   10  N   UNK N   1       3.161  -1.453   0.811  0.00  0.00    -0.297 N 
HETATM   11  C   UNK N   1       2.078  -1.967   0.198  0.00  0.00     0.142 A 
HETATM   12  N   UNK N   1       0.906  -1.357  -0.099  0.00  0.00    -0.336 N 
HETATM   13  C   UNK N   1       2.303  -3.268  -0.081  0.00  0.00     0.122 A 
HETATM   14  C   UNK N   1      -0.070  -2.095  -0.715  0.00  0.00     0.183 A 
ATOM     15  HN  UNK N   1       0.754  -0.375   0.130  1.00  0.00     0.168 HD
HETATM   16  N   UNK N   1       0.142  -3.420  -1.013  0.00  0.00    -0.337 N 
HETATM   17  C   UNK N   1       1.324  -4.028  -0.703  0.00  0.00     0.131 A 
ATOM     18  HN  UNK N   1      -0.594  -3.956  -1.472  1.00  0.00     0.168 HD
HETATM   19  N   UNK N   1       3.527  -3.624   0.341  0.00  0.00    -0.346 N 
HETATM   20  C   UNK N   1       4.036  -2.489   0.897  0.00  0.00     0.188 A 
ATOM     21  HN  UNK N   1       3.975  -4.537   0.264  1.00  0.00     0.167 HD
BRANCH  17  22
HETATM   22  N   UNK N   1       1.532  -5.391  -0.998  0.00  0.00    -0.383 N 
HETATM   23  H   UNK N   1       0.781  -5.992  -1.204  0.00  0.00     0.157 HD
HETATM   24  H   UNK N   1       2.449  -5.749  -0.998  0.00  0.00     0.157 HD
ENDBRANCH  17  22
ENDBRANCH   6  10
BRANCH   5  25
HETATM   25  C   UNK N   1       4.900   2.356  -0.357  0.00  0.00     0.215 C 
BRANCH  25  26
HETATM   26  O   UNK N   1       6.205   2.043  -0.766  0.00  0.00    -0.294 OA
BRANCH  26  27
HETATM   27  P   UNK N   1       6.955   3.544  -1.271  0.00  0.00     0.401 P 
HETATM   28  O   UNK N   1       5.838   4.460  -1.844  0.00  0.00    -0.631 OA
BRANCH  27  29
HETATM   29  O   UNK N   1       7.643   4.393   0.096  0.00  0.00    -0.195 OA
BRANCH  29  30
HETATM   30  P   UNK N   1       9.403   4.365   0.077  0.00  0.00     0.401 P 
HETATM   31  O   UNK N   1       9.799   4.244   1.573  0.00  0.00    -0.631 OA
BRANCH  30  32
HETATM   32  O   UNK N   1      10.273   3.073  -0.733  0.00  0.00    -0.294 OA
BRANCH  32  33
HETATM   33  C   UNK N   1       9.515   1.912  -0.548  0.00  0.00     0.215 C 
BRANCH  33  34
HETATM   34  C   UNK N   1      10.220   0.835   0.269  0.00  0.00     0.180 C 
HETATM   35  O   UNK N   1      11.077   1.365   1.252  0.00  0.00    -0.353 OA
HETATM   36  C   UNK N   1      12.260   0.585   1.213  0.00  0.00     0.259 C 
HETATM   37  C   UNK N   1      11.974  -0.680   0.414  0.00  0.00     0.198 C 
HETATM   38  C   UNK N   1      10.997  -0.135  -0.583  0.00  0.00     0.182 C 
BRANCH  36  39
HETATM   39  N   UNK N   1      13.363   1.365   0.674  0.00  0.00    -0.337 N 
HETATM   40  C   UNK N   1      14.502   0.699   0.129  0.00  0.00     0.106 A 
HETATM   41  C   UNK N   1      15.645   1.356  -0.139  0.00  0.00     0.028 A 
HETATM   42  C   UNK N   1      15.774   2.835   0.149  0.00  0.00     0.074 A 
HETATM   43  C   UNK N   1      14.549   3.459   0.759  0.00  0.00    -0.005 A 
HETATM   44  C   UNK N   1      13.444   2.749   1.005  0.00  0.00     0.089 A 
BRANCH  41  45
HETATM   45  C   UNK N   1      16.803   0.626  -0.705  0.00  0.00     0.246 C 
HETATM   46  O   UNK N   1      16.716  -0.564  -0.969  0.00  0.00    -0.268 OA
HETATM   47  N   UNK N   1      17.966   1.271  -0.929  0.00  0.00    -0.366 N 
HETATM   48  H   UNK N   1      18.799   0.771  -1.092  0.00  0.00     0.159 HD
HETATM   49  H   UNK N   1      17.984   2.255  -0.929  0.00  0.00     0.159 HD
ENDBRANCH  41  45
ENDBRANCH  36  39
BRANCH  37  50
HETATM   50  O   UNK N   1      11.350  -1.604   1.259  0.00  0.00    -0.388 OA
HETATM   51  H   UNK N   1      10.579  -1.550   1.845  0.00  0.00     0.210 HD
ENDBRANCH  37  50
BRANCH  38  52
HETATM   52  O   UNK N   1      10.162  -1.136  -1.091  0.00  0.00    -0.390 OA
HETATM   53  H   UNK N   1       9.272  -0.982  -1.443  0.00  0.00     0.210 HD
ENDBRANCH  38  52
ENDBRANCH  33  34
ENDBRANCH  32  33
ENDBRANCH  30  32
BRANCH  30  54
HETATM   54  O   UNK N   1      10.024   5.923  -0.375  0.00  0.00    -0.307 OA
HETATM   55  H   UNK N   1      10.950   6.058  -0.627  0.00  0.00     0.222 HD
ENDBRANCH  30  54
ENDBRANCH  29  30
ENDBRANCH  27  29
BRANCH  27  56
HETATM   56  O   UNK N   1       8.051   3.298  -2.598  0.00  0.00    -0.307 OA
HETATM   57  H   UNK N   1       8.237   2.700  -3.338  0.00  0.00     0.222 HD
ENDBRANCH  27  56
ENDBRANCH  26  27
ENDBRANCH  25  26
ENDBRANCH   5  25
TORSDOF 17
