REMARK  5 active torsions:
REMARK  status: ('A' for Active; 'I' for Inactive)
REMARK    1  A    between atoms: O_1  and  C_8 
REMARK    2  A    between atoms: C_6  and  N_4 
REMARK       I    between atoms: N_5  and  C_9 
REMARK    3  A    between atoms: C_6  and  C_7 
REMARK    4  A    between atoms: C_6  and  C_8 
REMARK    5  A    between atoms: C_7  and  C_9 
ROOT
HETATM    1  C   UNK N   1       4.586  -0.191  -0.000  0.00  0.00     0.182 C 
ENDROOT
BRANCH   1   2
HETATM    2  N   UNK N   1       4.528  -1.646   0.000  0.00  0.00    -0.417 N 
HETATM    3  H   UNK N   1       3.624  -2.119   0.000  0.00  0.00     0.150 HD
HETATM    4  H   UNK N   1       5.389  -2.191   0.000  0.00  0.00     0.150 HD
ENDBRANCH   1   2
BRANCH   1   5
HETATM    5  C   UNK N   1       3.314   0.668   0.000  0.00  0.00     0.138 C 
BRANCH   5   6
HETATM    6  C   UNK N   1       1.973  -0.011  -0.000  0.00  0.00     0.217 C 
HETATM    7  O   UNK N   1       1.869  -1.225  -0.000  0.00  0.00    -0.274 OA
HETATM    8  N   UNK N   1       0.862   0.751   0.000  0.00  0.00    -0.370 N 
HETATM    9  H   UNK N   1       0.938   1.733   0.000  0.00  0.00     0.159 HD
HETATM   10  H   UNK N   1      -0.026   0.326   0.000  0.00  0.00     0.159 HD
ENDBRANCH   5   6
ENDBRANCH   1   5
BRANCH   1  11
HETATM   11  C   UNK N   1       5.933   0.464   0.000  0.00  0.00     0.163 C 
HETATM   12  O   UNK N   1       6.018   1.680   0.000  0.00  0.00    -0.648 OA
BRANCH  11  13
HETATM   13  O   UNK N   1       7.054  -0.283   0.000  0.00  0.00    -0.775 OA
HETATM   14  H   UNK N   1       6.994  -1.218   0.000  0.00  0.00     0.167 HD
ENDBRANCH  11  13
ENDBRANCH   1  11
TORSDOF 5
