REMARK  11 active torsions:
REMARK  status: ('A' for Active; 'I' for Inactive)
REMARK    1  A    between atoms: C_1  and  C_2 
REMARK    2  A    between atoms: O_7  and  C_1 
REMARK    3  A    between atoms: C_2  and  N_4 
REMARK    4  A    between atoms: C_2  and  C_6 
REMARK    5  A    between atoms: S_5  and  C_6 
REMARK    6  A    between atoms: S_5  and  S_12 
REMARK    7  A    between atoms: C_8  and  C_9 
REMARK    8  A    between atoms: O_14  and  C_8 
REMARK    9  A    between atoms: C_9  and  N_11 
REMARK   10  A    between atoms: C_9  and  C_13 
REMARK   11  A    between atoms: S_12  and  C_13 
ROOT
HETATM    1  S   UNK N   1       0.799   0.675   0.232  0.00  0.00    -0.095 SA
ENDROOT
BRANCH   1   2
HETATM    2  C   UNK N   1       1.921  -0.515  -0.559  0.00  0.00     0.121 C 
BRANCH   2   3
HETATM    3  C   UNK N   1       3.156  -0.686   0.310  0.00  0.00     0.183 C 
BRANCH   3   4
HETATM    4  C   UNK N   1       4.126   0.440   0.074  0.00  0.00     0.163 C 
HETATM    5  O   UNK N   1       3.775   1.598   0.269  0.00  0.00    -0.648 OA
BRANCH   4   6
HETATM    6  O   UNK N   1       5.380   0.193  -0.343  0.00  0.00    -0.775 OA
HETATM    7  H   UNK N   1       5.668  -0.650  -0.634  0.00  0.00     0.167 HD
ENDBRANCH   4   6
ENDBRANCH   3   4
BRANCH   3   8
HETATM    8  N   UNK N   1       3.782  -1.967   0.017  0.00  0.00    -0.417 N 
HETATM    9  H   UNK N   1       3.224  -2.796  -0.188  0.00  0.00     0.150 HD
HETATM   10  H   UNK N   1       4.800  -2.037   0.017  0.00  0.00     0.150 HD
ENDBRANCH   3   8
ENDBRANCH   2   3
ENDBRANCH   1   2
BRANCH   1  11
HETATM   11  S   UNK N   1      -0.785  -0.733   0.232  0.00  0.00    -0.095 SA
BRANCH  11  12
HETATM   12  C   UNK N   1      -1.907   0.458  -0.559  0.00  0.00     0.121 C 
BRANCH  12  13
HETATM   13  C   UNK N   1      -3.142   0.629   0.310  0.00  0.00     0.183 C 
BRANCH  13  14
HETATM   14  C   UNK N   1      -4.112  -0.498   0.074  0.00  0.00     0.163 C 
HETATM   15  O   UNK N   1      -3.761  -1.655   0.269  0.00  0.00    -0.648 OA
BRANCH  14  16
HETATM   16  O   UNK N   1      -5.366  -0.251  -0.343  0.00  0.00    -0.775 OA
HETATM   17  H   UNK N   1      -5.654   0.592  -0.634  0.00  0.00     0.167 HD
ENDBRANCH  14  16
ENDBRANCH  13  14
BRANCH  13  18
HETATM   18  N   UNK N   1      -3.768   1.909   0.017  0.00  0.00    -0.417 N 
HETATM   19  H   UNK N   1      -3.210   2.738  -0.188  0.00  0.00     0.150 HD
HETATM   20  H   UNK N   1      -4.786   1.979   0.017  0.00  0.00     0.150 HD
ENDBRANCH  13  18
ENDBRANCH  12  13
ENDBRANCH  11  12
ENDBRANCH   1  11
TORSDOF 11
