REMARK  6 active torsions:
REMARK  status: ('A' for Active; 'I' for Inactive)
REMARK       I    between atoms: N_1  and  C_2 
REMARK    1  A    between atoms: C_7  and  C_2 
REMARK    2  A    between atoms: O_4  and  C_3 
REMARK    3  A    between atoms: C_5  and  C_3 
REMARK    4  A    between atoms: C_5  and  N_9 
REMARK    5  A    between atoms: C_6  and  C_5 
REMARK    6  A    between atoms: C_7  and  C_6 
ROOT
HETATM    1  C   UNK N   1       1.151  -0.093   0.362  0.00  0.00     0.173 C 
ENDROOT
BRANCH   1   2
HETATM    2  C   UNK N   1       2.290   0.852   0.100  0.00  0.00     0.163 C 
HETATM    3  O   UNK N   1       2.143   2.047   0.288  0.00  0.00    -0.648 OA
BRANCH   2   4
HETATM    4  O   UNK N   1       3.485   0.387  -0.322  0.00  0.00    -0.775 OA
HETATM    5  H   UNK N   1       3.620  -0.493  -0.615  0.00  0.00     0.167 HD
ENDBRANCH   2   4
ENDBRANCH   1   2
BRANCH   1   6
HETATM    6  N   UNK N   1       1.531  -1.462   0.047  0.00  0.00    -0.418 N 
HETATM    7  H   UNK N   1       0.833  -2.172  -0.175  0.00  0.00     0.150 HD
HETATM    8  H   UNK N   1       2.518  -1.717   0.047  0.00  0.00     0.150 HD
ENDBRANCH   1   6
BRANCH   1   9
HETATM    9  C   UNK N   1      -0.063   0.316  -0.457  0.00  0.00     0.044 C 
BRANCH   9  10
HETATM   10  C   UNK N   1      -1.307  -0.443  -0.012  0.00  0.00     0.105 C 
BRANCH  10  11
HETATM   11  C   UNK N   1      -2.534   0.425  -0.012  0.00  0.00     0.215 C 
HETATM   12  N   UNK N   1      -3.742  -0.138   0.182  0.00  0.00    -0.370 N 
HETATM   13  H   UNK N   1      -4.540   0.421   0.323  0.00  0.00     0.159 HD
HETATM   14  H   UNK N   1      -3.829  -1.119   0.182  0.00  0.00     0.159 HD
HETATM   15  O   UNK N   1      -2.450   1.632  -0.177  0.00  0.00    -0.274 OA
ENDBRANCH  10  11
ENDBRANCH   9  10
ENDBRANCH   1   9
TORSDOF 6
