REMARK  6 active torsions:
REMARK  status: ('A' for Active; 'I' for Inactive)
REMARK    1  A    between atoms: C_7  and  O_2 
REMARK    2  A    between atoms: C_6  and  O_3 
REMARK    3  A    between atoms: O_8  and  C_9 
REMARK    4  A    between atoms: C_9  and  C_10 
REMARK    5  A    between atoms: C_12  and  C_10 
REMARK    6  A    between atoms: C_10  and  O_11 
ROOT
HETATM    1  O   UNK N   1       0.501   0.326  -0.484  0.00  0.00    -0.301 OA
HETATM    2  C   UNK N   1       1.511  -0.479  -0.108  0.00  0.00     0.320 A 
HETATM    3  O   UNK N   1       2.681  -0.136  -0.078  0.00  0.00    -0.257 OA
HETATM    4  C   UNK N   1       1.008  -1.771   0.241  0.00  0.00     0.173 A 
HETATM    5  C   UNK N   1      -0.295  -1.727   0.075  0.00  0.00     0.114 A 
HETATM    6  C   UNK N   1      -0.718  -0.349  -0.407  0.00  0.00     0.222 A 
ENDROOT
BRANCH   6   7
HETATM    7  C   UNK N   1      -1.648   0.354   0.590  0.00  0.00     0.177 C 
BRANCH   7   8
HETATM    8  C   UNK N   1      -2.944  -0.415   0.843  0.00  0.00     0.198 C 
BRANCH   8   9
HETATM    9  O   UNK N   1      -3.605  -0.693  -0.355  0.00  0.00    -0.398 OA
HETATM   10  H   UNK N   1      -4.002  -0.392  -1.187  0.00  0.00     0.209 HD
ENDBRANCH   8   9
ENDBRANCH   7   8
BRANCH   7  11
HETATM   11  O   UNK N   1      -1.940   1.645   0.144  0.00  0.00    -0.390 OA
HETATM   12  H   UNK N   1      -1.266   2.269  -0.166  0.00  0.00     0.210 HD
ENDBRANCH   7  11
ENDBRANCH   6   7
BRANCH   5  13
HETATM   13  O   UNK N   1      -1.124  -2.766   0.297  0.00  0.00    -0.359 OA
HETATM   14  H   UNK N   1      -2.038  -2.628   0.451  0.00  0.00     0.217 HD
ENDBRANCH   5  13
BRANCH   4  15
HETATM   15  O   UNK N   1       1.719  -2.836   0.657  0.00  0.00    -0.353 OA
HETATM   16  H   UNK N   1       1.325  -3.635   0.947  0.00  0.00     0.218 HD
ENDBRANCH   4  15
TORSDOF 6
