REMARK  5 active torsions:
REMARK  status: ('A' for Active; 'I' for Inactive)
REMARK    1  A    between atoms: O_1  and  C_10 
REMARK    2  A    between atoms: C_8  and  N_4 
REMARK    3  A    between atoms: C_7  and  C_8 
REMARK    4  A    between atoms: C_7  and  C_9 
REMARK    5  A    between atoms: C_8  and  C_10 
ROOT
HETATM    1  C   UNK N   1       3.735  -0.671  -0.000  0.00  0.00     0.093 C 
ENDROOT
BRANCH   1   2
HETATM    2  C   UNK N   1       4.814   0.417   0.000  0.00  0.00     0.178 C 
BRANCH   2   3
HETATM    3  N   UNK N   1       4.477   1.833  -0.000  0.00  0.00    -0.417 N 
HETATM    4  H   UNK N   1       5.218   2.534  -0.000  0.00  0.00     0.150 HD
HETATM    5  H   UNK N   1       3.499   2.124  -0.000  0.00  0.00     0.150 HD
ENDBRANCH   2   3
BRANCH   2   6
HETATM    6  C   UNK N   1       6.261   0.042   0.000  0.00  0.00     0.163 C 
HETATM    7  O   UNK N   1       6.585  -1.135  -0.000  0.00  0.00    -0.648 OA
BRANCH   6   8
HETATM    8  O   UNK N   1       7.210   0.996  -0.000  0.00  0.00    -0.775 OA
HETATM    9  H   UNK N   1       8.116   0.756  -0.000  0.00  0.00     0.167 HD
ENDBRANCH   6   8
ENDBRANCH   2   6
ENDBRANCH   1   2
BRANCH   1  10
HETATM   10  C   UNK N   1       2.296  -0.252  -0.000  0.00  0.00     0.028 A 
HETATM   11  N   UNK N   1       1.291  -1.141  -0.000  0.00  0.00    -0.354 N 
HETATM   12  C   UNK N   1       0.165  -0.400   0.000  0.00  0.00     0.180 A 
HETATM   13  H   UNK N   1       1.361  -2.123  -0.000  0.00  0.00     0.166 HD
HETATM   14  N   UNK N   1       0.437   0.921   0.000  0.00  0.00    -0.360 N 
HETATM   15  C   UNK N   1       1.778   1.022   0.000  0.00  0.00     0.114 A 
ATOM     16  HN  UNK N   1      -0.237   1.686   0.000  1.00  0.00     0.166 HD
ENDBRANCH   1  10
TORSDOF 5
