REMARK  10 active torsions:
REMARK  status: ('A' for Active; 'I' for Inactive)
REMARK    1  A    between atoms: C_1  and  C_2 
REMARK    2  A    between atoms: C_1  and  O_15 
REMARK    3  A    between atoms: C_2  and  C_3 
REMARK    4  A    between atoms: C_3  and  C_4 
REMARK    5  A    between atoms: C_3  and  N_16 
REMARK       I    between atoms: C_4  and  N_5 
REMARK    6  A    between atoms: N_5  and  C_6 
REMARK    7  A    between atoms: C_6  and  C_7 
REMARK    8  A    between atoms: C_6  and  C_18 
REMARK    9  A    between atoms: C_7  and  C_8 
REMARK   10  A    between atoms: C_18  and  O_20 
ROOT
HETATM    1  C   UNK N   1      -3.090  -1.290  -0.315  0.00  0.00     0.241 C 
HETATM    2  N   UNK N   1      -1.950  -1.195  -1.045  0.00  0.00    -0.345 N 
HETATM    3  O   UNK N   1      -3.205  -0.700   0.750  0.00  0.00    -0.271 OA
HETATM    4  H   UNK N   1      -1.908  -1.694  -1.892  0.00  0.00     0.163 HD
ENDROOT
BRANCH   2   5
HETATM    5  C   UNK N   1      -0.788  -0.412  -0.672  0.00  0.00     0.188 C 
BRANCH   5   6
HETATM    6  C   UNK N   1      -0.086  -0.974   0.563  0.00  0.00     0.074 C 
BRANCH   6   7
HETATM    7  C   UNK N   1       1.370  -0.670   0.447  0.00  0.00    -0.056 A 
HETATM    8  C   UNK N   1       1.872   0.574   0.852  0.00  0.00     0.007 A 
HETATM    9  C   UNK N   1       3.222   0.880   0.663  0.00  0.00     0.001 A 
HETATM   10  C   UNK N   1       4.072  -0.054   0.063  0.00  0.00     0.000 A 
HETATM   11  C   UNK N   1       3.574  -1.296  -0.340  0.00  0.00     0.001 A 
HETATM   12  C   UNK N   1       2.223  -1.602  -0.152  0.00  0.00     0.007 A 
ENDBRANCH   6   7
ENDBRANCH   5   6
BRANCH   5  13
HETATM   13  C   UNK N   1      -1.094   1.061  -0.595  0.00  0.00     0.281 C 
HETATM   14  O   UNK N   1      -1.503   1.637  -1.593  0.00  0.00    -0.263 OA
BRANCH  13  15
HETATM   15  O   UNK N   1      -0.897   1.743   0.562  0.00  0.00    -0.325 OA
HETATM   16  C   UNK N   1      -1.114   3.097   0.665  0.00  0.00     0.213 C 
ENDBRANCH  13  15
ENDBRANCH   5  13
ENDBRANCH   2   5
BRANCH   1  17
HETATM   17  C   UNK N   1      -4.212  -2.134  -0.844  0.00  0.00     0.177 C 
BRANCH  17  18
HETATM   18  C   UNK N   1      -5.468  -1.327  -1.191  0.00  0.00     0.144 C 
BRANCH  18  19
HETATM   19  C   UNK N   1      -6.191  -0.771  -0.001  0.00  0.00     0.141 C 
HETATM   20  O   UNK N   1      -6.713  -1.521   0.808  0.00  0.00    -0.650 OA
BRANCH  19  21
HETATM   21  O   UNK N   1      -6.300   0.561   0.153  0.00  0.00    -0.776 OA
HETATM   22  H   UNK N   1      -5.535   1.091   0.261  0.00  0.00     0.167 HD
ENDBRANCH  19  21
ENDBRANCH  18  19
ENDBRANCH  17  18
BRANCH  17  23
HETATM   23  N   UNK N   1      -4.512  -3.232   0.060  0.00  0.00    -0.418 N 
HETATM   24  H   UNK N   1      -5.284  -3.435   0.695  0.00  0.00     0.150 HD
HETATM   25  H   UNK N   1      -3.794  -3.957   0.060  0.00  0.00     0.150 HD
ENDBRANCH  17  23
ENDBRANCH   1  17
TORSDOF 10
