REMARK  5 active torsions:
REMARK  status: ('A' for Active; 'I' for Inactive)
REMARK    1  A    between atoms: O_1  and  C_4 
REMARK    2  A    between atoms: C_3  and  C_6 
REMARK    3  A    between atoms: C_8  and  C_3 
REMARK    4  A    between atoms: C_6  and  C_4 
REMARK    5  A    between atoms: C_6  and  N_7 
ROOT
HETATM    1  C   UNK N   1       0.601  -0.303  -0.402  0.00  0.00     0.173 C 
ENDROOT
BRANCH   1   2
HETATM    2  C   UNK N   1       1.841   0.467  -0.045  0.00  0.00     0.163 C 
HETATM    3  O   UNK N   1       1.869   1.678  -0.195  0.00  0.00    -0.648 OA
BRANCH   2   4
HETATM    4  O   UNK N   1       2.940  -0.172   0.406  0.00  0.00    -0.775 OA
HETATM    5  H   UNK N   1       2.937  -1.055   0.719  0.00  0.00     0.167 HD
ENDBRANCH   2   4
ENDBRANCH   1   2
BRANCH   1   6
HETATM    6  C   UNK N   1      -0.615   0.235   0.349  0.00  0.00     0.039 C 
BRANCH   6   7
HETATM    7  C   UNK N   1      -1.915  -0.250  -0.282  0.00  0.00    -0.020 C 
HETATM    8  C   UNK N   1      -3.056   0.645   0.152  0.00  0.00     0.009 C 
HETATM    9  C   UNK N   1      -2.223  -1.676   0.136  0.00  0.00     0.009 C 
ENDBRANCH   6   7
ENDBRANCH   1   6
BRANCH   1  10
HETATM   10  N   UNK N   1       0.782  -1.719  -0.119  0.00  0.00    -0.418 N 
HETATM   11  H   UNK N   1      -0.014  -2.325   0.078  0.00  0.00     0.150 HD
HETATM   12  H   UNK N   1       1.723  -2.113  -0.119  0.00  0.00     0.150 HD
ENDBRANCH   1  10
TORSDOF 5
