REMARK  7 active torsions:
REMARK  status: ('A' for Active; 'I' for Inactive)
REMARK    1  A    between atoms: P_1  and  O_2 
REMARK    2  A    between atoms: P_1  and  O_4 
REMARK    3  A    between atoms: P_1  and  O_5 
REMARK    4  A    between atoms: O_2  and  C_12 
REMARK    5  A    between atoms: O_3  and  C_13 
REMARK    6  A    between atoms: C_10  and  C_12 
REMARK    7  A    between atoms: C_11  and  C_17 
ROOT
HETATM    1  N   UNK N   1       3.304  -2.428   0.259  0.00  0.00    -0.367 N 
ATOM      2  HN  UNK N   1       3.486  -3.426   0.366  1.00  0.00     0.165 HD
HETATM    3  C   UNK N   1       4.148  -0.195   0.006  0.00  0.00    -0.003 A 
HETATM    4  C   UNK N   1       2.807   0.308   0.005  0.00  0.00     0.046 A 
HETATM    5  C   UNK N   1       1.733  -0.629   0.110  0.00  0.00     0.101 A 
HETATM    6  C   UNK N   1       2.021  -1.997   0.238  0.00  0.00     0.039 A 
HETATM    7  C   UNK N   1       4.352  -1.580   0.143  0.00  0.00     0.098 A 
HETATM    8  C   UNK N   1       0.912  -3.001   0.348  0.00  0.00     0.071 C 
ENDROOT
BRANCH   3   9
HETATM    9  C   UNK N   1       5.359   0.710  -0.159  0.00  0.00     0.221 C 
BRANCH   9  10
HETATM   10  O   UNK N   1       6.497   0.002  -0.613  0.00  0.00    -0.292 OA
BRANCH  10  11
HETATM   11  P   UNK N   1       7.832   0.094   0.520  0.00  0.00     0.391 P 
HETATM   12  O   UNK N   1       7.960   1.509  -0.110  0.00  0.00    -0.632 OA
BRANCH  11  13
HETATM   13  O   UNK N   1       8.108  -1.084  -0.735  0.00  0.00    -0.307 OA
HETATM   14  H   UNK N   1       8.035  -1.971  -0.295  0.00  0.00     0.222 HD
ENDBRANCH  11  13
BRANCH  11  15
HETATM   15  O   UNK N   1       9.486   0.115  -0.023  0.00  0.00    -0.307 OA
HETATM   16  H   UNK N   1      10.007  -0.346   0.683  0.00  0.00     0.222 HD
ENDBRANCH  11  15
ENDBRANCH  10  11
ENDBRANCH   9  10
ENDBRANCH   3   9
BRANCH   4  17
HETATM   17  C   UNK N   1       2.506   1.777  -0.126  0.00  0.00     0.273 C 
HETATM   18  O   UNK N   1       3.384   2.622  -0.095  0.00  0.00    -0.301 OA
ENDBRANCH   4  17
BRANCH   5  19
HETATM   19  O   UNK N   1       0.430  -0.258   0.095  0.00  0.00    -0.358 OA
HETATM   20  H   UNK N   1       0.102   0.643   0.011  0.00  0.00     0.217 HD
ENDBRANCH   5  19
TORSDOF 7
