REMARK  18 active torsions:
REMARK  status: ('A' for Active; 'I' for Inactive)
REMARK    1  A    between atoms: P_1  and  O_3 
REMARK    2  A    between atoms: P_1  and  O_5 
REMARK    3  A    between atoms: P_1  and  O_6 
REMARK    4  A    between atoms: C_13  and  O_2 
REMARK    5  A    between atoms: O_2  and  C_17 
REMARK    6  A    between atoms: O_3  and  C_14 
REMARK    7  A    between atoms: O_4  and  C_15 
REMARK    8  A    between atoms: O_4  and  C_22 
REMARK    9  A    between atoms: O_5  and  C_19 
REMARK   10  A    between atoms: O_10  and  C_24 
REMARK   11  A    between atoms: C_20  and  N_12 
REMARK   12  A    between atoms: C_13  and  C_14 
REMARK   13  A    between atoms: C_13  and  C_15 
REMARK   14  A    between atoms: C_16  and  C_17 
REMARK   15  A    between atoms: C_16  and  C_18 
REMARK   16  A    between atoms: C_19  and  C_20 
REMARK   17  A    between atoms: C_20  and  C_24 
REMARK   18  A    between atoms: C_22  and  C_23 
ROOT
HETATM    1  O   UNK N   1       6.744   1.736  -0.405  0.00  0.00    -0.294 OA
ENDROOT
BRANCH   1   2
HETATM    2  P   UNK N   1       8.411   1.910   0.083  0.00  0.00     0.393 P 
HETATM    3  O   UNK N   1       8.624   1.182   1.441  0.00  0.00    -0.631 OA
BRANCH   2   4
HETATM    4  O   UNK N   1       9.474   1.109  -1.043  0.00  0.00    -0.294 OA
BRANCH   4   5
HETATM    5  C   UNK N   1      10.346   2.066  -1.580  0.00  0.00     0.216 C 
BRANCH   5   6
HETATM    6  C   UNK N   1      11.683   2.149  -0.821  0.00  0.00     0.198 C 
BRANCH   6   7
HETATM    7  N   UNK N   1      11.560   3.032   0.325  0.00  0.00    -0.416 N 
HETATM    8  H   UNK N   1      12.055   3.417   1.130  0.00  0.00     0.150 HD
HETATM    9  H   UNK N   1      10.615   3.416   0.325  0.00  0.00     0.150 HD
ENDBRANCH   6   7
BRANCH   6  10
HETATM   10  C   UNK N   1      12.283   0.834  -0.390  0.00  0.00     0.165 C 
HETATM   11  O   UNK N   1      11.704  -0.223  -0.586  0.00  0.00    -0.648 OA
BRANCH  10  12
HETATM   12  O   UNK N   1      13.477   0.827   0.231  0.00  0.00    -0.775 OA
HETATM   13  H   UNK N   1      13.889   0.104   0.663  0.00  0.00     0.167 HD
ENDBRANCH  10  12
ENDBRANCH   6  10
ENDBRANCH   5   6
ENDBRANCH   4   5
ENDBRANCH   2   4
BRANCH   2  14
HETATM   14  O   UNK N   1       8.807   3.582   0.342  0.00  0.00    -0.307 OA
HETATM   15  H   UNK N   1       9.726   3.857   0.487  0.00  0.00     0.222 HD
ENDBRANCH   2  14
ENDBRANCH   1   2
BRANCH   1  16
HETATM   16  C   UNK N   1       6.021   1.477   0.762  0.00  0.00     0.215 C 
BRANCH  16  17
HETATM   17  C   UNK N   1       4.841   0.562   0.481  0.00  0.00     0.180 C 
BRANCH  17  18
HETATM   18  O   UNK N   1       3.907   1.217  -0.290  0.00  0.00    -0.312 OA
BRANCH  18  19
HETATM   19  C   UNK N   1       2.632   1.404   0.131  0.00  0.00     0.259 C 
HETATM   20  O   UNK N   1       2.256   0.957   1.205  0.00  0.00    -0.265 OA
BRANCH  19  21
HETATM   21  C   UNK N   1       1.686   2.182  -0.728  0.00  0.00     0.111 C 
BRANCH  21  22
HETATM   22  C   UNK N   1       0.481   1.348  -1.128  0.00  0.00     0.005 C 
HETATM   23  C   UNK N   1      -0.587   1.424  -0.053  0.00  0.00     0.005 C 
ENDBRANCH  21  22
ENDBRANCH  19  21
ENDBRANCH  18  19
ENDBRANCH  17  18
BRANCH  17  24
HETATM   24  C   UNK N   1       5.264  -0.732  -0.197  0.00  0.00     0.213 C 
BRANCH  24  25
HETATM   25  O   UNK N   1       4.158  -1.544  -0.294  0.00  0.00    -0.319 OA
BRANCH  25  26
HETATM   26  C   UNK N   1       4.125  -2.805   0.192  0.00  0.00     0.258 C 
HETATM   27  O   UNK N   1       5.146  -3.358   0.578  0.00  0.00    -0.265 OA
BRANCH  26  28
HETATM   28  C   UNK N   1       2.810  -3.506   0.287  0.00  0.00     0.106 C 
HETATM   29  C   UNK N   1       2.776  -4.716  -0.623  0.00  0.00     0.015 C 
ENDBRANCH  26  28
ENDBRANCH  25  26
ENDBRANCH  24  25
ENDBRANCH  17  24
ENDBRANCH  16  17
ENDBRANCH   1  16
TORSDOF 18
