REMARK  13 active torsions:
REMARK  status: ('A' for Active; 'I' for Inactive)
REMARK    1  A    between atoms: N_1  and  C_7 
REMARK    2  A    between atoms: N_1  and  C_9 
REMARK    3  A    between atoms: N_2  and  C_8 
REMARK    4  A    between atoms: N_2  and  C_10 
REMARK    5  A    between atoms: N_3  and  C_13 
REMARK    6  A    between atoms: N_4  and  C_14 
REMARK    7  A    between atoms: C_5  and  C_6 
REMARK    8  A    between atoms: C_5  and  C_7 
REMARK    9  A    between atoms: C_6  and  C_8 
REMARK   10  A    between atoms: C_9  and  C_11 
REMARK   11  A    between atoms: C_10  and  C_12 
REMARK   12  A    between atoms: C_11  and  C_13 
REMARK   13  A    between atoms: C_12  and  C_14 
ROOT
HETATM    1  C   UNK N   1       6.124   0.439  -0.000  0.00  0.00     0.021 C 
ENDROOT
BRANCH   1   2
HETATM    2  C   UNK N   1       7.349  -0.439  -0.000  0.00  0.00     0.021 C 
BRANCH   2   3
HETATM    3  C   UNK N   1       8.579   0.434  -0.000  0.00  0.00     0.113 C 
BRANCH   3   4
HETATM    4  N   UNK N   1       9.751  -0.417   0.000  0.00  0.00    -0.421 N 
HETATM    5  H   UNK N   1       9.762  -1.437   0.000  0.00  0.00     0.153 HD
BRANCH   4   6
HETATM    6  C   UNK N   1      10.905   0.458   0.000  0.00  0.00     0.115 C 
BRANCH   6   7
HETATM    7  C   UNK N   1      12.154  -0.391  -0.000  0.00  0.00     0.038 C 
BRANCH   7   8
HETATM    8  C   UNK N   1      13.375   0.500  -0.000  0.00  0.00     0.112 C 
BRANCH   8   9
HETATM    9  N   UNK N   1      14.566  -0.328  -0.000  0.00  0.00    -0.430 N 
HETATM   10  H   UNK N   1      14.481  -1.344  -0.000  0.00  0.00     0.149 HD
HETATM   11  H   UNK N   1      15.489   0.107  -0.000  0.00  0.00     0.149 HD
ENDBRANCH   8   9
ENDBRANCH   7   8
ENDBRANCH   6   7
ENDBRANCH   4   6
ENDBRANCH   3   4
ENDBRANCH   2   3
ENDBRANCH   1   2
BRANCH   1  12
HETATM   12  C   UNK N   1       4.894  -0.434  -0.000  0.00  0.00     0.113 C 
BRANCH  12  13
HETATM   13  N   UNK N   1       3.722   0.417   0.000  0.00  0.00    -0.421 N 
HETATM   14  H   UNK N   1       3.712   1.437   0.000  0.00  0.00     0.153 HD
BRANCH  13  15
HETATM   15  C   UNK N   1       2.568  -0.458   0.000  0.00  0.00     0.115 C 
BRANCH  15  16
HETATM   16  C   UNK N   1       1.319   0.391  -0.000  0.00  0.00     0.038 C 
BRANCH  16  17
HETATM   17  C   UNK N   1       0.098  -0.500  -0.000  0.00  0.00     0.112 C 
BRANCH  17  18
HETATM   18  N   UNK N   1      -1.093   0.328  -0.000  0.00  0.00    -0.430 N 
HETATM   19  H   UNK N   1      -1.008   1.344  -0.000  0.00  0.00     0.149 HD
HETATM   20  H   UNK N   1      -2.016  -0.107  -0.000  0.00  0.00     0.149 HD
ENDBRANCH  17  18
ENDBRANCH  16  17
ENDBRANCH  15  16
ENDBRANCH  13  15
ENDBRANCH  12  13
ENDBRANCH   1  12
TORSDOF 13
