REMARK  16 active torsions:
REMARK  status: ('A' for Active; 'I' for Inactive)
REMARK    1  A    between atoms: O_1  and  C_16 
REMARK    2  A    between atoms: C_3  and  C_4 
REMARK    3  A    between atoms: C_3  and  C_5 
REMARK    4  A    between atoms: C_4  and  C_6 
REMARK    5  A    between atoms: C_5  and  C_7 
REMARK    6  A    between atoms: C_6  and  C_8 
REMARK    7  A    between atoms: C_7  and  C_13 
REMARK    8  A    between atoms: C_8  and  C_16 
REMARK    9  A    between atoms: C_9  and  C_10 
REMARK   10  A    between atoms: C_9  and  C_11 
REMARK   11  A    between atoms: C_10  and  C_12 
REMARK   12  A    between atoms: C_11  and  C_15 
REMARK   13  A    between atoms: C_14  and  C_18 
REMARK   14  A    between atoms: C_18  and  C_21 
REMARK   15  A    between atoms: C_19  and  C_20 
REMARK   16  A    between atoms: C_20  and  C_22 
ROOT
HETATM    1  C   UNK N   1       3.945  -4.196   0.000  0.00  0.00    -0.030 C 
HETATM    2  C   UNK N   1       5.118  -4.854   0.000  0.00  0.00    -0.027 C 
ENDROOT
BRANCH   2   3
HETATM    3  C   UNK N   1       6.366  -4.035  -0.000  0.00  0.00     0.053 C 
BRANCH   3   4
HETATM    4  C   UNK N   1       7.710  -4.692   0.000  0.00  0.00    -0.027 C 
HETATM    5  C   UNK N   1       8.789  -3.889   0.000  0.00  0.00    -0.027 C 
BRANCH   5   6
HETATM    6  C   UNK N   1       8.570  -2.400  -0.000  0.00  0.00     0.053 C 
BRANCH   6   7
HETATM    7  C   UNK N   1       9.780  -1.531   0.000  0.00  0.00    -0.027 C 
HETATM    8  C   UNK N   1       9.626  -0.197   0.000  0.00  0.00    -0.030 C 
BRANCH   8   9
HETATM    9  C   UNK N   1       8.257   0.426  -0.000  0.00  0.00     0.027 C 
BRANCH   9  10
HETATM   10  C   UNK N   1       8.326   1.937   0.000  0.00  0.00     0.004 C 
BRANCH  10  11
HETATM   11  C   UNK N   1       6.914   2.489  -0.000  0.00  0.00    -0.000 C 
BRANCH  11  12
HETATM   12  C   UNK N   1       6.958   4.002   0.000  0.00  0.00    -0.005 C 
HETATM   13  C   UNK N   1       5.547   4.550  -0.000  0.00  0.00     0.005 C 
ENDBRANCH  11  12
ENDBRANCH  10  11
ENDBRANCH   9  10
ENDBRANCH   8   9
ENDBRANCH   6   7
ENDBRANCH   5   6
ENDBRANCH   3   4
ENDBRANCH   2   3
BRANCH   1  14
HETATM   14  C   UNK N   1       3.959  -2.690  -0.000  0.00  0.00     0.027 C 
BRANCH  14  15
HETATM   15  C   UNK N   1       2.617  -2.002   0.000  0.00  0.00     0.004 C 
BRANCH  15  16
HETATM   16  C   UNK N   1       2.943  -0.520  -0.000  0.00  0.00     0.000 C 
BRANCH  16  17
HETATM   17  C   UNK N   1       1.704   0.345   0.000  0.00  0.00     0.001 C 
BRANCH  17  18
HETATM   18  C   UNK N   1       2.148   1.796  -0.000  0.00  0.00     0.010 C 
BRANCH  18  19
HETATM   19  C   UNK N   1       0.937   2.713   0.000  0.00  0.00     0.110 C 
BRANCH  19  20
HETATM   20  C   UNK N   1       1.307   4.169  -0.000  0.00  0.00     0.139 C 
HETATM   21  O   UNK N   1       2.478   4.522  -0.000  0.00  0.00    -0.650 OA
BRANCH  20  22
HETATM   22  O   UNK N   1       0.336   5.098   0.000  0.00  0.00    -0.776 OA
HETATM   23  H   UNK N   1       0.558   6.008   0.000  0.00  0.00     0.167 HD
ENDBRANCH  20  22
ENDBRANCH  19  20
ENDBRANCH  18  19
ENDBRANCH  17  18
ENDBRANCH  16  17
ENDBRANCH  15  16
ENDBRANCH  14  15
ENDBRANCH   1  14
TORSDOF 16
