REMARK  4 active torsions:
REMARK  status: ('A' for Active; 'I' for Inactive)
REMARK    1  A    between atoms: O_1  and  C_8 
REMARK    2  A    between atoms: O_2  and  C_10 
REMARK    3  A    between atoms: C_6  and  C_10 
REMARK    4  A    between atoms: C_7  and  C_13 
ROOT
HETATM    1  N   UNK N   1       3.357  -2.517  -0.000  0.00  0.00    -0.367 N 
ATOM      2  HN  UNK N   1       3.333  -3.536  -0.000  1.00  0.00     0.165 HD
HETATM    3  C   UNK N   1       4.650  -0.488   0.000  0.00  0.00    -0.003 A 
HETATM    4  C   UNK N   1       3.428   0.273   0.000  0.00  0.00     0.046 A 
HETATM    5  C   UNK N   1       2.202  -0.432   0.000  0.00  0.00     0.101 A 
HETATM    6  C   UNK N   1       2.192  -1.831   0.000  0.00  0.00     0.039 A 
HETATM    7  C   UNK N   1       4.555  -1.884   0.000  0.00  0.00     0.098 A 
HETATM    8  C   UNK N   1       0.905  -2.583  -0.000  0.00  0.00     0.071 C 
ENDROOT
BRANCH   3   9
HETATM    9  C   UNK N   1       6.085   0.001   0.000  0.00  0.00     0.205 C 
BRANCH   9  10
HETATM   10  O   UNK N   1       6.303   1.371  -0.000  0.00  0.00    -0.396 OA
HETATM   11  H   UNK N   1       7.209   1.718  -0.000  0.00  0.00     0.209 HD
ENDBRANCH   9  10
ENDBRANCH   3   9
BRANCH   4  12
HETATM   12  C   UNK N   1       3.299   1.757   0.000  0.00  0.00     0.273 C 
HETATM   13  O   UNK N   1       4.226   2.542  -0.000  0.00  0.00    -0.301 OA
ENDBRANCH   4  12
BRANCH   5  14
HETATM   14  O   UNK N   1       1.033   0.239   0.000  0.00  0.00    -0.358 OA
HETATM   15  H   UNK N   1       1.031   1.176   0.000  0.00  0.00     0.217 HD
ENDBRANCH   5  14
TORSDOF 4
