REMARK  6 active torsions:
REMARK  status: ('A' for Active; 'I' for Inactive)
REMARK    1  A    between atoms: O_1  and  C_8 
REMARK    2  A    between atoms: O_2  and  C_9 
REMARK    3  A    between atoms: C_6  and  N_5 
REMARK    4  A    between atoms: C_6  and  C_7 
REMARK    5  A    between atoms: C_6  and  C_8 
REMARK    6  A    between atoms: C_7  and  C_9 
ROOT
HETATM    1  C   UNK N   1       4.561  -0.185  -0.000  0.00  0.00     0.183 C 
ENDROOT
BRANCH   1   2
HETATM    2  N   UNK N   1       4.498  -1.639   0.000  0.00  0.00    -0.417 N 
HETATM    3  H   UNK N   1       3.593  -2.110   0.000  0.00  0.00     0.150 HD
HETATM    4  H   UNK N   1       5.358  -2.187   0.000  0.00  0.00     0.150 HD
ENDBRANCH   1   2
BRANCH   1   5
HETATM    5  C   UNK N   1       3.290   0.677   0.000  0.00  0.00     0.145 C 
BRANCH   5   6
HETATM    6  C   UNK N   1       1.948   0.001  -0.000  0.00  0.00     0.141 C 
HETATM    7  O   UNK N   1       1.841  -1.214  -0.000  0.00  0.00    -0.650 OA
BRANCH   6   8
HETATM    8  O   UNK N   1       0.840   0.764   0.000  0.00  0.00    -0.776 OA
HETATM    9  H   UNK N   1       0.914   1.698   0.000  0.00  0.00     0.167 HD
ENDBRANCH   6   8
ENDBRANCH   5   6
ENDBRANCH   1   5
BRANCH   1  10
HETATM   10  C   UNK N   1       5.910   0.465   0.000  0.00  0.00     0.163 C 
HETATM   11  O   UNK N   1       5.999   1.682   0.000  0.00  0.00    -0.648 OA
BRANCH  10  12
HETATM   12  O   UNK N   1       7.028  -0.285   0.000  0.00  0.00    -0.775 OA
HETATM   13  H   UNK N   1       6.965  -1.220   0.000  0.00  0.00     0.167 HD
ENDBRANCH  10  12
ENDBRANCH   1  10
TORSDOF 6
