REMARK  8 active torsions:
REMARK  status: ('A' for Active; 'I' for Inactive)
REMARK    1  A    between atoms: O_1  and  C_7 
REMARK    2  A    between atoms: C_2  and  C_9 
REMARK    3  A    between atoms: C_3  and  C_2 
REMARK    4  A    between atoms: C_4  and  C_3 
REMARK    5  A    between atoms: C_5  and  C_4 
REMARK    6  A    between atoms: N_6  and  C_5 
REMARK    7  A    between atoms: C_9  and  C_7 
REMARK    8  A    between atoms: C_9  and  N_10 
ROOT
HETATM    1  C   UNK N   1       1.502  -0.461   0.346  0.00  0.00     0.173 C 
ENDROOT
BRANCH   1   2
HETATM    2  C   UNK N   1       2.809   0.224   0.046  0.00  0.00     0.163 C 
HETATM    3  O   UNK N   1       2.867   1.443  -0.033  0.00  0.00    -0.648 OA
BRANCH   2   4
HETATM    4  O   UNK N   1       3.942  -0.499  -0.051  0.00  0.00    -0.775 OA
HETATM    5  H   UNK N   1       3.900  -1.432  -0.119  0.00  0.00     0.167 HD
ENDBRANCH   2   4
ENDBRANCH   1   2
BRANCH   1   6
HETATM    6  C   UNK N   1       0.299   0.308  -0.202  0.00  0.00     0.035 C 
BRANCH   6   7
HETATM    7  C   UNK N   1      -0.997  -0.423   0.114  0.00  0.00     0.004 C 
BRANCH   7   8
HETATM    8  C   UNK N   1      -2.183   0.503  -0.065  0.00  0.00     0.019 C 
BRANCH   8   9
HETATM    9  C   UNK N   1      -3.466  -0.298   0.037  0.00  0.00     0.111 C 
BRANCH   9  10
HETATM   10  N   UNK N   1      -4.606   0.600  -0.011  0.00  0.00    -0.430 N 
HETATM   11  H   UNK N   1      -4.459   1.609  -0.045  0.00  0.00     0.149 HD
HETATM   12  H   UNK N   1      -5.553   0.222  -0.011  0.00  0.00     0.149 HD
ENDBRANCH   9  10
ENDBRANCH   8   9
ENDBRANCH   7   8
ENDBRANCH   6   7
ENDBRANCH   1   6
BRANCH   1  13
HETATM   13  N   UNK N   1       1.520  -1.818  -0.180  0.00  0.00    -0.418 N 
HETATM   14  H   UNK N   1       0.703  -2.305  -0.549  0.00  0.00     0.150 HD
HETATM   15  H   UNK N   1       2.410  -2.316  -0.180  0.00  0.00     0.150 HD
ENDBRANCH   1  13
TORSDOF 8
