REMARK  6 active torsions:
REMARK  status: ('A' for Active; 'I' for Inactive)
REMARK    1  A    between atoms: S_1  and  C_7 
REMARK    2  A    between atoms: O_2  and  C_8 
REMARK    3  A    between atoms: C_6  and  N_4 
REMARK    4  A    between atoms: C_5  and  C_6 
REMARK    5  A    between atoms: C_5  and  C_7 
REMARK    6  A    between atoms: C_6  and  C_8 
ROOT
HETATM    1  C   UNK N   1       3.037   0.835  -0.368  0.00  0.00     0.174 C 
ENDROOT
BRANCH   1   2
HETATM    2  N   UNK N   1       1.838   1.591  -0.037  0.00  0.00    -0.418 N 
HETATM    3  H   UNK N   1       1.877   2.583   0.195  0.00  0.00     0.150 HD
HETATM    4  H   UNK N   1       0.936   1.115  -0.037  0.00  0.00     0.150 HD
ENDBRANCH   1   2
BRANCH   1   5
HETATM    5  C   UNK N   1       3.003  -0.519   0.327  0.00  0.00     0.045 C 
BRANCH   5   6
HETATM    6  C   UNK N   1       1.989  -1.408  -0.372  0.00  0.00     0.076 C 
BRANCH   6   7
HETATM    7  S   UNK N   1       2.241  -3.141   0.099  0.00  0.00    -0.173 SA
HETATM    8  C   UNK N   1       0.456  -3.461   0.157  0.00  0.00     0.089 C 
ENDBRANCH   6   7
ENDBRANCH   5   6
ENDBRANCH   1   5
BRANCH   1   9
HETATM    9  C   UNK N   1       4.282   1.598  -0.015  0.00  0.00     0.163 C 
HETATM   10  O   UNK N   1       4.207   2.741   0.428  0.00  0.00    -0.648 OA
BRANCH   9  11
HETATM   11  O   UNK N   1       5.489   1.047  -0.219  0.00  0.00    -0.775 OA
HETATM   12  H   UNK N   1       5.577   0.125  -0.361  0.00  0.00     0.167 HD
ENDBRANCH   9  11
ENDBRANCH   1   9
TORSDOF 6
