REMARK  3 active torsions:
REMARK  status: ('A' for Active; 'I' for Inactive)
REMARK    1  A    between atoms: O_1  and  C_10 
REMARK    2  A    between atoms: N_3  and  C_7 
REMARK       I    between atoms: N_3  and  C_9 
REMARK       I    between atoms: N_4  and  C_9 
REMARK    3  A    between atoms: C_7  and  C_10 
ROOT
HETATM    1  N   UNK N   1       3.158   0.297   0.000  0.00  0.00    -0.213 N 
HETATM    2  N   UNK N   1       0.694   0.171  -0.000  0.00  0.00    -0.235 N 
HETATM    3  N   UNK N   1       2.004  -1.754   0.000  0.00  0.00    -0.235 N 
ATOM      4  HN  UNK N   1       2.906  -2.229   0.000  1.00  0.00     0.174 HD
HETATM    5  C   UNK N   1       3.067   1.740  -0.000  0.00  0.00     0.169 C 
HETATM    6  C   UNK N   1       1.954  -0.471   0.000  0.00  0.00     0.667 C 
HETATM    7  H   UNK N   1       0.642   1.154  -0.000  0.00  0.00     0.174 HD
HETATM    8  H   UNK N   1      -0.131  -0.365  -0.000  0.00  0.00     0.174 HD
HETATM    9  H   UNK N   1       1.171  -2.278   0.000  0.00  0.00     0.174 HD
ENDROOT
BRANCH   1  10
HETATM   10  C   UNK N   1       4.436  -0.410   0.000  0.00  0.00     0.250 C 
BRANCH  10  11
HETATM   11  C   UNK N   1       5.721   0.386  -0.000  0.00  0.00     0.158 C 
HETATM   12  O   UNK N   1       5.733   1.606  -0.000  0.00  0.00    -0.649 OA
BRANCH  11  13
HETATM   13  O   UNK N   1       6.889  -0.283  -0.000  0.00  0.00    -0.775 OA
HETATM   14  H   UNK N   1       6.892  -1.220  -0.000  0.00  0.00     0.167 HD
ENDBRANCH  11  13
ENDBRANCH  10  11
ENDBRANCH   1  10
TORSDOF 3
