REMARK  3 active torsions:
REMARK  status: ('A' for Active; 'I' for Inactive)
REMARK    1  A    between atoms: O_1  and  C_5 
REMARK    2  A    between atoms: N_3  and  C_4 
REMARK    3  A    between atoms: C_4  and  C_5 
ROOT
HETATM    1  C   UNK N   1       3.911   1.368   0.000  0.00  0.00     0.222 C 
ENDROOT
BRANCH   1   2
HETATM    2  N   UNK N   1       5.155   0.612   0.000  0.00  0.00    -0.422 N 
HETATM    3  H   UNK N   1       5.131  -0.408  -0.000  0.00  0.00     0.150 HD
HETATM    4  H   UNK N   1       6.050   1.101   0.000  0.00  0.00     0.150 HD
ENDBRANCH   1   2
BRANCH   1   5
HETATM    5  C   UNK N   1       2.709   0.468  -0.000  0.00  0.00     0.157 C 
HETATM    6  O   UNK N   1       2.834  -0.748   0.000  0.00  0.00    -0.649 OA
BRANCH   5   7
HETATM    7  O   UNK N   1       1.477   1.009  -0.000  0.00  0.00    -0.775 OA
HETATM    8  H   UNK N   1       1.374   1.940   0.000  0.00  0.00     0.167 HD
ENDBRANCH   5   7
ENDBRANCH   1   5
TORSDOF 3
