REMARK  6 active torsions:
REMARK  status: ('A' for Active; 'I' for Inactive)
REMARK    1  A    between atoms: C_24  and  O_1 
REMARK    2  A    between atoms: C_3  and  C_8 
REMARK    3  A    between atoms: C_8  and  C_14 
REMARK    4  A    between atoms: C_15  and  C_17 
REMARK    5  A    between atoms: C_16  and  C_18 
REMARK    6  A    between atoms: C_18  and  C_20 
ROOT
HETATM    1  C   UNK N   1       4.340   1.420  -0.165  0.00  0.00    -0.032 C 
HETATM    2  C   UNK N   1       5.754   1.347   0.433  0.00  0.00     0.002 C 
HETATM    3  C   UNK N   1       3.857  -0.009   0.140  0.00  0.00     0.023 C 
HETATM    4  C   UNK N   1       6.268   0.012  -0.135  0.00  0.00     0.007 C 
HETATM    5  C   UNK N   1       5.001  -0.825  -0.449  0.00  0.00     0.010 C 
HETATM    6  C   UNK N   1       3.366   2.424   0.462  0.00  0.00     0.010 C 
HETATM    7  C   UNK N   1       2.422  -0.222  -0.324  0.00  0.00    -0.075 C 
HETATM    8  C   UNK N   1       4.411   1.702  -1.685  0.00  0.00     0.016 C 
HETATM    9  C   UNK N   1       1.912   2.206  -0.039  0.00  0.00     0.005 C 
HETATM   10  C   UNK N   1       1.729   0.964  -0.939  0.00  0.00     0.034 C 
HETATM   11  C   UNK N   1       1.627  -1.267  -0.047  0.00  0.00     0.004 C 
ENDROOT
BRANCH  11  12
HETATM   12  C   UNK N   1       1.664  -2.590   0.639  0.00  0.00     0.008 C 
HETATM   13  C   UNK N   1       2.577  -3.532   0.902  0.00  0.00    -0.050 C 
HETATM   14  C   UNK N   1       2.080  -4.815   1.499  0.00  0.00     0.070 C 
HETATM   15  C   UNK N   1       3.973  -3.526   0.447  0.00  0.00    -0.061 C 
HETATM   16  C   UNK N   1       2.371  -5.976   0.548  0.00  0.00     0.122 C 
HETATM   17  C   UNK N   1       3.868  -6.025   0.205  0.00  0.00     0.036 C 
HETATM   18  C   UNK N   1       4.370  -4.703  -0.399  0.00  0.00     0.041 C 
HETATM   19  C   UNK N   1       4.887  -3.100   1.319  0.00  0.00     0.019 C 
BRANCH  16  20
HETATM   20  O   UNK N   1       1.606  -5.850  -0.615  0.00  0.00    -0.395 OA
HETATM   21  H   UNK N   1       1.416  -5.347  -1.422  0.00  0.00     0.210 HD
ENDBRANCH  16  20
ENDBRANCH  11  12
BRANCH   2  22
HETATM   22  C   UNK N   1       6.711   2.546   0.234  0.00  0.00     0.008 C 
HETATM   23  C   UNK N   1       6.168   3.798   0.905  0.00  0.00     0.014 C 
BRANCH  22  24
HETATM   24  C   UNK N   1       7.059   2.828  -1.202  0.00  0.00    -0.026 C 
HETATM   25  C   UNK N   1       8.205   3.401  -1.610  0.00  0.00    -0.026 C 
BRANCH  25  26
HETATM   26  C   UNK N   1       9.336   3.850  -0.714  0.00  0.00     0.007 C 
HETATM   27  C   UNK N   1       9.893   2.668   0.069  0.00  0.00     0.014 C 
BRANCH  26  28
HETATM   28  C   UNK N   1       8.965   5.024   0.202  0.00  0.00    -0.015 C 
HETATM   29  C   UNK N   1       8.458   6.207  -0.605  0.00  0.00     0.010 C 
HETATM   30  C   UNK N   1      10.168   5.485   1.007  0.00  0.00     0.010 C 
ENDBRANCH  26  28
ENDBRANCH  25  26
ENDBRANCH  22  24
ENDBRANCH   2  22
TORSDOF 6
