REMARK  3 active torsions:
REMARK  status: ('A' for Active; 'I' for Inactive)
REMARK    1  A    between atoms: O_1  and  C_7 
REMARK    2  A    between atoms: N_2  and  C_3 
REMARK    3  A    between atoms: C_3  and  C_7 
ROOT
HETATM    1  N   UNK N   1       2.140  -0.214   0.015  0.00  0.00    -0.077 N 
HETATM    2  C   UNK N   1       1.119  -0.475  -0.985  0.00  0.00     0.271 C 
HETATM    3  C   UNK N   1       1.580   0.683   1.013  0.00  0.00     0.271 C 
HETATM    4  C   UNK N   1       2.500  -1.479   0.636  0.00  0.00     0.271 C 
ENDROOT
BRANCH   1   5
HETATM    5  C   UNK N   1       3.295   0.398  -0.650  0.00  0.00     0.262 C 
BRANCH   5   6
HETATM    6  C   UNK N   1       4.442   0.695   0.315  0.00  0.00     0.192 C 
BRANCH   6   7
HETATM    7  O   UNK N   1       5.435   1.419  -0.344  0.00  0.00    -0.399 OA
HETATM    8  H   UNK N   1       6.216   1.073  -0.803  0.00  0.00     0.209 HD
ENDBRANCH   6   7
ENDBRANCH   5   6
ENDBRANCH   1   5
TORSDOF 3
