REMARK  11 active torsions:
REMARK  status: ('A' for Active; 'I' for Inactive)
REMARK    1  A    between atoms: O_1  and  C_22 
REMARK    2  A    between atoms: O_4  and  C_30 
REMARK    3  A    between atoms: C_17  and  N_7 
REMARK       I    between atoms: N_7  and  C_20 
REMARK    4  A    between atoms: N_8  and  C_23 
REMARK    5  A    between atoms: N_8  and  C_24 
REMARK       I    between atoms: N_16  and  C_35 
REMARK    6  A    between atoms: C_17  and  C_18 
REMARK    7  A    between atoms: C_17  and  C_22 
REMARK    8  A    between atoms: C_18  and  C_19 
REMARK    9  A    between atoms: C_19  and  C_30 
REMARK   10  A    between atoms: C_20  and  C_21 
REMARK   11  A    between atoms: C_24  and  C_29 
ROOT
HETATM    1  C   UNK N   1      10.034   0.249   0.022  0.00  0.00     0.032 A 
HETATM    2  C   UNK N   1       7.635  -1.153  -0.073  0.00  0.00     0.028 A 
HETATM    3  C   UNK N   1      10.032  -1.155   0.022  0.00  0.00     0.019 A 
HETATM    4  C   UNK N   1       8.827   0.949  -0.035  0.00  0.00     0.019 A 
HETATM    5  C   UNK N   1       8.835  -1.859  -0.024  0.00  0.00     0.030 A 
HETATM    6  C   UNK N   1       7.631   0.244  -0.086  0.00  0.00     0.030 A 
ENDROOT
BRANCH   2   7
HETATM    7  N   UNK N   1       6.402  -1.808  -0.095  0.00  0.00    -0.384 N 
HETATM    8  H   UNK N   1       5.606  -1.232  -0.164  0.00  0.00     0.160 HD
BRANCH   7   9
HETATM    9  C   UNK N   1       6.157  -3.227  -0.028  0.00  0.00     0.178 C 
BRANCH   9  10
HETATM   10  C   UNK N   1       4.670  -3.365  -0.005  0.00  0.00     0.043 A 
HETATM   11  N   UNK N   1       3.924  -2.231  -0.002  0.00  0.00    -0.350 N 
HETATM   12  C   UNK N   1       2.581  -2.262   0.003  0.00  0.00     0.147 A 
ATOM     13  HN  UNK N   1       4.397  -1.328  -0.004  1.00  0.00     0.166 HD
HETATM   14  C   UNK N   1       1.923  -3.492   0.006  0.00  0.00     0.153 A 
HETATM   15  C   UNK N   1       1.842  -1.085   0.001  0.00  0.00     0.290 A 
HETATM   16  N   UNK N   1       0.565  -3.521   0.005  0.00  0.00    -0.174 N 
HETATM   17  N   UNK N   1       2.654  -4.644   0.008  0.00  0.00    -0.348 N 
HETATM   18  C   UNK N   1      -0.155  -2.362   0.001  0.00  0.00     0.680 A 
HETATM   19  H   UNK N   1       0.095  -4.387   0.008  0.00  0.00     0.186 HD
HETATM   20  N   UNK N   1       0.477  -1.156  -0.000  0.00  0.00    -0.154 N 
HETATM   21  N   UNK N   1      -1.561  -2.408  -0.002  0.00  0.00    -0.234 N 
ATOM     22  HN  UNK N   1      -0.073  -0.297  -0.002  1.00  0.00     0.187 HD
HETATM   23  H   UNK N   1      -2.082  -1.572  -0.004  0.00  0.00     0.174 HD
HETATM   24  H   UNK N   1      -2.025  -3.277  -0.002  0.00  0.00     0.174 HD
HETATM   25  C   UNK N   1       4.021  -4.607   0.003  0.00  0.00     0.116 A 
ATOM     26  HN  UNK N   1       2.175  -5.544   0.014  1.00  0.00     0.167 HD
HETATM   27  O   UNK N   1       2.398   0.000  -0.002  0.00  0.00    -0.265 OA
ENDBRANCH   9  10
ENDBRANCH   7   9
ENDBRANCH   2   7
BRANCH   1  28
HETATM   28  C   UNK N   1      11.306   0.958   0.133  0.00  0.00     0.252 C 
HETATM   29  O   UNK N   1      11.332   2.177   0.189  0.00  0.00    -0.268 OA
HETATM   30  N   UNK N   1      12.438   0.216   0.189  0.00  0.00    -0.343 N 
HETATM   31  H   UNK N   1      12.314  -0.752   0.059  0.00  0.00     0.163 HD
BRANCH  30  32
HETATM   32  C   UNK N   1      13.803   0.641   0.412  0.00  0.00     0.183 C 
BRANCH  32  33
HETATM   33  C   UNK N   1      14.153   1.949  -0.289  0.00  0.00     0.046 C 
BRANCH  33  34
HETATM   34  C   UNK N   1      13.893   3.087   0.690  0.00  0.00     0.112 C 
BRANCH  34  35
HETATM   35  C   UNK N   1      13.703   4.384  -0.017  0.00  0.00     0.139 C 
HETATM   36  O   UNK N   1      12.606   4.918  -0.022  0.00  0.00    -0.650 OA
BRANCH  35  37
HETATM   37  O   UNK N   1      14.744   4.986  -0.620  0.00  0.00    -0.776 OA
HETATM   38  H   UNK N   1      15.470   4.567  -1.040  0.00  0.00     0.167 HD
ENDBRANCH  35  37
ENDBRANCH  34  35
ENDBRANCH  33  34
ENDBRANCH  32  33
BRANCH  32  39
HETATM   39  C   UNK N   1      14.710  -0.480  -0.023  0.00  0.00     0.163 C 
HETATM   40  O   UNK N   1      14.245  -1.510  -0.495  0.00  0.00    -0.648 OA
BRANCH  39  41
HETATM   41  O   UNK N   1      16.040  -0.368   0.133  0.00  0.00    -0.775 OA
HETATM   42  H   UNK N   1      16.572  -1.132   0.241  0.00  0.00     0.167 HD
ENDBRANCH  39  41
ENDBRANCH  32  39
ENDBRANCH  30  32
ENDBRANCH   1  28
TORSDOF 11
