REMARK  4 active torsions:
REMARK  status: ('A' for Active; 'I' for Inactive)
REMARK    1  A    between atoms: O_1  and  C_13 
REMARK    2  A    between atoms: N_4  and  C_10 
REMARK       I    between atoms: N_4  and  C_15 
REMARK    3  A    between atoms: C_5  and  C_7 
REMARK    4  A    between atoms: C_7  and  C_10 
ROOT
HETATM    1  N   UNK N   1       5.501  -2.752  -0.000  0.00  0.00    -0.365 N 
HETATM    2  C   UNK N   1       5.480  -0.504  -0.000  0.00  0.00    -0.029 A 
HETATM    3  C   UNK N   1       4.189  -0.944  -0.000  0.00  0.00     0.001 A 
HETATM    4  C   UNK N   1       4.232  -2.307  -0.000  0.00  0.00     0.043 A 
HETATM    5  C   UNK N   1       6.286  -1.642   0.000  0.00  0.00     0.096 A 
HETATM    6  C   UNK N   1       2.995  -0.237  -0.000  0.00  0.00     0.051 A 
HETATM    7  C   UNK N   1       3.070  -3.073  -0.000  0.00  0.00     0.033 A 
HETATM    8  C   UNK N   1       1.795  -0.967  -0.000  0.00  0.00     0.069 A 
HETATM    9  C   UNK N   1       1.838  -2.390  -0.000  0.00  0.00     0.039 A 
HETATM   10  H   UNK N   1       5.800  -3.690  -0.000  0.00  0.00     0.165 HD
ENDROOT
BRANCH   2  11
HETATM   11  C   UNK N   1       5.895   0.932   0.000  0.00  0.00     0.060 C 
BRANCH  11  12
HETATM   12  C   UNK N   1       7.398   1.075   0.000  0.00  0.00     0.127 C 
BRANCH  12  13
HETATM   13  N   UNK N   1       7.748   2.469   0.000  0.00  0.00    -0.361 N 
HETATM   14  C   UNK N   1       9.040   2.864  -0.000  0.00  0.00     0.213 C 
HETATM   15  O   UNK N   1       9.943   2.041   0.000  0.00  0.00    -0.274 OA
HETATM   16  C   UNK N   1       9.367   4.315  -0.000  0.00  0.00     0.117 C 
HETATM   17  H   UNK N   1       7.034   3.148   0.000  0.00  0.00     0.162 HD
ENDBRANCH  12  13
ENDBRANCH  11  12
ENDBRANCH   2  11
BRANCH   8  18
HETATM   18  O   UNK N   1       0.626  -0.288  -0.000  0.00  0.00    -0.356 OA
HETATM   19  C   UNK N   1      -0.604  -0.904   0.000  0.00  0.00     0.210 C 
ENDBRANCH   8  18
TORSDOF 4
