REMARK  9 active torsions:
REMARK  status: ('A' for Active; 'I' for Inactive)
REMARK    1  A    between atoms: O_3  and  C_1 
REMARK    2  A    between atoms: C_1  and  C_12 
REMARK    3  A    between atoms: C_4  and  C_11 
REMARK    4  A    between atoms: O_6  and  C_4 
REMARK    5  A    between atoms: C_10  and  C_8 
REMARK    6  A    between atoms: C_8  and  O_9 
REMARK    7  A    between atoms: C_12  and  C_10 
REMARK    8  A    between atoms: C_11  and  C_12 
REMARK    9  A    between atoms: C_12  and  O_13 
ROOT
HETATM    1  C   UNK N   1      -0.314  -0.822   0.032  0.00  0.00     0.161 C 
ENDROOT
BRANCH   1   2
HETATM    2  C   UNK N   1      -1.559  -1.213   0.848  0.00  0.00     0.159 C 
BRANCH   2   3
HETATM    3  C   UNK N   1      -2.890  -1.041   0.168  0.00  0.00     0.142 C 
HETATM    4  O   UNK N   1      -3.356   0.071  -0.014  0.00  0.00    -0.650 OA
BRANCH   3   5
HETATM    5  O   UNK N   1      -3.612  -2.126  -0.165  0.00  0.00    -0.776 OA
HETATM    6  H   UNK N   1      -4.518  -2.069  -0.396  0.00  0.00     0.167 HD
ENDBRANCH   3   5
ENDBRANCH   2   3
ENDBRANCH   1   2
BRANCH   1   7
HETATM    7  C   UNK N   1       0.872  -1.317   0.877  0.00  0.00     0.159 C 
BRANCH   7   8
HETATM    8  C   UNK N   1       2.239  -1.202   0.267  0.00  0.00     0.142 C 
HETATM    9  O   UNK N   1       2.791  -0.117   0.185  0.00  0.00    -0.650 OA
BRANCH   8  10
HETATM   10  O   UNK N   1       2.900  -2.316  -0.099  0.00  0.00    -0.776 OA
HETATM   11  H   UNK N   1       2.459  -3.102  -0.355  0.00  0.00     0.167 HD
ENDBRANCH   8  10
ENDBRANCH   7   8
ENDBRANCH   1   7
BRANCH   1  12
HETATM   12  C   UNK N   1      -0.225   0.672  -0.241  0.00  0.00     0.176 C 
HETATM   13  O   UNK N   1       0.685   1.116  -0.919  0.00  0.00    -0.648 OA
BRANCH  12  14
HETATM   14  O   UNK N   1      -1.150   1.522   0.247  0.00  0.00    -0.774 OA
HETATM   15  H   UNK N   1      -0.960   2.374   0.586  0.00  0.00     0.167 HD
ENDBRANCH  12  14
ENDBRANCH   1  12
BRANCH   1  16
HETATM   16  O   UNK N   1      -0.333  -1.513  -1.184  0.00  0.00    -0.378 OA
HETATM   17  H   UNK N   1      -0.755  -1.742  -2.027  0.00  0.00     0.211 HD
ENDBRANCH   1  16
TORSDOF 9
