REMARK  4 active torsions:
REMARK  status: ('A' for Active; 'I' for Inactive)
REMARK    1  A    between atoms: C_13  and  O_25 
REMARK    2  A    between atoms: C_15  and  O_20 
REMARK    3  A    between atoms: C_17  and  C_26 
REMARK    4  A    between atoms: C_18  and  O_30 
ROOT
HETATM    1  C   UNK N   1       5.674  -7.162  -0.875  0.00  0.00     0.263 C 
HETATM    2  O   UNK N   1       5.664  -8.483  -1.166  0.00  0.00    -0.312 OA
HETATM    3  C   UNK N   1       6.602  -9.144  -0.419  0.00  0.00     0.169 C 
HETATM    4  C   UNK N   1       7.535  -8.053  -0.008  0.00  0.00     0.077 C 
HETATM    5  C   UNK N   1       6.827  -6.716  -0.030  0.00  0.00     0.091 C 
HETATM    6  C   UNK N   1       8.712 -10.057   0.077  0.00  0.00     0.074 C 
HETATM    7  C   UNK N   1       8.933  -8.609   0.228  0.00  0.00     0.172 C 
HETATM    8  C   UNK N   1      10.125 -10.666  -0.156  0.00  0.00     0.068 C 
HETATM    9  C   UNK N   1      10.472  -9.579  -1.241  0.00  0.00     0.284 C 
HETATM   10  O   UNK N   1       9.874  -8.333  -0.799  0.00  0.00    -0.337 OA
HETATM   11  O   UNK N   1      11.812  -9.348  -1.126  0.00  0.00    -0.287 OA
HETATM   12  C   UNK N   1      12.228  -9.579   0.111  0.00  0.00     0.291 C 
HETATM   13  C   UNK N   1      11.310 -10.422   0.889  0.00  0.00     0.232 C 
HETATM   14  O   UNK N   1       4.771  -6.416  -1.218  0.00  0.00    -0.265 OA
HETATM   15  C   UNK N   1       7.602 -10.099  -1.044  0.00  0.00     0.164 C 
HETATM   16  C   UNK N   1       8.253 -10.603   1.406  0.00  0.00     0.176 C 
HETATM   17  C   UNK N   1       9.577 -12.132  -0.014  0.00  0.00     0.042 C 
HETATM   18  C   UNK N   1       8.703 -12.054   1.277  0.00  0.00     0.154 C 
HETATM   19  O   UNK N   1      13.283  -9.148   0.542  0.00  0.00    -0.262 OA
HETATM   20  C   UNK N   1       7.650  -5.671  -0.755  0.00  0.00     0.021 C 
HETATM   21  C   UNK N   1       9.306  -8.631   1.668  0.00  0.00     0.296 C 
HETATM   22  O   UNK N   1       8.958  -9.786   2.283  0.00  0.00    -0.310 OA
HETATM   23  O   UNK N   1       9.830  -7.693   2.263  0.00  0.00    -0.262 OA
ENDROOT
BRANCH  17  24
HETATM   24  C   UNK N   1      10.358 -13.489  -0.052  0.00  0.00    -0.044 C 
HETATM   25  C   UNK N   1      10.954 -13.898   1.296  0.00  0.00     0.015 C 
HETATM   26  C   UNK N   1      11.442 -13.484  -1.106  0.00  0.00     0.015 C 
HETATM   27  C   UNK N   1       9.387 -14.603  -0.398  0.00  0.00     0.015 C 
ENDBRANCH  17  24
BRANCH  18  28
HETATM   28  O   UNK N   1       7.574 -12.860   1.111  0.00  0.00    -0.393 OA
HETATM   29  H   UNK N   1       6.697 -12.461   0.996  0.00  0.00     0.210 HD
ENDBRANCH  18  28
BRANCH  13  30
HETATM   30  O   UNK N   1      12.064 -11.554   1.170  0.00  0.00    -0.385 OA
HETATM   31  H   UNK N   1      11.643 -12.405   1.367  0.00  0.00     0.210 HD
ENDBRANCH  13  30
BRANCH  15  32
HETATM   32  O   UNK N   1       7.046 -11.360  -1.261  0.00  0.00    -0.392 OA
HETATM   33  H   UNK N   1       6.093 -11.464  -1.412  0.00  0.00     0.210 HD
ENDBRANCH  15  32
TORSDOF 4
