REMARK  7 active torsions:
REMARK  status: ('A' for Active; 'I' for Inactive)
REMARK    1  A    between atoms: C_18  and  C_17 
REMARK    2  A    between atoms: C_23  and  C_17 
REMARK    3  A    between atoms: N_24  and  C_18 
REMARK    4  A    between atoms: C_20  and  C_19 
REMARK    5  A    between atoms: N_24  and  C_19 
REMARK    6  A    between atoms: C_23  and  C_21 
REMARK    7  A    between atoms: C_23  and  C_22 
ROOT
HETATM    1  C   UNK N   1       6.998  -1.321   0.860  0.00  0.00     0.053 C 
ENDROOT
BRANCH   1   2
HETATM    2  C   UNK N   1       5.613  -1.955   0.659  0.00  0.00     0.033 C 
BRANCH   2   3
HETATM    3  C   UNK N   1       4.936  -1.657  -0.685  0.00  0.00     0.115 C 
BRANCH   3   4
HETATM    4  N   UNK N   1       4.063  -0.480  -0.603  0.00  0.00    -0.413 N 
HETATM    5  H   UNK N   1       4.108   0.325  -1.227  0.00  0.00     0.153 HD
BRANCH   4   6
HETATM    6  C   UNK N   1       3.116  -0.628   0.504  0.00  0.00     0.105 C 
HETATM    7  C   UNK N   1       2.526   0.720   0.878  0.00  0.00     0.037 C 
BRANCH   6   8
HETATM    8  C   UNK N   1       2.044  -1.629   0.198  0.00  0.00    -0.036 A 
HETATM    9  C   UNK N   1       1.980  -2.809   0.948  0.00  0.00     0.009 A 
HETATM   10  C   UNK N   1       0.994  -3.761   0.677  0.00  0.00     0.001 A 
HETATM   11  C   UNK N   1       0.064  -3.534  -0.341  0.00  0.00     0.000 A 
HETATM   12  C   UNK N   1       0.123  -2.355  -1.092  0.00  0.00     0.001 A 
HETATM   13  C   UNK N   1       1.113  -1.405  -0.827  0.00  0.00     0.009 A 
ENDBRANCH   6   8
ENDBRANCH   4   6
ENDBRANCH   3   4
ENDBRANCH   2   3
ENDBRANCH   1   2
BRANCH   1  14
HETATM   14  C   UNK N   1       8.146  -2.180   0.385  0.00  0.00    -0.050 A 
HETATM   15  C   UNK N   1       9.446  -1.877   0.817  0.00  0.00     0.008 A 
HETATM   16  C   UNK N   1      10.525  -2.677   0.436  0.00  0.00     0.001 A 
HETATM   17  C   UNK N   1      10.315  -3.792  -0.378  0.00  0.00     0.000 A 
HETATM   18  C   UNK N   1       9.023  -4.107  -0.811  0.00  0.00     0.001 A 
HETATM   19  C   UNK N   1       7.942  -3.309  -0.429  0.00  0.00     0.008 A 
ENDBRANCH   1  14
BRANCH   1  20
HETATM   20  C   UNK N   1       7.061   0.137   0.449  0.00  0.00    -0.050 A 
HETATM   21  C   UNK N   1       6.212   1.062   1.070  0.00  0.00     0.008 A 
HETATM   22  C   UNK N   1       6.254   2.413   0.710  0.00  0.00     0.001 A 
HETATM   23  C   UNK N   1       7.150   2.847  -0.270  0.00  0.00     0.000 A 
HETATM   24  C   UNK N   1       8.003   1.933  -0.892  0.00  0.00     0.001 A 
HETATM   25  C   UNK N   1       7.959   0.582  -0.536  0.00  0.00     0.008 A 
ENDBRANCH   1  20
TORSDOF 7
