REMARK  9 active torsions:
REMARK  status: ('A' for Active; 'I' for Inactive)
REMARK    1  A    between atoms: O_28  and  C_3 
REMARK    2  A    between atoms: C_20  and  C_18 
REMARK    3  A    between atoms: N_25  and  C_18 
REMARK    4  A    between atoms: C_23  and  C_19 
REMARK    5  A    between atoms: N_26  and  C_19 
REMARK    6  A    between atoms: C_24  and  C_20 
REMARK    7  A    between atoms: C_23  and  C_21 
REMARK    8  A    between atoms: C_24  and  C_22 
REMARK    9  A    between atoms: O_28  and  C_23 
ROOT
HETATM    1  C   UNK N   1       6.638  -1.340  -0.284  0.00  0.00     0.302 C 
HETATM    2  C   UNK N   1       5.076  -1.402   1.408  0.00  0.00     0.302 C 
HETATM    3  C   UNK N   1       6.277   0.090  -0.703  0.00  0.00     0.302 C 
HETATM    4  C   UNK N   1       4.511  -0.031   1.111  0.00  0.00     0.302 C 
HETATM    5  N   UNK N   1       5.405  -1.968   0.129  0.00  0.00     0.092 N 
HETATM    6  N   UNK N   1       5.340   0.802   0.202  0.00  0.00     0.094 N 
ENDROOT
BRANCH   5   7
HETATM    7  C   UNK N   1       5.443  -3.417   0.190  0.00  0.00     0.284 C 
BRANCH   7   8
HETATM    8  C   UNK N   1       4.446  -3.999  -0.831  0.00  0.00     0.085 C 
HETATM    9  C   UNK N   1       3.386  -2.998  -1.299  0.00  0.00     0.020 C 
BRANCH   8  10
HETATM   10  C   UNK N   1       3.922  -5.356  -0.397  0.00  0.00     0.165 C 
HETATM   11  O   UNK N   1       4.737  -6.262  -0.286  0.00  0.00    -0.292 OA
BRANCH  10  12
HETATM   12  C   UNK N   1       2.480  -5.663  -0.123  0.00  0.00     0.010 A 
HETATM   13  C   UNK N   1       2.097  -6.989   0.139  0.00  0.00     0.015 A 
HETATM   14  C   UNK N   1       0.759  -7.311   0.387  0.00  0.00     0.001 A 
HETATM   15  C   UNK N   1      -0.214  -6.310   0.386  0.00  0.00     0.000 A 
HETATM   16  C   UNK N   1       0.151  -4.986   0.138  0.00  0.00     0.001 A 
HETATM   17  C   UNK N   1       1.487  -4.666  -0.114  0.00  0.00     0.015 A 
ENDBRANCH  10  12
ENDBRANCH   8  10
ENDBRANCH   7   8
ENDBRANCH   5   7
BRANCH   6  18
HETATM   18  C   UNK N   1       4.441   1.530  -0.704  0.00  0.00     0.309 C 
BRANCH  18  19
HETATM   19  C   UNK N   1       3.239   2.166   0.006  0.00  0.00     0.182 C 
BRANCH  19  20
HETATM   20  C   UNK N   1       3.292   3.667   0.012  0.00  0.00    -0.028 A 
HETATM   21  C   UNK N   1       2.217   4.425  -0.480  0.00  0.00     0.010 A 
HETATM   22  C   UNK N   1       2.259   5.821  -0.435  0.00  0.00     0.001 A 
HETATM   23  C   UNK N   1       3.377   6.468   0.098  0.00  0.00     0.000 A 
HETATM   24  C   UNK N   1       4.450   5.720   0.589  0.00  0.00     0.001 A 
HETATM   25  C   UNK N   1       4.406   4.323   0.553  0.00  0.00     0.010 A 
ENDBRANCH  19  20
BRANCH  19  26
HETATM   26  O   UNK N   1       2.052   1.695  -0.573  0.00  0.00    -0.380 OA
BRANCH  26  27
HETATM   27  C   UNK N   1       1.372   1.038   0.455  0.00  0.00     0.164 C 
HETATM   28  C   UNK N   1       0.718  -0.215  -0.090  0.00  0.00     0.033 C 
ENDBRANCH  26  27
ENDBRANCH  19  26
ENDBRANCH  18  19
ENDBRANCH   6  18
TORSDOF 9
