REMARK  10 active torsions:
REMARK  status: ('A' for Active; 'I' for Inactive)
REMARK    1  A    between atoms: C_30  and  C_20 
REMARK    2  A    between atoms: N_32  and  C_20 
REMARK    3  A    between atoms: C_29  and  C_21 
REMARK    4  A    between atoms: O_33  and  C_21 
REMARK    5  A    between atoms: C_23  and  C_22 
REMARK    6  A    between atoms: C_29  and  C_24 
REMARK    7  A    between atoms: C_30  and  C_25 
REMARK    8  A    between atoms: C_28  and  O_36 
REMARK    9  A    between atoms: C_29  and  C_31 
REMARK   10  A    between atoms: O_36  and  C_31 
ROOT
HETATM    1  C   UNK N   1      -1.506  -1.127   0.919  0.00  0.00     0.274 C 
HETATM    2  C   UNK N   1      -0.362  -2.287  -1.350  0.00  0.00     0.036 C 
HETATM    3  C   UNK N   1      -0.870  -0.960  -1.911  0.00  0.00     0.036 C 
HETATM    4  C   UNK N   1       1.851  -1.578  -0.806  0.00  0.00     0.066 C 
HETATM    5  C   UNK N   1       0.923   0.700  -1.402  0.00  0.00     0.066 C 
HETATM    6  C   UNK N   1       0.480  -1.860  -0.150  0.00  0.00     0.193 C 
HETATM    7  C   UNK N   1      -0.413   0.088  -0.888  0.00  0.00     0.193 C 
HETATM    8  C   UNK N   1       2.186  -0.099  -1.011  0.00  0.00     0.136 C 
HETATM    9  N   UNK N   1      -0.219  -0.661   0.380  0.00  0.00    -0.055 N 
ENDROOT
BRANCH   9  10
HETATM   10  C   UNK N   1       0.437   0.042   1.526  0.00  0.00     0.321 C 
BRANCH  10  11
HETATM   11  C   UNK N   1       0.323   1.571   1.505  0.00  0.00     0.185 C 
HETATM   12  O   UNK N   1       1.342   2.245   1.481  0.00  0.00    -0.290 OA
BRANCH  11  13
HETATM   13  C   UNK N   1      -0.986   2.230   1.328  0.00  0.00     0.011 A 
HETATM   14  C   UNK N   1      -2.152   1.529   1.624  0.00  0.00     0.016 A 
HETATM   15  C   UNK N   1      -3.385   1.994   1.203  0.00  0.00     0.013 A 
HETATM   16  C   UNK N   1      -3.481   3.176   0.465  0.00  0.00    -0.026 A 
HETATM   17  C   UNK N   1      -2.319   3.935   0.229  0.00  0.00     0.013 A 
HETATM   18  C   UNK N   1      -1.073   3.464   0.666  0.00  0.00     0.016 A 
BRANCH  16  19
HETATM   19  C   UNK N   1      -4.784   3.543  -0.129  0.00  0.00    -0.026 A 
HETATM   20  C   UNK N   1      -5.894   2.698   0.051  0.00  0.00     0.012 A 
HETATM   21  C   UNK N   1      -7.114   2.988  -0.558  0.00  0.00     0.001 A 
HETATM   22  C   UNK N   1      -7.238   4.124  -1.359  0.00  0.00     0.000 A 
HETATM   23  C   UNK N   1      -6.141   4.970  -1.549  0.00  0.00     0.001 A 
HETATM   24  C   UNK N   1      -4.915   4.679  -0.940  0.00  0.00     0.012 A 
ENDBRANCH  16  19
ENDBRANCH  11  13
ENDBRANCH  10  11
ENDBRANCH   9  10
BRANCH   8  25
HETATM   25  O   UNK N   1       2.704   0.387   0.174  0.00  0.00    -0.315 OA
BRANCH  25  26
HETATM   26  C   UNK N   1       3.750  -0.158   0.863  0.00  0.00     0.270 C 
HETATM   27  O   UNK N   1       3.733  -0.115   2.080  0.00  0.00    -0.264 OA
BRANCH  26  28
HETATM   28  C   UNK N   1       4.894  -0.862   0.155  0.00  0.00     0.142 C 
BRANCH  28  29
HETATM   29  C   UNK N   1       6.205  -0.338   0.749  0.00  0.00     0.183 C 
BRANCH  29  30
HETATM   30  O   UNK N   1       7.314  -0.816   0.050  0.00  0.00    -0.400 OA
HETATM   31  H   UNK N   1       7.412  -1.649  -0.435  0.00  0.00     0.209 HD
ENDBRANCH  29  30
ENDBRANCH  28  29
BRANCH  28  32
HETATM   32  C   UNK N   1       4.798  -2.380   0.209  0.00  0.00    -0.043 A 
HETATM   33  C   UNK N   1       5.695  -3.148  -0.550  0.00  0.00     0.008 A 
HETATM   34  C   UNK N   1       5.579  -4.539  -0.596  0.00  0.00     0.001 A 
HETATM   35  C   UNK N   1       4.558  -5.180   0.110  0.00  0.00     0.000 A 
HETATM   36  C   UNK N   1       3.661  -4.429   0.873  0.00  0.00     0.001 A 
HETATM   37  C   UNK N   1       3.780  -3.038   0.924  0.00  0.00     0.008 A 
ENDBRANCH  28  32
ENDBRANCH  26  28
ENDBRANCH  25  26
ENDBRANCH   8  25
TORSDOF 10
