REMARK  7 active torsions:
REMARK  status: ('A' for Active; 'I' for Inactive)
REMARK    1  A    between atoms: C_13  and  C_9 
REMARK    2  A    between atoms: C_14  and  C_9 
REMARK    3  A    between atoms: C_12  and  C_10 
REMARK    4  A    between atoms: N_22  and  C_10 
REMARK    5  A    between atoms: C_14  and  O_24 
REMARK    6  A    between atoms: C_15  and  N_20 
REMARK    7  A    between atoms: C_19  and  C_16 
ROOT
HETATM    1  C   UNK N   1       3.443   1.095   1.381  0.00  0.00     0.113 C 
HETATM    2  C   UNK N   1       3.614   2.447   0.757  0.00  0.00    -0.024 C 
HETATM    3  C   UNK N   1       0.343   0.691   1.001  0.00  0.00     0.199 C 
HETATM    4  C   UNK N   1       2.553   2.993   0.093  0.00  0.00     0.101 C 
HETATM    5  C   UNK N   1       0.408   2.167   0.789  0.00  0.00     0.230 C 
HETATM    6  C   UNK N   1       1.387   0.732  -0.203  0.00  0.00     0.164 C 
HETATM    7  N   UNK N   1       1.387   2.176  -0.095  0.00  0.00    -0.195 NA
HETATM    8  O   UNK N   1       0.126   3.074   1.563  0.00  0.00    -0.277 OA
HETATM    9  S   UNK N   1       2.980  -0.100   0.114  0.00  0.00    -0.141 SA
ENDROOT
BRANCH   3  10
HETATM   10  N   UNK N   1      -0.867  -0.050   0.730  0.00  0.00    -0.359 N 
HETATM   11  C   UNK N   1      -0.811  -1.327   0.517  0.00  0.00     0.116 C 
ATOM     12  HN  UNK N   1      -1.766   0.432   0.707  1.00  0.00     0.162 HD
BRANCH  11  13
HETATM   13  C   UNK N   1      -2.050  -2.165   0.458  0.00  0.00     0.129 C 
BRANCH  13  14
HETATM   14  C   UNK N   1      -3.217  -1.623  -0.294  0.00  0.00    -0.010 A 
HETATM   15  C   UNK N   1      -4.440  -2.276  -0.396  0.00  0.00     0.015 A 
HETATM   16  C   UNK N   1      -5.410  -1.526  -1.116  0.00  0.00     0.008 A 
HETATM   17  C   UNK N   1      -4.948  -0.283  -1.573  0.00  0.00     0.050 A 
HETATM   18  S   UNK N   1      -3.370  -0.172  -1.074  0.00  0.00    -0.106 SA
ENDBRANCH  13  14
ENDBRANCH  11  13
BRANCH  11  19
HETATM   19  O   UNK N   1       0.380  -1.961   0.451  0.00  0.00    -0.349 OA
HETATM   20  H   UNK N   1       0.413  -2.896   0.406  0.00  0.00     0.219 HD
ENDBRANCH  11  19
ENDBRANCH   3  10
BRANCH   4  21
HETATM   21  C   UNK N   1       2.559   4.386  -0.439  0.00  0.00     0.222 C 
HETATM   22  O   UNK N   1       1.581   4.807  -1.035  0.00  0.00    -0.643 OA
HETATM   23  O   UNK N   1       3.611   5.205  -0.245  0.00  0.00    -0.643 OA
ENDBRANCH   4  21
BRANCH   2  24
HETATM   24  C   UNK N   1       4.948   3.124   0.969  0.00  0.00     0.164 C 
BRANCH  24  25
HETATM   25  N   UNK N   1       6.060   2.393   0.337  0.00  0.00    -0.362 N 
HETATM   26  C   UNK N   1       7.081   3.107  -0.212  0.00  0.00     0.090 A 
HETATM   27  C   UNK N   1       8.169   2.453  -0.803  0.00  0.00     0.017 A 
HETATM   28  C   UNK N   1       8.199   1.058  -0.835  0.00  0.00     0.003 A 
HETATM   29  C   UNK N   1       7.156   0.336  -0.266  0.00  0.00     0.017 A 
HETATM   30  C   UNK N   1       6.100   1.024   0.328  0.00  0.00     0.090 A 
ENDBRANCH  24  25
ENDBRANCH   2  24
TORSDOF 7
