REMARK  6 active torsions:
REMARK  status: ('A' for Active; 'I' for Inactive)
REMARK    1  A    between atoms: C_14  and  C_13 
REMARK    2  A    between atoms: N_20  and  C_13 
REMARK    3  A    between atoms: O_21  and  C_14 
REMARK    4  A    between atoms: C_18  and  C_15 
REMARK    5  A    between atoms: C_18  and  C_16 
REMARK    6  A    between atoms: O_21  and  C_18 
ROOT
HETATM    1  C   UNK N   1       0.690   4.990   1.575  0.00  0.00     0.057 C 
HETATM    2  C   UNK N   1       0.200   4.538   0.198  0.00  0.00     0.111 C 
ENDROOT
BRANCH   2   3
HETATM    3  C   UNK N   1       0.190   3.007   0.065  0.00  0.00    -0.020 A 
HETATM    4  C   UNK N   1       0.598   2.177   1.127  0.00  0.00     0.010 A 
HETATM    5  C   UNK N   1       0.561   0.787   0.993  0.00  0.00     0.001 A 
HETATM    6  C   UNK N   1       0.116   0.210  -0.198  0.00  0.00     0.000 A 
HETATM    7  C   UNK N   1      -0.294   1.023  -1.258  0.00  0.00     0.001 A 
HETATM    8  C   UNK N   1      -0.260   2.412  -1.126  0.00  0.00     0.010 A 
ENDBRANCH   2   3
BRANCH   2   9
HETATM    9  C   UNK N   1      -1.246   4.981   0.045  0.00  0.00    -0.019 A 
HETATM   10  C   UNK N   1      -1.641   5.821  -1.008  0.00  0.00     0.012 A 
HETATM   11  C   UNK N   1      -2.987   6.158  -1.178  0.00  0.00     0.024 A 
HETATM   12  C   UNK N   1      -3.950   5.657  -0.297  0.00  0.00     0.034 A 
HETATM   13  C   UNK N   1      -3.568   4.831   0.760  0.00  0.00     0.024 A 
HETATM   14 Cl   UNK N   1      -5.639   6.053  -0.529  0.00  0.00    -0.084 Cl
HETATM   15  C   UNK N   1      -2.225   4.492   0.932  0.00  0.00     0.012 A 
ENDBRANCH   2   9
BRANCH   2  16
HETATM   16  O   UNK N   1       1.001   5.221  -0.776  0.00  0.00    -0.369 OA
BRANCH  16  17
HETATM   17  C   UNK N   1       2.030   4.430  -1.331  0.00  0.00     0.200 C 
BRANCH  17  18
HETATM   18  C   UNK N   1       3.264   4.386  -0.439  0.00  0.00     0.297 C 
BRANCH  18  19
HETATM   19  N   UNK N   1       3.436   3.047   0.109  0.00  0.00     0.082 N 
HETATM   20  C   UNK N   1       4.441   3.129   1.152  0.00  0.00     0.309 C 
HETATM   21  C   UNK N   1       3.974   2.185  -0.932  0.00  0.00     0.309 C 
ENDBRANCH  18  19
ENDBRANCH  17  18
ENDBRANCH  16  17
ENDBRANCH   2  16
TORSDOF 6
