REMARK  4 active torsions:
REMARK  status: ('A' for Active; 'I' for Inactive)
REMARK    1  A    between atoms: N_2  and  N_1 
REMARK    2  A    between atoms: C_5  and  N_1 
REMARK    3  A    between atoms: C_3  and  C_5 
REMARK    4  A    between atoms: C_4  and  C_3 
ROOT
HETATM    1  C   UNK N   1       0.623   1.210  -0.148  0.00  0.00     0.064 C 
ENDROOT
BRANCH   1   2
HETATM    2  C   UNK N   1       1.846   0.399   0.285  0.00  0.00     0.099 C 
HETATM    3  C   UNK N   1       3.066   1.294   0.150  0.00  0.00     0.034 C 
BRANCH   2   4
HETATM    4  N   UNK N   1       2.018  -0.781  -0.549  0.00  0.00    -0.338 N 
HETATM    5  H   UNK N   1       1.573  -0.957  -1.450  0.00  0.00     0.180 HD
BRANCH   4   6
HETATM    6  N   UNK N   1       2.911  -1.634   0.123  0.00  0.00    -0.349 N 
HETATM    7  H   UNK N   1       2.699  -2.505   0.610  0.00  0.00     0.176 HD
HETATM    8  H   UNK N   1       3.890  -1.347   0.123  0.00  0.00     0.176 HD
ENDBRANCH   4   6
ENDBRANCH   2   4
ENDBRANCH   1   2
BRANCH   1   9
HETATM    9  C   UNK N   1      -0.716   0.532  -0.044  0.00  0.00    -0.056 A 
HETATM   10  C   UNK N   1      -0.847  -0.860   0.088  0.00  0.00     0.007 A 
HETATM   11  C   UNK N   1      -2.114  -1.447   0.152  0.00  0.00     0.001 A 
HETATM   12  C   UNK N   1      -3.259  -0.647   0.090  0.00  0.00     0.000 A 
HETATM   13  C   UNK N   1      -3.135   0.739  -0.037  0.00  0.00     0.001 A 
HETATM   14  C   UNK N   1      -1.868   1.324  -0.109  0.00  0.00     0.007 A 
ENDBRANCH   1   9
TORSDOF 4
