REMARK  6 active torsions:
REMARK  status: ('A' for Active; 'I' for Inactive)
REMARK    1  A    between atoms: C_12  and  C_9 
REMARK    2  A    between atoms: C_14  and  C_9 
REMARK    3  A    between atoms: C_11  and  C_10 
REMARK    4  A    between atoms: N_16  and  C_10 
REMARK    5  A    between atoms: C_14  and  C_11 
REMARK    6  A    between atoms: O_17  and  C_14 
ROOT
HETATM    1  C   UNK N   1       0.286  -2.267  -1.485  0.00  0.00     0.046 C 
HETATM    2  C   UNK N   1       0.594  -2.561  -0.019  0.00  0.00     0.063 C 
ENDROOT
BRANCH   2   3
HETATM    3  C   UNK N   1       1.584  -1.537   0.567  0.00  0.00     0.076 C 
BRANCH   3   4
HETATM    4  C   UNK N   1       1.427  -0.073   0.281  0.00  0.00    -0.055 A 
HETATM    5  C   UNK N   1       2.495   0.608  -0.315  0.00  0.00     0.009 A 
HETATM    6  C   UNK N   1       2.427   1.988  -0.521  0.00  0.00     0.024 A 
HETATM    7  C   UNK N   1       1.291   2.698  -0.126  0.00  0.00     0.034 A 
HETATM    8  C   UNK N   1       0.222   2.024   0.474  0.00  0.00     0.024 A 
HETATM    9 Cl   UNK N   1       1.214   4.429  -0.368  0.00  0.00    -0.084 Cl
HETATM   10  C   UNK N   1       0.295   0.644   0.686  0.00  0.00     0.009 A 
ENDBRANCH   3   4
ENDBRANCH   2   3
BRANCH   2  11
HETATM   11  C   UNK N   1      -0.691  -2.663   0.845  0.00  0.00     0.044 C 
HETATM   12  C   UNK N   1      -1.704  -1.547   0.626  0.00  0.00     0.015 C 
BRANCH  11  13
HETATM   13  C   UNK N   1      -1.381  -4.034   0.834  0.00  0.00     0.278 C 
BRANCH  13  14
HETATM   14  N   UNK N   1      -1.857  -4.410  -0.487  0.00  0.00     0.080 N 
HETATM   15  C   UNK N   1      -1.523  -5.812  -0.664  0.00  0.00     0.309 C 
HETATM   16  C   UNK N   1      -3.307  -4.332  -0.457  0.00  0.00     0.309 C 
ENDBRANCH  13  14
ENDBRANCH  11  13
ENDBRANCH   2  11
BRANCH   2  17
HETATM   17  O   UNK N   1       1.254  -3.789   0.033  0.00  0.00    -0.390 OA
HETATM   18  H   UNK N   1       0.745  -4.613   0.069  0.00  0.00     0.210 HD
ENDBRANCH   2  17
TORSDOF 6
