REMARK  9 active torsions:
REMARK  status: ('A' for Active; 'I' for Inactive)
REMARK    1  A    between atoms: C_11  and  C_10 
REMARK    2  A    between atoms: N_23  and  C_10 
REMARK    3  A    between atoms: O_25  and  C_11 
REMARK    4  A    between atoms: C_14  and  C_12 
REMARK    5  A    between atoms: C_15  and  C_12 
REMARK    6  A    between atoms: N_23  and  C_14 
REMARK    7  A    between atoms: C_18  and  C_16 
REMARK    8  A    between atoms: C_19  and  C_17 
REMARK    9  A    between atoms: O_25  and  C_18 
ROOT
HETATM    1  C   UNK N   1       7.930  -2.143  -2.039  0.00  0.00     0.032 C 
HETATM    2  C   UNK N   1       7.812  -3.608  -1.614  0.00  0.00     0.076 C 
ENDROOT
BRANCH   2   3
HETATM    3  C   UNK N   1       8.412  -3.923  -0.242  0.00  0.00     0.062 C 
BRANCH   3   4
HETATM    4  C   UNK N   1       9.804  -3.431  -0.034  0.00  0.00    -0.056 A 
HETATM    5  C   UNK N   1      10.047  -2.068   0.170  0.00  0.00     0.007 A 
HETATM    6  C   UNK N   1      11.343  -1.620   0.430  0.00  0.00     0.001 A 
HETATM    7  C   UNK N   1      12.397  -2.534   0.501  0.00  0.00     0.016 A 
HETATM    8  C   UNK N   1      12.160  -3.902   0.304  0.00  0.00     0.048 A 
HETATM    9  C   UNK N   1      10.857  -4.346   0.040  0.00  0.00     0.023 A 
BRANCH   8  10
HETATM   10  C   UNK N   1      13.299  -4.874   0.390  0.00  0.00     0.417 C 
HETATM   11  F   UNK N   1      13.842  -4.832   1.661  0.00  0.00    -0.166 F 
HETATM   12  F   UNK N   1      12.875  -6.166   0.129  0.00  0.00    -0.166 F 
HETATM   13  F   UNK N   1      14.271  -4.530  -0.531  0.00  0.00    -0.166 F 
ENDBRANCH   8  10
ENDBRANCH   3   4
ENDBRANCH   2   3
BRANCH   2  14
HETATM   14  N   UNK N   1       6.427  -4.087  -1.675  0.00  0.00    -0.415 N 
HETATM   15  H   UNK N   1       6.137  -4.943  -2.148  0.00  0.00     0.153 HD
BRANCH  14  16
HETATM   16  C   UNK N   1       5.513  -3.182  -0.973  0.00  0.00     0.141 C 
BRANCH  16  17
HETATM   17  C   UNK N   1       5.570  -3.363   0.546  0.00  0.00     0.198 C 
BRANCH  17  18
HETATM   18  O   UNK N   1       5.056  -4.585   0.919  0.00  0.00    -0.316 OA
BRANCH  18  19
HETATM   19  C   UNK N   1       3.758  -4.977   0.770  0.00  0.00     0.293 C 
HETATM   20  O   UNK N   1       3.494  -6.158   0.920  0.00  0.00    -0.259 OA
BRANCH  19  21
HETATM   21  C   UNK N   1       2.655  -4.034   0.404  0.00  0.00     0.039 A 
HETATM   22  C   UNK N   1       1.407  -4.553   0.024  0.00  0.00     0.017 A 
HETATM   23  C   UNK N   1       0.367  -3.698  -0.349  0.00  0.00     0.001 A 
HETATM   24  C   UNK N   1       0.557  -2.314  -0.332  0.00  0.00     0.000 A 
HETATM   25  C   UNK N   1       1.787  -1.785   0.062  0.00  0.00     0.001 A 
HETATM   26  C   UNK N   1       2.828  -2.641   0.425  0.00  0.00     0.017 A 
ENDBRANCH  19  21
ENDBRANCH  18  19
ENDBRANCH  17  18
ENDBRANCH  16  17
ENDBRANCH  14  16
ENDBRANCH   2  14
TORSDOF 9
