REMARK  7 active torsions:
REMARK  status: ('A' for Active; 'I' for Inactive)
REMARK    1  A    between atoms: C_2  and  C_3 
REMARK    2  A    between atoms: C_3  and  C_4 
REMARK    3  A    between atoms: C_4  and  C_5 
REMARK    4  A    between atoms: C_5  and  C_6 
REMARK    5  A    between atoms: C_6  and  C_7 
REMARK    6  A    between atoms: C_7  and  N_9 
REMARK    7  A    between atoms: N_9  and  N_10 
ROOT
HETATM    1  C   UNK N   1       8.121   2.403   0.222  0.00  0.00     0.094 C 
HETATM    2  C   UNK N   1       8.121   3.805  -0.377  0.00  0.00     0.033 C 
ENDROOT
BRANCH   1   3
HETATM    3  C   UNK N   1       6.846   1.662  -0.166  0.00  0.00     0.026 C 
BRANCH   3   4
HETATM    4  C   UNK N   1       5.615   2.386   0.352  0.00  0.00     0.002 C 
BRANCH   4   5
HETATM    5  C   UNK N   1       4.357   1.666  -0.086  0.00  0.00     0.000 C 
BRANCH   5   6
HETATM    6  C   UNK N   1       3.176   2.592   0.115  0.00  0.00    -0.000 C 
BRANCH   6   7
HETATM    7  C   UNK N   1       1.881   1.841  -0.105  0.00  0.00    -0.005 C 
HETATM    8  C   UNK N   1       0.720   2.806   0.016  0.00  0.00     0.005 C 
ENDBRANCH   6   7
ENDBRANCH   5   6
ENDBRANCH   4   5
ENDBRANCH   3   4
ENDBRANCH   1   3
BRANCH   1   9
HETATM    9  N   UNK N   1       9.269   1.655  -0.269  0.00  0.00    -0.339 N 
HETATM   10  H   UNK N   1       9.241   0.862  -0.910  0.00  0.00     0.180 HD
BRANCH   9  11
HETATM   11  N   UNK N   1      10.424   2.220   0.299  0.00  0.00    -0.349 N 
HETATM   12  H   UNK N   1      11.198   1.700   0.710  0.00  0.00     0.176 HD
HETATM   13  H   UNK N   1      10.494   3.238   0.299  0.00  0.00     0.176 HD
ENDBRANCH   9  11
ENDBRANCH   1   9
TORSDOF 7
