REMARK  5 active torsions:
REMARK  status: ('A' for Active; 'I' for Inactive)
REMARK    1  A    between atoms: C_5  and  O_7 
REMARK    2  A    between atoms: O_7  and  C_8 
REMARK    3  A    between atoms: C_8  and  C_9 
REMARK       I    between atoms: C_9  and  N_10 
REMARK    4  A    between atoms: N_10  and  N_11 
REMARK    5  A    between atoms: N_11  and  C_12 
ROOT
HETATM    1  C   UNK N   1      -0.365   1.531  -0.128  0.00  0.00     0.280 C 
ENDROOT
BRANCH   1   2
HETATM    2  O   UNK N   1      -0.563   0.168  -0.075  0.00  0.00    -0.342 OA
BRANCH   2   3
HETATM    3  C   UNK N   1      -1.759  -0.453  -0.050  0.00  0.00     0.069 A 
HETATM    4  C   UNK N   1      -1.774  -1.850  -0.015  0.00  0.00     0.038 A 
HETATM    5  C   UNK N   1      -2.983  -2.543   0.012  0.00  0.00     0.026 A 
HETATM    6  C   UNK N   1      -4.189  -1.841   0.005  0.00  0.00     0.034 A 
HETATM    7  C   UNK N   1      -4.186  -0.442  -0.026  0.00  0.00     0.026 A 
HETATM    8 Cl   UNK N   1      -5.701  -2.720   0.030  0.00  0.00    -0.084 Cl
HETATM    9  C   UNK N   1      -2.972   0.255  -0.053  0.00  0.00     0.038 A 
ENDBRANCH   2   3
ENDBRANCH   1   2
BRANCH   1  10
HETATM   10  C   UNK N   1       1.100   1.800   0.036  0.00  0.00     0.260 C 
HETATM   11  N   UNK N   1       1.949   0.765   0.239  0.00  0.00    -0.272 N 
HETATM   12  H   UNK N   1       1.586  -0.150   0.257  0.00  0.00     0.189 HD
HETATM   13  O   UNK N   1       1.516   2.950   0.010  0.00  0.00    -0.269 OA
BRANCH  11  14
HETATM   14  N   UNK N   1       3.312   0.947   0.421  0.00  0.00    -0.330 N 
HETATM   15  H   UNK N   1       3.752   1.670   0.992  0.00  0.00     0.180 HD
BRANCH  14  16
HETATM   16  C   UNK N   1       4.004  -0.079  -0.351  0.00  0.00     0.091 C 
HETATM   17  C   UNK N   1       5.497   0.132  -0.227  0.00  0.00     0.033 C 
HETATM   18  C   UNK N   1       3.671  -1.470   0.171  0.00  0.00     0.033 C 
ENDBRANCH  14  16
ENDBRANCH  11  14
ENDBRANCH   1  10
TORSDOF 5
