REMARK  6 active torsions:
REMARK  status: ('A' for Active; 'I' for Inactive)
REMARK    1  A    between atoms: C_10  and  S_2 
REMARK    2  A    between atoms: C_8  and  O_4 
REMARK    3  A    between atoms: C_9  and  O_5 
REMARK    4  A    between atoms: C_11  and  O_6 
REMARK    5  A    between atoms: O_7  and  C_13 
REMARK    6  A    between atoms: C_12  and  C_13 
ROOT
HETATM    1  O   UNK N   1      -0.031   1.908   0.452  0.00  0.00    -0.362 OA
HETATM    2  C   UNK N   1       1.239  -0.130   0.423  0.00  0.00     0.189 C 
HETATM    3  C   UNK N   1       0.017  -0.888  -0.084  0.00  0.00     0.181 C 
HETATM    4  C   UNK N   1       1.146   1.322  -0.059  0.00  0.00     0.225 C 
HETATM    5  C   UNK N   1      -1.264  -0.147   0.291  0.00  0.00     0.180 C 
HETATM    6  C   UNK N   1      -1.131   1.310  -0.189  0.00  0.00     0.178 C 
ENDROOT
BRANCH   6   7
HETATM    7  C   UNK N   1      -2.376   2.123   0.152  0.00  0.00     0.198 C 
BRANCH   7   8
HETATM    8  O   UNK N   1      -3.464   1.715  -0.620  0.00  0.00    -0.398 OA
HETATM    9  H   UNK N   1      -4.088   2.228  -1.157  0.00  0.00     0.209 HD
ENDBRANCH   7   8
ENDBRANCH   6   7
BRANCH   5  10
HETATM   10  O   UNK N   1      -2.351  -0.778  -0.314  0.00  0.00    -0.390 OA
HETATM   11  H   UNK N   1      -3.109  -0.342  -0.734  0.00  0.00     0.210 HD
ENDBRANCH   5  10
BRANCH   4  12
HETATM   12  S   UNK N   1       2.568   2.273   0.559  0.00  0.00    -0.060 SA
HETATM   13 Au   UNK N   1       4.025   1.351  -0.977  0.00  0.00     0.000 Au
ENDBRANCH   4  12
BRANCH   3  14
HETATM   14  O   UNK N   1      -0.001  -2.180   0.446  0.00  0.00    -0.390 OA
HETATM   15  H   UNK N   1      -0.784  -2.618   0.814  0.00  0.00     0.210 HD
ENDBRANCH   3  14
BRANCH   2  16
HETATM   16  O   UNK N   1       2.395  -0.734  -0.080  0.00  0.00    -0.389 OA
HETATM   17  H   UNK N   1       2.433  -1.638  -0.428  0.00  0.00     0.210 HD
ENDBRANCH   2  16
TORSDOF 6
