REMARK  6 active torsions:
REMARK  status: ('A' for Active; 'I' for Inactive)
REMARK    1  A    between atoms: C_4  and  C_7 
REMARK    2  A    between atoms: C_7  and  O_8 
REMARK    3  A    between atoms: O_8  and  C_9 
REMARK    4  A    between atoms: C_9  and  C_10 
REMARK    5  A    between atoms: C_9  and  C_14 
REMARK    6  A    between atoms: C_10  and  N_11 
ROOT
HETATM    1  O   UNK N   1      27.432 -18.863  -0.870  0.00  0.00    -0.305 OA
ENDROOT
BRANCH   1   2
HETATM    2  C   UNK N   1      26.151 -19.254  -0.635  0.00  0.00     0.294 C 
HETATM    3  O   UNK N   1      25.890 -20.440  -0.507  0.00  0.00    -0.259 OA
BRANCH   2   4
HETATM    4  C   UNK N   1      25.085 -18.243  -0.544  0.00  0.00     0.039 A 
HETATM    5  C   UNK N   1      23.752 -18.630  -0.340  0.00  0.00     0.017 A 
HETATM    6  C   UNK N   1      22.749 -17.662  -0.233  0.00  0.00     0.001 A 
HETATM    7  C   UNK N   1      23.074 -16.306  -0.320  0.00  0.00     0.000 A 
HETATM    8  C   UNK N   1      24.401 -15.915  -0.520  0.00  0.00     0.001 A 
HETATM    9  C   UNK N   1      25.403 -16.882  -0.633  0.00  0.00     0.017 A 
ENDBRANCH   2   4
ENDBRANCH   1   2
BRANCH   1  10
HETATM   10  C   UNK N   1      28.432 -18.867   0.090  0.00  0.00     0.093 C 
HETATM   11  C   UNK N   1      28.090 -17.851   1.174  0.00  0.00     0.048 C 
BRANCH  10  12
HETATM   12  C   UNK N   1      29.736 -18.432  -0.591  0.00  0.00     0.309 C 
BRANCH  12  13
HETATM   13  N   UNK N   1      30.855 -18.389   0.342  0.00  0.00     0.082 N 
HETATM   14  C   UNK N   1      31.655 -17.228  -0.005  0.00  0.00     0.309 C 
HETATM   15  C   UNK N   1      31.681 -19.555   0.084  0.00  0.00     0.309 C 
ENDBRANCH  12  13
ENDBRANCH  10  12
BRANCH  10  16
HETATM   16  C   UNK N   1      28.581 -20.247   0.749  0.00  0.00     0.035 C 
HETATM   17  C   UNK N   1      28.845 -21.352  -0.262  0.00  0.00     0.008 C 
ENDBRANCH  10  16
ENDBRANCH   1  10
TORSDOF 6
