REMARK  4 active torsions:
REMARK  status: ('A' for Active; 'I' for Inactive)
REMARK    1  A    between atoms: N_25  and  C_13 
REMARK    2  A    between atoms: C_20  and  C_15 
REMARK    3  A    between atoms: N_24  and  C_18 
REMARK    4  A    between atoms: O_28  and  C_20 
ROOT
HETATM    1  C   UNK N   1       0.997   3.658   0.017  0.00  0.00     0.062 A 
HETATM    2  C   UNK N   1       0.941   0.895  -0.126  0.00  0.00     0.063 A 
HETATM    3  C   UNK N   1       4.556   1.471   0.031  0.00  0.00     0.120 A 
HETATM    4  C   UNK N   1       2.206   2.941   0.022  0.00  0.00     0.045 A 
HETATM    5  C   UNK N   1       4.631   2.868   0.057  0.00  0.00     0.104 A 
HETATM    6  C   UNK N   1      -0.235   2.996  -0.068  0.00  0.00     0.143 A 
HETATM    7  C   UNK N   1       2.184   1.526  -0.030  0.00  0.00     0.055 A 
HETATM    8  C   UNK N   1      -0.268   1.588  -0.163  0.00  0.00     0.071 A 
HETATM    9  C   UNK N   1       3.437   3.611   0.066  0.00  0.00     0.202 A 
HETATM   10  F   UNK N   1      -1.370   3.736  -0.093  0.00  0.00    -0.204 F 
HETATM   11  N   UNK N   1       3.363   0.799  -0.007  0.00  0.00    -0.320 N 
HETATM   12  O   UNK N   1       3.466   4.832   0.097  0.00  0.00    -0.286 OA
ENDROOT
BRANCH   8  13
HETATM   13  N   UNK N   1      -1.481   0.841  -0.339  0.00  0.00    -0.375 N 
HETATM   14  C   UNK N   1      -1.424  -0.589  -0.573  0.00  0.00     0.142 C 
HETATM   15  C   UNK N   1      -2.388  -1.288   0.376  0.00  0.00     0.133 C 
HETATM   16  N   UNK N   1      -3.731  -0.736   0.194  0.00  0.00    -0.418 N 
HETATM   17  C   UNK N   1      -3.715   0.679   0.576  0.00  0.00     0.133 C 
HETATM   18  H   UNK N   1      -4.544  -1.251  -0.142  0.00  0.00     0.153 HD
HETATM   19  C   UNK N   1      -2.786   1.464  -0.352  0.00  0.00     0.142 C 
ENDBRANCH   8  13
BRANCH  11  20
HETATM   20  C   UNK N   1       3.420  -0.668  -0.018  0.00  0.00     0.039 A 
HETATM   21  C   UNK N   1       4.663  -1.334  -0.030  0.00  0.00     0.033 A 
HETATM   22  C   UNK N   1       4.730  -2.732  -0.025  0.00  0.00     0.044 A 
HETATM   23  C   UNK N   1       3.558  -3.491  -0.004  0.00  0.00     0.116 A 
HETATM   24  C   UNK N   1       2.320  -2.854   0.013  0.00  0.00     0.044 A 
HETATM   25  F   UNK N   1       3.619  -4.843   0.001  0.00  0.00    -0.206 F 
HETATM   26  C   UNK N   1       2.256  -1.462   0.007  0.00  0.00     0.033 A 
ENDBRANCH  11  20
BRANCH   5  27
HETATM   27  C   UNK N   1       5.975   3.505   0.067  0.00  0.00     0.181 C 
HETATM   28  O   UNK N   1       6.093   4.721   0.078  0.00  0.00    -0.646 OA
BRANCH  27  29
HETATM   29  O   UNK N   1       7.083   2.738   0.048  0.00  0.00    -0.772 OA
HETATM   30  H   UNK N   1       7.007   1.804   0.035  0.00  0.00     0.167 HD
ENDBRANCH  27  29
ENDBRANCH   5  27
TORSDOF 4
