REMARK  6 active torsions:
REMARK  status: ('A' for Active; 'I' for Inactive)
REMARK    1  A    between atoms: C_5  and  C_2 
REMARK    2  A    between atoms: O_15  and  C_5 
REMARK    3  A    between atoms: C_8  and  C_7 
REMARK    4  A    between atoms: C_11  and  C_7 
REMARK    5  A    between atoms: O_15  and  C_10 
REMARK    6  A    between atoms: O_14  and  C_11 
ROOT
HETATM    1  C   UNK N   1       2.423  -0.273   0.090  0.00  0.00     0.010 A 
HETATM    2  C   UNK N   1       2.397   1.124   0.044  0.00  0.00     0.039 A 
HETATM    3  C   UNK N   1       0.017  -0.314   0.034  0.00  0.00     0.034 A 
HETATM    4  C   UNK N   1       1.231  -1.002   0.075  0.00  0.00    -0.046 A 
HETATM    5  C   UNK N   1      -0.031   1.077  -0.015  0.00  0.00     0.068 A 
HETATM    6  C   UNK N   1       1.182   1.821  -0.027  0.00  0.00     0.090 A 
HETATM    7 Cl   UNK N   1      -1.635   1.799  -0.032  0.00  0.00    -0.081 Cl
ENDROOT
BRANCH   4   8
HETATM    8  C   UNK N   1       1.300  -2.509   0.088  0.00  0.00     0.148 C 
BRANCH   8   9
HETATM    9  C   UNK N   1       0.010  -3.300   0.033  0.00  0.00     0.143 C 
HETATM   10  O   UNK N   1       0.065  -4.516   0.002  0.00  0.00    -0.650 OA
BRANCH   9  11
HETATM   11  O   UNK N   1      -1.197  -2.698   0.017  0.00  0.00    -0.776 OA
HETATM   12  H   UNK N   1      -1.254  -1.763   0.006  0.00  0.00     0.167 HD
ENDBRANCH   9  11
ENDBRANCH   8   9
ENDBRANCH   4   8
BRANCH   6  13
HETATM   13  O   UNK N   1       1.238   3.177  -0.112  0.00  0.00    -0.346 OA
BRANCH  13  14
HETATM   14  C   UNK N   1       0.236   3.968  -0.626  0.00  0.00     0.202 C 
BRANCH  14  15
HETATM   15  C   UNK N   1      -0.295   4.888   0.417  0.00  0.00    -0.011 C 
HETATM   16  C   UNK N   1      -1.372   5.623   0.154  0.00  0.00     0.009 C 
ENDBRANCH  14  15
ENDBRANCH  13  14
ENDBRANCH   6  13
TORSDOF 6
