REMARK  3 active torsions:
REMARK  status: ('A' for Active; 'I' for Inactive)
REMARK    1  A    between atoms: N_1  and  C_8 
REMARK    2  A    between atoms: C_8  and  C_9 
REMARK    3  A    between atoms: C_8  and  C_10 
ROOT
HETATM    1  N   UNK N   1       3.840  -5.364  -0.085  0.00  0.00    -0.191 NA
HETATM    2  C   UNK N   1       3.231  -0.122   0.136  0.00  0.00    -0.029 A 
HETATM    3  C   UNK N   1       2.059  -0.827  -0.165  0.00  0.00     0.011 A 
HETATM    4  C   UNK N   1       4.406  -0.827   0.323  0.00  0.00     0.011 A 
HETATM    5  C   UNK N   1       2.115  -2.223  -0.263  0.00  0.00     0.023 A 
HETATM    6  C   UNK N   1       4.483  -2.160   0.206  0.00  0.00     0.023 A 
HETATM    7  C   UNK N   1       3.354  -2.865  -0.077  0.00  0.00     0.044 A 
HETATM    8  C   UNK N   1       3.547  -4.251  -0.097  0.00  0.00     0.099 C 
ENDROOT
BRANCH   2   9
HETATM    9  C   UNK N   1       3.313   1.368   0.227  0.00  0.00     0.175 C 
BRANCH   9  10
HETATM   10  N   UNK N   1       2.093   2.170   0.100  0.00  0.00    -0.273 N 
HETATM   11  N   UNK N   1       2.061   3.487   0.047  0.00  0.00    -0.292 N 
HETATM   12  C   UNK N   1       0.771   3.843  -0.052  0.00  0.00     0.198 A 
ATOM     13  HN  UNK N   1       2.863   4.116   0.075  1.00  0.00     0.188 HD
HETATM   14  N   UNK N   1      -0.021   2.751  -0.054  0.00  0.00    -0.346 N 
HETATM   15  C   UNK N   1       0.832   1.718   0.047  0.00  0.00     0.202 A 
ATOM     16  HN  UNK N   1      -1.038   2.718  -0.118  1.00  0.00     0.167 HD
ENDBRANCH   9  10
BRANCH   9  17
HETATM   17  C   UNK N   1       4.661   2.036   0.055  0.00  0.00    -0.029 A 
HETATM   18  C   UNK N   1       5.855   1.288   0.090  0.00  0.00     0.011 A 
HETATM   19  C   UNK N   1       7.087   1.874  -0.001  0.00  0.00     0.023 A 
HETATM   20  C   UNK N   1       7.140   3.245  -0.133  0.00  0.00     0.044 A 
HETATM   21  C   UNK N   1       5.982   4.012  -0.210  0.00  0.00     0.023 A 
HETATM   22  C   UNK N   1       8.382   3.897  -0.128  0.00  0.00     0.099 C 
HETATM   23  C   UNK N   1       4.746   3.406  -0.118  0.00  0.00     0.011 A 
HETATM   24  N   UNK N   1       9.384   4.462  -0.128  0.00  0.00    -0.191 NA
ENDBRANCH   9  17
ENDBRANCH   2   9
TORSDOF 3
