REMARK  4 active torsions:
REMARK  status: ('A' for Active; 'I' for Inactive)
REMARK    1  A    between atoms: O_3  and  C_23 
REMARK    2  A    between atoms: N_7  and  C_22 
REMARK    3  A    between atoms: C_8  and  C_9 
REMARK    4  A    between atoms: C_21  and  C_23 
ROOT
HETATM    1  O   UNK N   1       5.144  -1.589  -0.038  0.00  0.00    -0.292 OA
HETATM    2  O   UNK N   1       5.280   2.396  -0.010  0.00  0.00    -0.286 OA
HETATM    3  N   UNK N   1       7.470  -1.727  -0.003  0.00  0.00    -0.322 N 
ATOM      4  HN  UNK N   1       7.399  -2.744  -0.037  1.00  0.00     0.169 HD
HETATM    5  C   UNK N   1       1.578   0.526   0.096  0.00  0.00    -0.054 A 
HETATM    6  C   UNK N   1       4.009   0.506  -0.013  0.00  0.00     0.049 A 
HETATM    7  C   UNK N   1       2.801   1.210   0.033  0.00  0.00     0.026 A 
HETATM    8  C   UNK N   1       4.001  -0.907  -0.016  0.00  0.00     0.092 A 
HETATM    9  C   UNK N   1       1.579  -0.878   0.102  0.00  0.00     0.010 A 
HETATM   10  C   UNK N   1       6.414   0.421  -0.011  0.00  0.00     0.067 A 
HETATM   11  C   UNK N   1       5.238   1.174  -0.022  0.00  0.00     0.199 A 
HETATM   12  C   UNK N   1       2.782  -1.590   0.035  0.00  0.00     0.039 A 
HETATM   13  C   UNK N   1       6.333  -0.985  -0.029  0.00  0.00     0.164 A 
HETATM   14  C   UNK N   1       7.667   1.029   0.055  0.00  0.00     0.042 A 
HETATM   15  C   UNK N   1       8.828   0.257   0.114  0.00  0.00     0.082 A 
HETATM   16  C   UNK N   1       8.706  -1.153   0.068  0.00  0.00     0.117 A 
ENDROOT
BRANCH  15  17
HETATM   17  C   UNK N   1      10.130   0.957   0.254  0.00  0.00     0.179 C 
HETATM   18  O   UNK N   1      11.174   0.333   0.346  0.00  0.00    -0.646 OA
BRANCH  17  19
HETATM   19  O   UNK N   1      10.162   2.304   0.317  0.00  0.00    -0.773 OA
HETATM   20  H   UNK N   1      10.984   2.753   0.361  0.00  0.00     0.167 HD
ENDBRANCH  17  19
ENDBRANCH  15  17
BRANCH  16  21
HETATM   21  N   UNK N   1       9.844  -1.985   0.119  0.00  0.00    -0.385 N 
HETATM   22  H   UNK N   1       9.738  -2.963   0.155  0.00  0.00     0.157 HD
HETATM   23  H   UNK N   1      10.744  -1.586   0.119  0.00  0.00     0.157 HD
ENDBRANCH  16  21
BRANCH   5  24
HETATM   24  C   UNK N   1       0.269   1.272   0.202  0.00  0.00     0.010 C 
HETATM   25  C   UNK N   1      -0.674   0.883  -0.920  0.00  0.00     0.015 C 
HETATM   26  C   UNK N   1       0.430   2.787   0.205  0.00  0.00     0.015 C 
ENDBRANCH   5  24
TORSDOF 4
