REMARK  1 active torsions:
REMARK  status: ('A' for Active; 'I' for Inactive)
REMARK    1  A    between atoms: N_1  and  C_4 
ROOT
HETATM    1  C   UNK N   1       3.409   1.507  -0.427  0.00  0.00    -0.041 C 
HETATM    2  C   UNK N   1       2.049   0.108   1.160  0.00  0.00    -0.041 C 
HETATM    3  C   UNK N   1       2.492  -0.716  -1.176  0.00  0.00     0.025 C 
HETATM    4  C   UNK N   1       4.367  -0.627   0.504  0.00  0.00    -0.011 C 
HETATM    5  C   UNK N   1       2.382   1.540   0.715  0.00  0.00     0.018 C 
HETATM    6  C   UNK N   1       2.823   0.723  -1.613  0.00  0.00     0.039 C 
HETATM    7  C   UNK N   1       1.470  -0.673  -0.030  0.00  0.00     0.039 C 
HETATM    8  C   UNK N   1       4.690   0.809   0.059  0.00  0.00     0.014 C 
HETATM    9  C   UNK N   1       3.335  -0.584   1.644  0.00  0.00     0.014 C 
HETATM   10  C   UNK N   1       3.777  -1.404  -0.685  0.00  0.00     0.035 C 
HETATM   11  C   UNK N   1       3.733   2.923  -0.854  0.00  0.00     0.015 C 
HETATM   12  C   UNK N   1       1.034   0.150   2.282  0.00  0.00     0.015 C 
ENDROOT
BRANCH   3  13
HETATM   13  N   UNK N   1       1.940  -1.454  -2.294  0.00  0.00    -0.421 N 
HETATM   14  H   UNK N   1       1.295  -1.377  -3.080  0.00  0.00     0.150 HD
HETATM   15  H   UNK N   1       2.342  -2.392  -2.294  0.00  0.00     0.150 HD
ENDBRANCH   3  13
TORSDOF 1
