REMARK  5 active torsions:
REMARK  status: ('A' for Active; 'I' for Inactive)
REMARK    1  A    between atoms: O_2  and  C_14 
REMARK    2  A    between atoms: O_4  and  C_26 
REMARK    3  A    between atoms: N_6  and  C_9 
REMARK    4  A    between atoms: N_7  and  C_16 
REMARK    5  A    between atoms: C_21  and  C_26 
ROOT
HETATM    1  F   UNK N   1       2.717   2.179   0.293  0.00  0.00    -0.204 F 
HETATM    2  O   UNK N   1       7.458   3.188   0.196  0.00  0.00    -0.286 OA
HETATM    3  N   UNK N   1       7.397  -0.796  -0.336  0.00  0.00    -0.348 N 
HETATM    4  C   UNK N   1       6.190  -0.120  -0.162  0.00  0.00     0.085 A 
HETATM    5  C   UNK N   1       8.577  -0.105  -0.335  0.00  0.00     0.114 A 
HETATM    6  C   UNK N   1       4.911  -0.782  -0.138  0.00  0.00     0.125 A 
HETATM    7  C   UNK N   1       6.221   1.289   0.010  0.00  0.00     0.048 A 
HETATM    8  C   UNK N   1       3.704  -0.013   0.019  0.00  0.00     0.105 A 
HETATM    9  C   UNK N   1       8.639   1.270  -0.131  0.00  0.00     0.104 A 
HETATM   10  C   UNK N   1       7.442   1.978   0.030  0.00  0.00     0.202 A 
HETATM   11  C   UNK N   1       5.043   2.007   0.172  0.00  0.00     0.062 A 
HETATM   12  C   UNK N   1       3.811   1.387   0.175  0.00  0.00     0.146 A 
ENDROOT
BRANCH   8  13
HETATM   13  N   UNK N   1       2.394  -0.625   0.002  0.00  0.00    -0.373 N 
HETATM   14  C   UNK N   1       1.257   0.052   0.592  0.00  0.00     0.147 C 
HETATM   15  C   UNK N   1       0.161   0.152  -0.460  0.00  0.00     0.090 C 
HETATM   16  N   UNK N   1      -0.259  -1.165  -0.972  0.00  0.00    -0.414 N 
HETATM   17  C   UNK N   1      -1.031   0.894   0.105  0.00  0.00     0.033 C 
HETATM   18  C   UNK N   1       0.661  -2.266  -0.639  0.00  0.00     0.134 C 
HETATM   19  H   UNK N   1      -1.113  -1.302  -1.511  0.00  0.00     0.153 HD
HETATM   20  C   UNK N   1       2.135  -1.848  -0.742  0.00  0.00     0.142 C 
ENDBRANCH   8  13
BRANCH   6  21
HETATM   21  O   UNK N   1       4.861  -2.131  -0.217  0.00  0.00    -0.351 OA
HETATM   22  C   UNK N   1       4.269  -2.895   0.769  0.00  0.00     0.210 C 
ENDBRANCH   6  21
BRANCH   3  23
HETATM   23  C   UNK N   1       7.488  -2.245  -0.599  0.00  0.00     0.090 A 
HETATM   24  C   UNK N   1       8.697  -2.894   0.079  0.00  0.00     0.028 A 
HETATM   25  C   UNK N   1       7.334  -3.032   0.698  0.00  0.00     0.028 A 
ENDBRANCH   3  23
BRANCH   9  26
HETATM   26  C   UNK N   1       9.971   1.929  -0.075  0.00  0.00     0.181 C 
HETATM   27  O   UNK N   1      10.070   3.131   0.118  0.00  0.00    -0.646 OA
BRANCH  26  28
HETATM   28  O   UNK N   1      11.092   1.191  -0.208  0.00  0.00    -0.772 OA
HETATM   29  H   UNK N   1      11.037   0.261  -0.300  0.00  0.00     0.167 HD
ENDBRANCH  26  28
ENDBRANCH   9  26
TORSDOF 5
