REMARK  5 active torsions:
REMARK  status: ('A' for Active; 'I' for Inactive)
REMARK    1  A    between atoms: C_18  and  O_5 
REMARK    2  A    between atoms: O_7  and  C_28 
REMARK    3  A    between atoms: O_7  and  C_34 
REMARK    4  A    between atoms: C_13  and  C_23 
REMARK    5  A    between atoms: C_23  and  C_28 
ROOT
HETATM    1  F   UNK N   1       3.775   0.959  -1.866  0.00  0.00    -0.238 F 
HETATM    2  F   UNK N   1       0.530  -0.807   0.740  0.00  0.00    -0.245 F 
HETATM    3  O   UNK N   1       7.734  -1.804  -1.300  0.00  0.00    -0.334 OA
HETATM    4  O   UNK N   1       7.487  -3.730  -0.022  0.00  0.00    -0.347 OA
HETATM    5  O   UNK N   1      -0.641   4.065  -0.385  0.00  0.00    -0.289 OA
HETATM    6  C   UNK N   1       6.424  -0.385   0.226  0.00  0.00     0.004 C 
HETATM    7  C   UNK N   1       5.191  -1.174  -0.208  0.00  0.00     0.007 C 
HETATM    8  C   UNK N   1       3.903  -0.386   0.137  0.00  0.00     0.037 C 
HETATM    9  C   UNK N   1       7.548  -1.400   0.030  0.00  0.00     0.160 C 
HETATM   10  C   UNK N   1       3.950   1.060  -0.491  0.00  0.00     0.147 C 
HETATM   11  C   UNK N   1       6.954  -2.642   0.673  0.00  0.00     0.168 C 
HETATM   12  C   UNK N   1       5.415  -2.536   0.465  0.00  0.00     0.041 C 
HETATM   13  C   UNK N   1       6.516   0.885  -0.600  0.00  0.00     0.048 C 
HETATM   14  C   UNK N   1       5.319   1.768  -0.254  0.00  0.00     0.160 C 
HETATM   15  C   UNK N   1       2.782   1.882   0.138  0.00  0.00     0.039 C 
HETATM   16  C   UNK N   1       2.648  -1.107  -0.359  0.00  0.00     0.050 C 
HETATM   17  C   UNK N   1       6.367   0.000   1.730  0.00  0.00     0.019 C 
HETATM   18  C   UNK N   1       1.326  -0.313  -0.276  0.00  0.00     0.201 C 
HETATM   19  C   UNK N   1       8.039  -3.184  -1.203  0.00  0.00     0.159 C 
HETATM   20  C   UNK N   1       1.442   1.200  -0.162  0.00  0.00    -0.027 C 
HETATM   21  C   UNK N   1       2.933   1.925   1.662  0.00  0.00     0.028 C 
HETATM   22  C   UNK N   1       2.802   3.349  -0.259  0.00  0.00    -0.006 C 
HETATM   23  C   UNK N   1       9.547  -3.394  -1.201  0.00  0.00     0.078 C 
HETATM   24  C   UNK N   1       7.459  -3.905  -2.402  0.00  0.00     0.078 C 
HETATM   25  C   UNK N   1       0.325   1.934  -0.329  0.00  0.00     0.061 C 
HETATM   26  C   UNK N   1       1.688   4.066  -0.429  0.00  0.00     0.052 C 
HETATM   27  C   UNK N   1       0.383   3.406  -0.346  0.00  0.00     0.172 C 
ENDROOT
BRANCH   9  28
HETATM   28  C   UNK N   1       8.868  -0.876   0.569  0.00  0.00     0.188 C 
HETATM   29  O   UNK N   1       9.303  -1.256   1.644  0.00  0.00    -0.292 OA
BRANCH  28  30
HETATM   30  C   UNK N   1       9.639   0.131  -0.223  0.00  0.00     0.260 C 
BRANCH  30  31
HETATM   31  O   UNK N   1      10.598  -0.534  -0.957  0.00  0.00    -0.314 OA
BRANCH  31  32
HETATM   32  C   UNK N   1      11.923  -0.374  -0.745  0.00  0.00     0.255 C 
HETATM   33  O   UNK N   1      12.716  -1.063  -1.374  0.00  0.00    -0.266 OA
HETATM   34  C   UNK N   1      12.444   0.610   0.251  0.00  0.00     0.126 C 
ENDBRANCH  31  32
ENDBRANCH  30  31
ENDBRANCH  28  30
ENDBRANCH   9  28
BRANCH  14  35
HETATM   35  O   UNK N   1       5.419   2.947  -0.994  0.00  0.00    -0.392 OA
HETATM   36  H   UNK N   1       6.164   3.297  -1.508  0.00  0.00     0.210 HD
ENDBRANCH  14  35
TORSDOF 5
