REMARK  24 active torsions:
REMARK  status: ('A' for Active; 'I' for Inactive)
REMARK    1  A    between atoms: C_11  and  O_2 
REMARK    2  A    between atoms: O_2  and  C_21 
REMARK    3  A    between atoms: C_22  and  N_6 
REMARK    4  A    between atoms: N_6  and  C_34 
REMARK    5  A    between atoms: C_7  and  C_9 
REMARK    6  A    between atoms: C_8  and  C_10 
REMARK    7  A    between atoms: C_9  and  C_11 
REMARK    8  A    between atoms: C_10  and  C_14 
REMARK    9  A    between atoms: C_11  and  C_13 
REMARK   10  A    between atoms: C_13  and  C_15 
REMARK   11  A    between atoms: C_14  and  C_16 
REMARK   12  A    between atoms: C_15  and  C_17 
REMARK   13  A    between atoms: C_16  and  C_19 
REMARK   14  A    between atoms: C_17  and  C_18 
REMARK   15  A    between atoms: C_18  and  C_20 
REMARK   16  A    between atoms: C_19  and  C_24 
REMARK   17  A    between atoms: C_20  and  C_23 
REMARK   18  A    between atoms: C_21  and  C_22 
REMARK   19  A    between atoms: C_22  and  C_25 
REMARK   20  A    between atoms: C_23  and  C_26 
REMARK   21  A    between atoms: C_25  and  C_27 
REMARK   22  A    between atoms: C_26  and  C_28 
REMARK   23  A    between atoms: C_28  and  C_30 
REMARK   24  A    between atoms: C_30  and  C_33 
ROOT
HETATM    1  C   UNK N   1       8.005  -1.597   0.113  0.00  0.00     0.134 C 
ENDROOT
BRANCH   1   2
HETATM    2  O   UNK N   1       9.109  -1.374   0.901  0.00  0.00    -0.314 OA
BRANCH   2   3
HETATM    3  C   UNK N   1      10.318  -1.987   0.750  0.00  0.00     0.282 C 
HETATM    4  O   UNK N   1      11.243  -1.594   1.443  0.00  0.00    -0.263 OA
BRANCH   3   5
HETATM    5  C   UNK N   1      10.620  -3.059  -0.298  0.00  0.00     0.184 C 
BRANCH   5   6
HETATM    6  N   UNK N   1      11.558  -4.027   0.210  0.00  0.00    -0.354 N 
HETATM    7  H   UNK N   1      11.309  -4.601   0.970  0.00  0.00     0.162 HD
BRANCH   6   8
HETATM    8  C   UNK N   1      12.775  -4.147  -0.354  0.00  0.00     0.349 C 
HETATM    9  O   UNK N   1      13.564  -4.974   0.070  0.00  0.00    -0.284 OA
ENDBRANCH   6   8
ENDBRANCH   5   6
BRANCH   5  10
HETATM   10  C   UNK N   1       9.437  -3.762  -0.982  0.00  0.00     0.039 C 
BRANCH  10  11
HETATM   11  C   UNK N   1       8.690  -4.744  -0.080  0.00  0.00    -0.020 C 
HETATM   12  C   UNK N   1       7.317  -5.007  -0.662  0.00  0.00     0.009 C 
HETATM   13  C   UNK N   1       9.433  -6.064   0.005  0.00  0.00     0.009 C 
ENDBRANCH  10  11
ENDBRANCH   5  10
ENDBRANCH   3   5
ENDBRANCH   2   3
ENDBRANCH   1   2
BRANCH   1  14
HETATM   14  C   UNK N   1       6.800  -2.101   0.920  0.00  0.00     0.066 C 
BRANCH  14  15
HETATM   15  C   UNK N   1       5.744  -1.109   1.451  0.00  0.00     0.147 A 
HETATM   16  O   UNK N   1       6.064   0.220   1.274  0.00  0.00    -0.315 OA
HETATM   17  C   UNK N   1       5.034   0.422   0.497  0.00  0.00     0.266 A 
HETATM   18  O   UNK N   1       4.727   1.447  -0.088  0.00  0.00    -0.265 OA
HETATM   19  C   UNK N   1       4.473  -0.933   0.485  0.00  0.00     0.115 A 
BRANCH  19  20
HETATM   20  C   UNK N   1       4.654  -1.559  -0.899  0.00  0.00     0.017 C 
BRANCH  20  21
HETATM   21  C   UNK N   1       3.324  -1.885  -1.560  0.00  0.00     0.001 C 
BRANCH  21  22
HETATM   22  C   UNK N   1       2.538  -2.922  -0.771  0.00  0.00     0.000 C 
BRANCH  22  23
HETATM   23  C   UNK N   1       1.607  -2.205   0.185  0.00  0.00    -0.000 C 
BRANCH  23  24
HETATM   24  C   UNK N   1       0.339  -3.006   0.369  0.00  0.00    -0.005 C 
HETATM   25  C   UNK N   1      -0.741  -2.093   0.909  0.00  0.00     0.005 C 
ENDBRANCH  23  24
ENDBRANCH  22  23
ENDBRANCH  21  22
ENDBRANCH  20  21
ENDBRANCH  19  20
ENDBRANCH  14  15
ENDBRANCH   1  14
BRANCH   1  26
HETATM   26  C   UNK N   1       7.796  -0.527  -0.963  0.00  0.00     0.032 C 
BRANCH  26  27
HETATM   27  C   UNK N   1       8.222   0.862  -0.498  0.00  0.00     0.002 C 
BRANCH  27  28
HETATM   28  C   UNK N   1       8.943   1.587  -1.620  0.00  0.00     0.000 C 
BRANCH  28  29
HETATM   29  C   UNK N   1      10.358   1.047  -1.791  0.00  0.00     0.000 C 
BRANCH  29  30
HETATM   30  C   UNK N   1      11.363   1.947  -1.092  0.00  0.00     0.000 C 
BRANCH  30  31
HETATM   31  C   UNK N   1      11.336   1.718   0.408  0.00  0.00     0.000 C 
BRANCH  31  32
HETATM   32  C   UNK N   1      11.660   3.003   1.153  0.00  0.00     0.000 C 
BRANCH  32  33
HETATM   33  C   UNK N   1      13.155   3.267   1.180  0.00  0.00     0.000 C 
BRANCH  33  34
HETATM   34  C   UNK N   1      13.543   4.225   0.072  0.00  0.00    -0.000 C 
BRANCH  34  35
HETATM   35  C   UNK N   1      15.012   4.566   0.204  0.00  0.00    -0.005 C 
HETATM   36  C   UNK N   1      15.340   5.750  -0.682  0.00  0.00     0.005 C 
ENDBRANCH  34  35
ENDBRANCH  33  34
ENDBRANCH  32  33
ENDBRANCH  31  32
ENDBRANCH  30  31
ENDBRANCH  29  30
ENDBRANCH  28  29
ENDBRANCH  27  28
ENDBRANCH  26  27
ENDBRANCH   1  26
TORSDOF 24
