REMARK  3 active torsions:
REMARK  status: ('A' for Active; 'I' for Inactive)
REMARK    1  A    between atoms: N_6  and  C_9 
REMARK       I    between atoms: N_6  and  C_16 
REMARK    2  A    between atoms: C_10  and  C_18 
REMARK    3  A    between atoms: C_11  and  C_16 
ROOT
HETATM    1  O   UNK N   1       1.841  -1.493   0.027  0.00  0.00    -0.267 OA
HETATM    2  N   UNK N   1       4.083  -1.309   0.050  0.00  0.00    -0.323 N 
HETATM    3  C   UNK N   1       2.933  -2.043   0.043  0.00  0.00     0.260 C 
HETATM    4  H   UNK N   1       4.937  -1.798   0.036  0.00  0.00     0.169 HD
ENDROOT
BRANCH   2   5
HETATM    5  C   UNK N   1       4.137   0.118   0.077  0.00  0.00     0.035 A 
HETATM    6  C   UNK N   1       5.352   0.766  -0.178  0.00  0.00     0.030 A 
HETATM    7  C   UNK N   1       5.410   2.166  -0.221  0.00  0.00     0.018 A 
HETATM    8  C   UNK N   1       4.253   2.929   0.005  0.00  0.00     0.048 A 
HETATM    9  C   UNK N   1       3.049   2.282   0.292  0.00  0.00     0.018 A 
HETATM   10  C   UNK N   1       2.991   0.892   0.323  0.00  0.00     0.030 A 
BRANCH   8  11
HETATM   11  C   UNK N   1       4.273   4.427  -0.083  0.00  0.00     0.417 C 
HETATM   12  F   UNK N   1       3.350   4.837  -1.030  0.00  0.00    -0.166 F 
HETATM   13  F   UNK N   1       5.523   4.892  -0.451  0.00  0.00    -0.166 F 
HETATM   14  F   UNK N   1       3.932   4.970   1.142  0.00  0.00    -0.166 F 
ENDBRANCH   8  11
ENDBRANCH   2   5
BRANCH   3  15
HETATM   15  C   UNK N   1       2.989  -3.515   0.023  0.00  0.00     0.081 A 
HETATM   16  C   UNK N   1       1.930  -4.397  -0.006  0.00  0.00     0.089 A 
HETATM   17  O   UNK N   1       2.409  -5.614  -0.018  0.00  0.00    -0.242 OA
HETATM   18  C   UNK N   1       0.476  -4.067  -0.023  0.00  0.00     0.080 C 
HETATM   19  N   UNK N   1       3.713  -5.598   0.001  0.00  0.00    -0.271 N 
HETATM   20  C   UNK N   1       4.119  -4.310   0.026  0.00  0.00     0.134 A 
ATOM     21  HN  UNK N   1       4.322  -6.417  -0.003  1.00  0.00     0.194 HD
ENDBRANCH   3  15
TORSDOF 3
