REMARK  8 active torsions:
REMARK  status: ('A' for Active; 'I' for Inactive)
REMARK    1  A    between atoms: S_1  and  C_10 
REMARK    2  A    between atoms: S_1  and  C_14 
REMARK    3  A    between atoms: O_2  and  C_13 
REMARK    4  A    between atoms: O_2  and  C_16 
REMARK    5  A    between atoms: O_3  and  C_21 
REMARK    6  A    between atoms: C_10  and  C_11 
REMARK    7  A    between atoms: C_16  and  C_17 
REMARK    8  A    between atoms: C_17  and  C_21 
ROOT
HETATM    1  N   UNK N   1       8.030   2.125  -0.576  0.00  0.00    -0.368 N 
ATOM      2  HN  UNK N   1       7.849   3.104  -0.794  1.00  0.00     0.165 HD
HETATM    3  C   UNK N   1       6.987   1.252  -0.534  0.00  0.00     0.029 A 
HETATM    4  C   UNK N   1       7.213  -0.103  -0.230  0.00  0.00    -0.005 A 
HETATM    5  C   UNK N   1       8.518  -0.532   0.047  0.00  0.00     0.077 A 
HETATM    6  C   UNK N   1       6.076  -1.075  -0.168  0.00  0.00     0.053 C 
HETATM    7  C   UNK N   1       9.570   0.396  -0.010  0.00  0.00     0.054 A 
HETATM    8  C   UNK N   1       9.304   1.725  -0.334  0.00  0.00     0.091 A 
ENDROOT
BRANCH   3   9
HETATM    9  C   UNK N   1       5.608   1.771  -0.720  0.00  0.00     0.175 C 
BRANCH   9  10
HETATM   10  S   UNK N   1       5.017   2.271   0.922  0.00  0.00     0.090 S 
HETATM   11  O   UNK N   1       4.927   3.745   0.499  0.00  0.00    -0.249 OA
BRANCH  10  12
HETATM   12  C   UNK N   1       3.313   1.899   0.521  0.00  0.00     0.176 A 
HETATM   13  N   UNK N   1       2.390   2.841   0.202  0.00  0.00    -0.333 N 
HETATM   14  C   UNK N   1       1.268   2.135   0.008  0.00  0.00     0.061 A 
HETATM   15  H   UNK N   1       2.515   3.814   0.130  0.00  0.00     0.168 HD
HETATM   16  C   UNK N   1       1.519   0.813   0.209  0.00  0.00     0.061 A 
HETATM   17  C   UNK N   1       0.010   2.610  -0.338  0.00  0.00     0.032 A 
HETATM   18  N   UNK N   1       2.806   0.639   0.536  0.00  0.00    -0.333 N 
HETATM   19  C   UNK N   1       0.527  -0.155   0.080  0.00  0.00     0.032 A 
ATOM     20  HN  UNK N   1       3.290  -0.233   0.747  1.00  0.00     0.168 HD
HETATM   21  C   UNK N   1      -0.765   0.286  -0.271  0.00  0.00     0.002 A 
HETATM   22  C   UNK N   1      -1.022   1.662  -0.479  0.00  0.00     0.002 A 
ENDBRANCH  10  12
ENDBRANCH   9  10
ENDBRANCH   3   9
BRANCH   5  23
HETATM   23  O   UNK N   1       8.739  -1.825   0.388  0.00  0.00    -0.350 OA
BRANCH  23  24
HETATM   24  C   UNK N   1       9.980  -2.302   0.739  0.00  0.00     0.178 C 
BRANCH  24  25
HETATM   25  C   UNK N   1      10.349  -3.459  -0.159  0.00  0.00     0.053 C 
BRANCH  25  26
HETATM   26  C   UNK N   1      11.828  -3.389  -0.468  0.00  0.00     0.169 C 
BRANCH  26  27
HETATM   27  O   UNK N   1      12.435  -4.600  -0.145  0.00  0.00    -0.396 OA
HETATM   28  C   UNK N   1      13.743  -4.253   0.190  0.00  0.00     0.201 C 
ENDBRANCH  26  27
ENDBRANCH  25  26
ENDBRANCH  24  25
ENDBRANCH  23  24
ENDBRANCH   5  23
TORSDOF 8
