REMARK  7 active torsions:
REMARK  status: ('A' for Active; 'I' for Inactive)
REMARK    1  A    between atoms: O_2  and  C_15 
REMARK    2  A    between atoms: O_2  and  C_16 
REMARK    3  A    between atoms: C_8  and  C_9 
REMARK    4  A    between atoms: C_9  and  C_10 
REMARK    5  A    between atoms: C_14  and  C_16 
REMARK    6  A    between atoms: C_14  and  C_19 
REMARK    7  A    between atoms: C_21  and  C_23 
ROOT
HETATM    1  C   UNK N   1       4.844   2.276   0.042  0.00  0.00    -0.056 A 
HETATM    2  C   UNK N   1       5.470   1.565   1.067  0.00  0.00     0.010 A 
HETATM    3  C   UNK N   1       4.524   1.637  -1.162  0.00  0.00     0.010 A 
HETATM    4  C   UNK N   1       5.481  -0.425  -0.320  0.00  0.00     0.068 A 
HETATM    5  C   UNK N   1       5.784   0.219   0.892  0.00  0.00     0.037 A 
HETATM    6  C   UNK N   1       4.841   0.288  -1.339  0.00  0.00     0.037 A 
ENDROOT
BRANCH   4   7
HETATM    7  O   UNK N   1       5.788  -1.728  -0.523  0.00  0.00    -0.351 OA
BRANCH   7   8
HETATM    8  C   UNK N   1       6.231  -2.579   0.474  0.00  0.00     0.181 C 
BRANCH   8   9
HETATM    9  C   UNK N   1       5.129  -2.812   1.508  0.00  0.00     0.083 C 
BRANCH   9  10
HETATM   10  C   UNK N   1       3.842  -3.150   0.833  0.00  0.00     0.011 A 
HETATM   11  N   UNK N   1       3.726  -4.302   0.117  0.00  0.00    -0.369 N 
HETATM   12  C   UNK N   1       2.576  -4.615  -0.539  0.00  0.00     0.095 A 
ATOM     13  HN  UNK N   1       4.517  -4.944   0.072  1.00  0.00     0.165 HD
HETATM   14  C   UNK N   1       1.483  -3.744  -0.494  0.00  0.00    -0.043 A 
HETATM   15  C   UNK N   1       1.587  -2.553   0.225  0.00  0.00     0.010 A 
HETATM   16  C   UNK N   1       2.772  -2.252   0.896  0.00  0.00     0.025 A 
BRANCH  14  17
HETATM   17  C   UNK N   1       0.218  -4.071  -1.210  0.00  0.00     0.035 C 
HETATM   18  C   UNK N   1      -0.425  -5.310  -0.614  0.00  0.00     0.010 C 
ENDBRANCH  14  17
ENDBRANCH   9  10
ENDBRANCH   8   9
ENDBRANCH   7   8
ENDBRANCH   4   7
BRANCH   1  19
HETATM   19  C   UNK N   1       4.649   3.743   0.205  0.00  0.00     0.063 C 
BRANCH  19  20
HETATM   20  C   UNK N   1       5.545   4.574  -0.732  0.00  0.00     0.153 A 
HETATM   21  S   UNK N   1       7.147   3.730  -1.147  0.00  0.00    -0.054 SA
HETATM   22  C   UNK N   1       7.992   4.943  -0.157  0.00  0.00     0.287 A 
HETATM   23  O   UNK N   1       9.187   4.877   0.073  0.00  0.00    -0.260 OA
HETATM   24  N   UNK N   1       7.240   5.941   0.311  0.00  0.00    -0.287 N 
HETATM   25  C   UNK N   1       5.940   5.816   0.010  0.00  0.00     0.239 A 
HETATM   26  H   UNK N   1       7.604   6.696   0.827  0.00  0.00     0.172 HD
HETATM   27  O   UNK N   1       5.126   6.652   0.364  0.00  0.00    -0.272 OA
ENDBRANCH  19  20
ENDBRANCH   1  19
TORSDOF 7
