REMARK  7 active torsions:
REMARK  status: ('A' for Active; 'I' for Inactive)
REMARK    1  A    between atoms: O_1  and  C_23 
REMARK    2  A    between atoms: O_2  and  C_24 
REMARK    3  A    between atoms: O_3  and  C_25 
REMARK    4  A    between atoms: N_4  and  C_13 
REMARK    5  A    between atoms: N_4  and  C_19 
REMARK    6  A    between atoms: N_9  and  C_20 
REMARK       I    between atoms: N_10  and  C_26 
REMARK    7  A    between atoms: C_11  and  C_13 
ROOT
HETATM    1  N   UNK N   1       1.183   2.387   0.302  0.00  0.00    -0.191 N 
ATOM      2  HN  UNK N   1       0.920   3.360   0.462  1.00  0.00     0.184 HD
HETATM    3  N   UNK N   1       0.560   0.128   0.116  0.00  0.00    -0.176 N 
ATOM      4  HN  UNK N   1      -0.171  -0.583   0.136  1.00  0.00     0.186 HD
HETATM    5  N   UNK N   1      -1.121   1.780   0.525  0.00  0.00    -0.234 N 
HETATM    6  C   UNK N   1       5.173   1.498  -0.454  0.00  0.00    -0.034 A 
HETATM    7  C   UNK N   1       4.238   0.444  -0.410  0.00  0.00    -0.038 A 
HETATM    8  C   UNK N   1       2.869   0.731  -0.143  0.00  0.00     0.042 A 
HETATM    9  C   UNK N   1       2.484   2.077   0.081  0.00  0.00     0.063 A 
HETATM   10  C   UNK N   1       4.769   2.812  -0.214  0.00  0.00     0.011 A 
HETATM   11  C   UNK N   1       3.434   3.098   0.059  0.00  0.00     0.031 A 
HETATM   12  C   UNK N   1       4.719  -0.950  -0.690  0.00  0.00     0.050 C 
HETATM   13  C   UNK N   1       1.843  -0.250  -0.108  0.00  0.00     0.127 A 
HETATM   14  C   UNK N   1       0.224   1.428   0.315  0.00  0.00     0.677 A 
HETATM   15  H   UNK N   1      -1.378   2.719   0.672  0.00  0.00     0.174 HD
HETATM   16  H   UNK N   1      -1.814   1.080   0.525  0.00  0.00     0.174 HD
ENDROOT
BRANCH   6  17
HETATM   17  C   UNK N   1       6.575   1.234  -0.890  0.00  0.00     0.159 C 
BRANCH  17  18
HETATM   18  N   UNK N   1       7.574   1.453   0.123  0.00  0.00    -0.386 N 
HETATM   19  H   UNK N   1       7.533   2.241   0.711  0.00  0.00     0.160 HD
BRANCH  18  20
HETATM   20  C   UNK N   1       8.615   0.505   0.251  0.00  0.00     0.033 A 
HETATM   21  C   UNK N   1       9.932   0.946   0.301  0.00  0.00     0.069 A 
HETATM   22  C   UNK N   1      11.003   0.037   0.230  0.00  0.00     0.106 A 
HETATM   23  C   UNK N   1      10.730  -1.356   0.126  0.00  0.00     0.135 A 
HETATM   24  C   UNK N   1       9.395  -1.798   0.111  0.00  0.00     0.106 A 
HETATM   25  C   UNK N   1       8.349  -0.864   0.151  0.00  0.00     0.069 A 
BRANCH  22  26
HETATM   26  O   UNK N   1      12.281   0.491   0.240  0.00  0.00    -0.353 OA
HETATM   27  C   UNK N   1      12.613   1.827   0.274  0.00  0.00     0.210 C 
ENDBRANCH  22  26
BRANCH  23  28
HETATM   28  O   UNK N   1      11.708  -2.298   0.026  0.00  0.00    -0.351 OA
HETATM   29  C   UNK N   1      13.054  -2.047  -0.117  0.00  0.00     0.210 C 
ENDBRANCH  23  28
BRANCH  24  30
HETATM   30  O   UNK N   1       9.141  -3.129   0.031  0.00  0.00    -0.353 OA
HETATM   31  C   UNK N   1       7.870  -3.659   0.037  0.00  0.00     0.210 C 
ENDBRANCH  24  30
ENDBRANCH  18  20
ENDBRANCH  17  18
ENDBRANCH   6  17
BRANCH  13  32
HETATM   32  N   UNK N   1       2.115  -1.619  -0.312  0.00  0.00    -0.384 N 
HETATM   33  H   UNK N   1       1.382  -2.261  -0.455  0.00  0.00     0.157 HD
HETATM   34  H   UNK N   1       3.047  -1.936  -0.312  0.00  0.00     0.157 HD
ENDBRANCH  13  32
TORSDOF 7
