REMARK  11 active torsions:
REMARK  status: ('A' for Active; 'I' for Inactive)
REMARK    1  A    between atoms: O_5  and  C_27 
REMARK    2  A    between atoms: O_5  and  C_34 
REMARK    3  A    between atoms: N_7  and  C_28 
REMARK    4  A    between atoms: N_8  and  C_29 
REMARK    5  A    between atoms: N_9  and  C_25 
REMARK    6  A    between atoms: N_10  and  C_39 
REMARK    7  A    between atoms: N_13  and  C_45 
REMARK    8  A    between atoms: C_18  and  C_25 
REMARK    9  A    between atoms: C_18  and  C_26 
REMARK   10  A    between atoms: C_19  and  C_27 
REMARK   11  A    between atoms: C_45  and  C_48 
ROOT
HETATM    1  C   UNK N   1       8.218   1.462  -0.601  0.00  0.00     0.030 C 
HETATM    2  C   UNK N   1       7.692   0.520   0.284  0.00  0.00     0.032 C 
HETATM    3  C   UNK N   1       7.379   2.382  -1.241  0.00  0.00     0.032 C 
HETATM    4  C   UNK N   1       5.614   1.711   0.205  0.00  0.00     0.069 C 
HETATM    5  C   UNK N   1       6.385   0.658   0.701  0.00  0.00     0.039 C 
HETATM    6  C   UNK N   1       6.070   2.496  -0.851  0.00  0.00     0.039 C 
ENDROOT
BRANCH   1   7
HETATM    7  N   UNK N   1       9.524   1.887  -0.343  0.00  0.00    -0.378 N 
HETATM    8  C   UNK N   1       9.643   3.331  -0.063  0.00  0.00     0.143 C 
HETATM    9  C   UNK N   1      10.173   3.603   1.337  0.00  0.00     0.143 C 
HETATM   10  N   UNK N   1      11.335   2.789   1.395  0.00  0.00    -0.378 N 
HETATM   11  C   UNK N   1      11.069   1.381   1.521  0.00  0.00     0.143 C 
HETATM   12  C   UNK N   1      10.485   0.922   0.192  0.00  0.00     0.143 C 
BRANCH  10  13
HETATM   13  C   UNK N   1      12.471   3.209   0.648  0.00  0.00     0.030 C 
HETATM   14  C   UNK N   1      13.283   2.244   0.060  0.00  0.00     0.031 C 
HETATM   15  C   UNK N   1      14.475   2.599  -0.508  0.00  0.00     0.032 C 
HETATM   16  C   UNK N   1      14.904   3.923  -0.500  0.00  0.00     0.045 C 
HETATM   17  C   UNK N   1      14.040   4.930  -0.039  0.00  0.00     0.032 C 
HETATM   18  C   UNK N   1      12.806   4.572   0.519  0.00  0.00     0.031 C 
BRANCH  16  19
HETATM   19  N   UNK N   1      16.309   4.167  -0.620  0.00  0.00    -0.258 N 
HETATM   20  C   UNK N   1      17.274   3.213  -0.579  0.00  0.00     0.349 A 
HETATM   21  O   UNK N   1      17.064   2.014  -0.576  0.00  0.00    -0.244 OA
HETATM   22  N   UNK N   1      18.494   3.781  -0.464  0.00  0.00    -0.237 N 
HETATM   23  N   UNK N   1      18.318   5.095  -0.466  0.00  0.00    -0.289 N 
HETATM   24  C   UNK N   1      16.981   5.334  -0.541  0.00  0.00     0.210 A 
ATOM     25  HN  UNK N   1      19.053   5.801  -0.419  1.00  0.00     0.188 HD
BRANCH  22  26
HETATM   26  C   UNK N   1      19.798   3.116  -0.285  0.00  0.00     0.108 C 
HETATM   27  C   UNK N   1      19.673   1.610  -0.068  0.00  0.00     0.034 C 
BRANCH  26  28
HETATM   28  C   UNK N   1      20.529   3.682   0.919  0.00  0.00     0.022 C 
HETATM   29  C   UNK N   1      21.180   4.999   0.548  0.00  0.00     0.007 C 
ENDBRANCH  26  28
ENDBRANCH  22  26
ENDBRANCH  16  19
ENDBRANCH  10  13
ENDBRANCH   1   7
BRANCH   4  30
HETATM   30  O   UNK N   1       4.380   1.898   0.687  0.00  0.00    -0.349 OA
BRANCH  30  31
HETATM   31  C   UNK N   1       3.323   1.764  -0.167  0.00  0.00     0.209 C 
BRANCH  31  32
HETATM   32  C   UNK N   1       3.463   0.372  -0.755  0.00  0.00     0.173 C 
HETATM   33  O   UNK N   1       3.550  -0.557   0.280  0.00  0.00    -0.340 OA
HETATM   34  C   UNK N   1       2.690  -1.597  -0.089  0.00  0.00     0.213 C 
HETATM   35  O   UNK N   1       2.224  -1.387  -1.409  0.00  0.00    -0.347 OA
HETATM   36  C   UNK N   1       2.341  -0.018  -1.621  0.00  0.00     0.206 C 
BRANCH  34  37
HETATM   37  C   UNK N   1       1.506  -1.618   0.897  0.00  0.00     0.224 C 
BRANCH  37  38
HETATM   38  N   UNK N   1       0.683  -0.425   0.740  0.00  0.00    -0.281 N 
HETATM   39  N   UNK N   1       0.940   0.752   1.275  0.00  0.00    -0.293 N 
HETATM   40  C   UNK N   1       0.009   1.603   0.801  0.00  0.00     0.198 A 
ATOM     41  HN  UNK N   1       1.697   0.976   1.921  1.00  0.00     0.188 HD
HETATM   42  N   UNK N   1      -0.835   0.961  -0.039  0.00  0.00    -0.346 N 
HETATM   43  C   UNK N   1      -0.387  -0.310  -0.060  0.00  0.00     0.201 A 
ATOM     44  HN  UNK N   1      -1.631   1.351  -0.543  1.00  0.00     0.167 HD
ENDBRANCH  37  38
ENDBRANCH  34  37
BRANCH  34  45
HETATM   45  C   UNK N   1       3.442  -2.916  -0.055  0.00  0.00     0.027 A 
HETATM   46  C   UNK N   1       2.809  -4.121  -0.436  0.00  0.00     0.047 A 
HETATM   47 Cl   UNK N   1       1.127  -4.164  -0.951  0.00  0.00    -0.084 Cl
HETATM   48  C   UNK N   1       3.524  -5.320  -0.427  0.00  0.00     0.048 A 
HETATM   49  C   UNK N   1       4.864  -5.345  -0.043  0.00  0.00     0.035 A 
HETATM   50 Cl   UNK N   1       5.739  -6.860  -0.050  0.00  0.00    -0.084 Cl
HETATM   51  C   UNK N   1       5.502  -4.163   0.339  0.00  0.00     0.024 A 
HETATM   52  C   UNK N   1       4.798  -2.955   0.332  0.00  0.00     0.016 A 
ENDBRANCH  34  45
ENDBRANCH  31  32
ENDBRANCH  30  31
ENDBRANCH   4  30
TORSDOF 11
