REMARK  5 active torsions:
REMARK  status: ('A' for Active; 'I' for Inactive)
REMARK    1  A    between atoms: N_4  and  C_14 
REMARK    2  A    between atoms: N_5  and  C_9 
REMARK    3  A    between atoms: N_7  and  C_18 
REMARK    4  A    between atoms: C_14  and  C_15 
REMARK    5  A    between atoms: C_15  and  C_18 
ROOT
HETATM    1  N   UNK N   1       4.848   0.934   0.131  0.00  0.00     0.088 N 
HETATM    2  C   UNK N   1       4.237  -1.816  -0.358  0.00  0.00     0.098 C 
HETATM    3  C   UNK N   1       3.563  -1.044   0.765  0.00  0.00     0.056 C 
HETATM    4  C   UNK N   1       5.662  -1.312  -0.530  0.00  0.00     0.056 C 
HETATM    5  C   UNK N   1       3.502   0.408   0.341  0.00  0.00     0.274 C 
HETATM    6  C   UNK N   1       5.555   0.170  -0.911  0.00  0.00     0.274 C 
ENDROOT
BRANCH   1   7
HETATM    7  C   UNK N   1       4.653   2.309  -0.318  0.00  0.00     0.274 C 
BRANCH   7   8
HETATM    8  C   UNK N   1       5.954   3.090  -0.346  0.00  0.00     0.050 C 
BRANCH   8   9
HETATM    9  C   UNK N   1       6.797   2.785   0.878  0.00  0.00     0.135 C 
BRANCH   9  10
HETATM   10  N   UNK N   1       8.195   2.854   0.498  0.00  0.00    -0.297 N 
HETATM   11  C   UNK N   1       8.916   3.952   0.243  0.00  0.00     0.065 A 
HETATM   12  C   UNK N   1      10.184   3.581  -0.109  0.00  0.00     0.063 A 
HETATM   13  C   UNK N   1       8.519   5.286   0.300  0.00  0.00     0.032 A 
HETATM   14  N   UNK N   1      10.299   2.236  -0.087  0.00  0.00    -0.306 N 
HETATM   15  C   UNK N   1      11.159   4.517  -0.434  0.00  0.00     0.032 A 
HETATM   16  C   UNK N   1       9.054   1.818   0.292  0.00  0.00     0.327 A 
HETATM   17  H   UNK N   1      11.091   1.688  -0.294  0.00  0.00     0.171 HD
HETATM   18  O   UNK N   1       8.746   0.644   0.415  0.00  0.00    -0.246 OA
HETATM   19  C   UNK N   1      10.795   5.877  -0.386  0.00  0.00     0.002 A 
HETATM   20  C   UNK N   1       9.482   6.260  -0.021  0.00  0.00     0.002 A 
ENDBRANCH   9  10
ENDBRANCH   8   9
ENDBRANCH   7   8
ENDBRANCH   1   7
BRANCH   2  21
HETATM   21  N   UNK N   1       4.072  -3.255  -0.158  0.00  0.00    -0.293 N 
HETATM   22  C   UNK N   1       2.880  -3.867  -0.136  0.00  0.00     0.066 A 
HETATM   23  C   UNK N   1       3.056  -5.205   0.058  0.00  0.00     0.065 A 
HETATM   24  C   UNK N   1       1.619  -3.294  -0.285  0.00  0.00     0.034 A 
HETATM   25  N   UNK N   1       4.371  -5.490   0.164  0.00  0.00    -0.306 N 
HETATM   26  C   UNK N   1       1.975  -6.082   0.119  0.00  0.00     0.055 A 
HETATM   27  C   UNK N   1       4.975  -4.267   0.025  0.00  0.00     0.328 A 
HETATM   28  H   UNK N   1       4.796  -6.366   0.307  0.00  0.00     0.171 HD
HETATM   29  O   UNK N   1       6.183  -4.110   0.064  0.00  0.00    -0.246 OA
HETATM   30  C   UNK N   1       0.681  -5.534  -0.026  0.00  0.00     0.036 A 
HETATM   31 Cl   UNK N   1      -0.725  -6.571   0.040  0.00  0.00    -0.084 Cl
HETATM   32  C   UNK N   1       0.507  -4.147  -0.227  0.00  0.00     0.026 A 
ENDBRANCH   2  21
TORSDOF 5
