REMARK  2 active torsions:
REMARK  status: ('A' for Active; 'I' for Inactive)
REMARK    1  A    between atoms: O_1  and  N_3 
REMARK    2  A    between atoms: C_4  and  C_10 
ROOT
HETATM    1  O   UNK N   1       7.405  -0.747  -0.056  0.00  0.00    -0.266 OA
HETATM    2  N   UNK N   1       5.157  -0.809  -0.191  0.00  0.00    -0.192 N 
HETATM    3  C   UNK N   1       3.959  -0.139  -0.160  0.00  0.00     0.048 A 
HETATM    4  C   UNK N   1       3.956   1.254   0.018  0.00  0.00     0.035 A 
HETATM    5  C   UNK N   1       5.158   1.943   0.162  0.00  0.00    -0.055 A 
HETATM    6  C   UNK N   1       6.351  -0.138  -0.036  0.00  0.00     0.272 A 
HETATM    7  C   UNK N   1       6.361   1.246   0.138  0.00  0.00     0.083 A 
HETATM    8  C   UNK N   1       5.156   3.420   0.326  0.00  0.00     0.048 C 
ENDROOT
BRANCH   3   9
HETATM    9  C   UNK N   1       2.653  -0.889  -0.351  0.00  0.00     0.038 C 
HETATM   10  C   UNK N   1       2.505  -2.040   0.645  0.00  0.00     0.011 C 
HETATM   11  C   UNK N   1       1.263  -2.857   0.301  0.00  0.00     0.001 C 
HETATM   12  C   UNK N   1       0.023  -1.975   0.396  0.00  0.00     0.000 C 
HETATM   13  C   UNK N   1       0.143  -0.786  -0.554  0.00  0.00     0.001 C 
HETATM   14  C   UNK N   1       1.411   0.013  -0.262  0.00  0.00     0.011 C 
ENDBRANCH   3   9
BRANCH   2  15
HETATM   15  O   UNK N   1       5.178  -2.153  -0.377  0.00  0.00    -0.280 OA
HETATM   16  H   UNK N   1       4.381  -2.630  -0.506  0.00  0.00     0.245 HD
ENDBRANCH   2  15
TORSDOF 2
