REMARK  2 active torsions:
REMARK  status: ('A' for Active; 'I' for Inactive)
REMARK    1  A    between atoms: C_7  and  O_2 
REMARK    2  A    between atoms: O_4  and  C_21 
ROOT
HETATM    1  O   UNK N   1       1.032  -0.236  -0.830  0.00  0.00    -0.334 OA
HETATM    2  O   UNK N   1      -0.037  -2.656   0.276  0.00  0.00    -0.295 OA
HETATM    3  N   UNK N   1       6.131  -0.957  -0.684  0.00  0.00     0.092 N 
HETATM    4  C   UNK N   1       3.204  -1.073  -0.534  0.00  0.00     0.058 C 
HETATM    5  C   UNK N   1       4.056  -1.909   0.421  0.00  0.00     0.104 C 
HETATM    6  C   UNK N   1       5.410  -1.113   0.601  0.00  0.00     0.262 C 
HETATM    7  C   UNK N   1       1.709  -1.464  -0.780  0.00  0.00     0.214 C 
HETATM    8  C   UNK N   1       3.936  -0.939  -1.885  0.00  0.00     0.051 C 
HETATM    9  C   UNK N   1       3.010   0.278   0.015  0.00  0.00    -0.001 A 
HETATM   10  C   UNK N   1       3.299  -2.081   1.737  0.00  0.00     0.049 C 
HETATM   11  C   UNK N   1       5.205   0.320   1.198  0.00  0.00     0.078 C 
HETATM   12  C   UNK N   1       5.330  -0.317  -1.737  0.00  0.00     0.273 C 
HETATM   13  C   UNK N   1       3.936   1.004   0.741  0.00  0.00    -0.046 A 
HETATM   14  C   UNK N   1       1.946  -2.777   1.536  0.00  0.00     0.084 C 
HETATM   15  C   UNK N   1       1.130  -2.305   0.348  0.00  0.00     0.157 C 
HETATM   16  C   UNK N   1       1.777   0.726  -0.272  0.00  0.00     0.110 A 
HETATM   17  C   UNK N   1       6.692  -2.209  -1.179  0.00  0.00     0.310 C 
HETATM   18  C   UNK N   1       3.591   2.312   1.126  0.00  0.00     0.011 A 
HETATM   19  C   UNK N   1       1.398   2.028   0.066  0.00  0.00     0.099 A 
HETATM   20  C   UNK N   1       2.327   2.837   0.756  0.00  0.00     0.040 A 
ENDROOT
BRANCH   5  21
HETATM   21  O   UNK N   1       4.293  -3.180  -0.118  0.00  0.00    -0.386 OA
HETATM   22  H   UNK N   1       3.613  -3.762  -0.491  0.00  0.00     0.210 HD
ENDBRANCH   5  21
BRANCH  19  23
HETATM   23  O   UNK N   1       0.176   2.494  -0.239  0.00  0.00    -0.358 OA
HETATM   24  H   UNK N   1       0.031   3.395  -0.453  0.00  0.00     0.217 HD
ENDBRANCH  19  23
TORSDOF 2
