REMARK  17 active torsions:
REMARK  status: ('A' for Active; 'I' for Inactive)
REMARK    1  A    between atoms: C_17  and  O_2 
REMARK    2  A    between atoms: O_2  and  C_36 
REMARK    3  A    between atoms: C_20  and  O_3 
REMARK    4  A    between atoms: O_3  and  C_37 
REMARK    5  A    between atoms: C_21  and  O_4 
REMARK    6  A    between atoms: C_22  and  O_5 
REMARK    7  A    between atoms: C_30  and  O_7 
REMARK    8  A    between atoms: C_31  and  O_8 
REMARK    9  A    between atoms: O_8  and  C_39 
REMARK   10  A    between atoms: C_41  and  O_12 
REMARK   11  A    between atoms: O_13  and  C_51 
REMARK   12  A    between atoms: O_13  and  C_55 
REMARK   13  A    between atoms: C_44  and  N_15 
REMARK       I    between atoms: N_15  and  C_51 
REMARK   14  A    between atoms: C_37  and  C_40 
REMARK   15  A    between atoms: C_39  and  C_41 
REMARK   16  A    between atoms: C_41  and  C_44 
REMARK   17  A    between atoms: C_44  and  C_48 
ROOT
HETATM    1  O   UNK N   1       2.115  -4.256   1.493  0.00  0.00    -0.380 OA
HETATM    2  O   UNK N   1       0.834   0.511  -2.111  0.00  0.00    -0.294 OA
HETATM    3  C   UNK N   1       3.610  -1.917  -0.256  0.00  0.00     0.076 C 
HETATM    4  C   UNK N   1       3.445  -3.453   0.026  0.00  0.00     0.125 A 
HETATM    5  C   UNK N   1       2.213  -1.174  -0.944  0.00  0.00     0.055 C 
HETATM    6  C   UNK N   1       2.057  -4.093   0.101  0.00  0.00     0.161 A 
HETATM    7  C   UNK N   1       4.736  -1.400   0.896  0.00  0.00     0.176 C 
HETATM    8  C   UNK N   1       4.859   0.127   1.358  0.00  0.00     0.098 C 
HETATM    9  C   UNK N   1       1.041  -1.731  -0.068  0.00  0.00     0.137 C 
HETATM   10  C   UNK N   1       0.852  -3.236  -0.266  0.00  0.00     0.068 C 
HETATM   11  C   UNK N   1       3.907   0.683   0.403  0.00  0.00     0.013 C 
HETATM   12  C   UNK N   1       3.407  -3.722   1.529  0.00  0.00     0.210 A 
HETATM   13  C   UNK N   1       1.812   0.427  -1.379  0.00  0.00     0.171 C 
HETATM   14  C   UNK N   1       6.131   0.943   1.226  0.00  0.00     0.078 C 
HETATM   15  C   UNK N   1       3.649   1.955  -0.042  0.00  0.00    -0.029 C 
HETATM   16  C   UNK N   1       2.110  -1.852  -2.329  0.00  0.00     0.027 C 
HETATM   17  C   UNK N   1       2.414   1.918  -0.999  0.00  0.00     0.218 C 
HETATM   18  C   UNK N   1       5.932   2.485   0.895  0.00  0.00     0.164 C 
HETATM   19  C   UNK N   1       4.574   2.908   0.226  0.00  0.00    -0.048 C 
HETATM   20  C   UNK N   1       4.585   0.390  -1.039  0.00  0.00     0.023 C 
HETATM   21  C   UNK N   1       2.559   0.390   1.191  0.00  0.00     0.023 C 
HETATM   22  C   UNK N   1       4.398   4.298  -0.292  0.00  0.00     0.046 C 
ENDROOT
BRANCH  18  23
HETATM   23  O   UNK N   1       6.968   2.905   0.052  0.00  0.00    -0.309 OA
BRANCH  23  24
HETATM   24  C   UNK N   1       7.822   2.125  -0.699  0.00  0.00     0.290 C 
HETATM   25  O   UNK N   1       7.758   0.905  -0.697  0.00  0.00    -0.262 OA
BRANCH  24  26
HETATM   26  C   UNK N   1       8.772   2.751  -1.652  0.00  0.00     0.244 C 
BRANCH  26  27
HETATM   27  O   UNK N   1       8.294   3.985  -2.096  0.00  0.00    -0.383 OA
HETATM   28  H   UNK N   1       8.871   4.702  -2.405  0.00  0.00     0.210 HD
ENDBRANCH  26  27
BRANCH  26  29
HETATM   29  C   UNK N   1      10.242   2.816  -1.191  0.00  0.00     0.158 C 
BRANCH  29  30
HETATM   30  N   UNK N   1      10.869   1.537  -0.867  0.00  0.00    -0.325 N 
HETATM   31  C   UNK N   1      10.685   0.804   0.268  0.00  0.00     0.361 C 
HETATM   32  O   UNK N   1       9.889   1.171   1.123  0.00  0.00    -0.238 OA
HETATM   33  H   UNK N   1      11.488   1.166  -1.537  0.00  0.00     0.165 HD
BRANCH  31  34
HETATM   34  O   UNK N   1      11.422  -0.317   0.503  0.00  0.00    -0.294 OA
BRANCH  34  35
HETATM   35  C   UNK N   1      12.391  -0.846  -0.340  0.00  0.00     0.061 C 
HETATM   36  C   UNK N   1      13.488   0.168  -0.627  0.00  0.00     0.046 C 
HETATM   37  C   UNK N   1      11.771  -1.319  -1.643  0.00  0.00     0.046 C 
HETATM   38  C   UNK N   1      13.027  -2.038   0.345  0.00  0.00     0.046 C 
ENDBRANCH  34  35
ENDBRANCH  31  34
ENDBRANCH  29  30
BRANCH  29  39
HETATM   39  C   UNK N   1      10.604   3.958  -0.273  0.00  0.00    -0.032 A 
HETATM   40  C   UNK N   1      10.468   5.270  -0.746  0.00  0.00     0.009 A 
HETATM   41  C   UNK N   1      10.834   6.354   0.054  0.00  0.00     0.001 A 
HETATM   42  C   UNK N   1      11.346   6.133   1.334  0.00  0.00     0.000 A 
HETATM   43  C   UNK N   1      11.494   4.829   1.812  0.00  0.00     0.001 A 
HETATM   44  C   UNK N   1      11.131   3.745   1.009  0.00  0.00     0.009 A 
ENDBRANCH  29  39
ENDBRANCH  26  29
ENDBRANCH  24  26
ENDBRANCH  23  24
ENDBRANCH  18  23
BRANCH   8  45
HETATM   45  O   UNK N   1       4.509   0.235   2.718  0.00  0.00    -0.386 OA
HETATM   46  H   UNK N   1       4.453   0.481   3.655  0.00  0.00     0.210 HD
ENDBRANCH   8  45
BRANCH   7  47
HETATM   47  O   UNK N   1       5.984  -1.873   0.526  0.00  0.00    -0.308 OA
BRANCH  47  48
HETATM   48  C   UNK N   1       6.733  -2.700   1.291  0.00  0.00     0.293 C 
HETATM   49  O   UNK N   1       6.416  -2.921   2.451  0.00  0.00    -0.259 OA
BRANCH  48  50
HETATM   50  C   UNK N   1       7.923  -3.359   0.709  0.00  0.00     0.039 A 
HETATM   51  C   UNK N   1       8.285  -3.125  -0.627  0.00  0.00     0.017 A 
HETATM   52  C   UNK N   1       9.392  -3.777  -1.182  0.00  0.00     0.001 A 
HETATM   53  C   UNK N   1      10.141  -4.666  -0.407  0.00  0.00     0.000 A 
HETATM   54  C   UNK N   1       9.787  -4.902   0.924  0.00  0.00     0.001 A 
HETATM   55  C   UNK N   1       8.681  -4.252   1.480  0.00  0.00     0.017 A 
ENDBRANCH  48  50
ENDBRANCH  47  48
ENDBRANCH   7  47
BRANCH  17  56
HETATM   56  O   UNK N   1       1.405   2.749  -0.508  0.00  0.00    -0.384 OA
HETATM   57  H   UNK N   1       1.555   3.645  -0.167  0.00  0.00     0.211 HD
ENDBRANCH  17  56
BRANCH   4  58
HETATM   58  O   UNK N   1       4.415  -4.197  -0.651  0.00  0.00    -0.305 OA
BRANCH  58  59
HETATM   59  C   UNK N   1       4.915  -5.441  -0.403  0.00  0.00     0.255 C 
HETATM   60  O   UNK N   1       5.804  -5.870  -1.120  0.00  0.00    -0.266 OA
HETATM   61  C   UNK N   1       4.432  -6.299   0.720  0.00  0.00     0.126 C 
ENDBRANCH  58  59
ENDBRANCH   4  58
BRANCH   9  62
HETATM   62  O   UNK N   1      -0.186  -1.117  -0.327  0.00  0.00    -0.394 OA
HETATM   63  H   UNK N   1      -0.243  -0.166  -0.507  0.00  0.00     0.210 HD
ENDBRANCH   9  62
TORSDOF 17
