REMARK  8 active torsions:
REMARK  status: ('A' for Active; 'I' for Inactive)
REMARK    1  A    between atoms: O_3  and  C_21 
REMARK    2  A    between atoms: N_5  and  C_19 
REMARK    3  A    between atoms: N_6  and  C_20 
REMARK    4  A    between atoms: N_11  and  C_23 
REMARK    5  A    between atoms: N_11  and  C_26 
REMARK    6  A    between atoms: N_14  and  C_28 
REMARK       I    between atoms: N_14  and  C_31 
REMARK    7  A    between atoms: C_19  and  C_21 
REMARK    8  A    between atoms: C_27  and  C_31 
ROOT
HETATM    1  N   UNK N   1       0.926   0.214  -1.112  0.00  0.00    -0.323 N 
HETATM    2  H   UNK N   1       0.212   0.817  -1.422  0.00  0.00     0.169 HD
ENDROOT
BRANCH   1   3
HETATM    3  C   UNK N   1       2.276   0.649  -0.992  0.00  0.00     0.111 A 
HETATM    4  N   UNK N   1       3.310  -0.195  -1.270  0.00  0.00    -0.332 N 
HETATM    5  C   UNK N   1       4.592   0.117  -0.954  0.00  0.00     0.080 A 
ATOM      6  HN  UNK N   1       3.114  -1.085  -1.728  1.00  0.00     0.168 HD
HETATM    7  N   UNK N   1       4.855   1.279  -0.306  0.00  0.00    -0.332 N 
HETATM    8  C   UNK N   1       5.683  -0.852  -1.237  0.00  0.00     0.089 C 
HETATM    9  C   UNK N   1       3.851   2.137   0.013  0.00  0.00     0.108 A 
ATOM     10  HN  UNK N   1       5.817   1.511  -0.056  1.00  0.00     0.168 HD
HETATM   11  C   UNK N   1       2.531   1.830  -0.333  0.00  0.00     0.097 A 
BRANCH   9  12
HETATM   12  N   UNK N   1       4.111   3.301   0.775  0.00  0.00    -0.364 N 
HETATM   13  C   UNK N   1       3.025   4.106   1.277  0.00  0.00     0.154 C 
HETATM   14  C   UNK N   1       3.200   5.514   0.750  0.00  0.00     0.292 C 
HETATM   15  N   UNK N   1       4.532   6.005   1.116  0.00  0.00     0.093 N 
HETATM   16  C   UNK N   1       5.591   5.171   0.529  0.00  0.00     0.292 C 
HETATM   17  C   UNK N   1       5.463   3.735   1.031  0.00  0.00     0.154 C 
BRANCH  15  18
HETATM   18  C   UNK N   1       4.680   7.392   0.677  0.00  0.00     0.298 C 
BRANCH  18  19
HETATM   19  C   UNK N   1       4.509   7.563  -0.830  0.00  0.00     0.194 C 
BRANCH  19  20
HETATM   20  O   UNK N   1       4.595   8.915  -1.152  0.00  0.00    -0.399 OA
HETATM   21  H   UNK N   1       5.441   9.334  -1.375  0.00  0.00     0.209 HD
ENDBRANCH  19  20
ENDBRANCH  18  19
ENDBRANCH  15  18
ENDBRANCH   9  12
ENDBRANCH   1   3
BRANCH   1  22
HETATM   22  C   UNK N   1       0.664  -1.125  -0.764  0.00  0.00     0.150 A 
HETATM   23  S   UNK N   1       1.491  -2.335  -1.495  0.00  0.00    -0.047 SA
HETATM   24  C   UNK N   1       1.678  -3.299  -0.189  0.00  0.00     0.091 A 
HETATM   25  C   UNK N   1       1.006  -2.687   0.873  0.00  0.00     0.115 A 
HETATM   26  N   UNK N   1       0.472  -1.456   0.544  0.00  0.00    -0.345 N 
ATOM     27  HN  UNK N   1      -0.014  -0.857   1.211  1.00  0.00     0.167 HD
BRANCH  24  28
HETATM   28  C   UNK N   1       2.566  -4.447  -0.208  0.00  0.00     0.264 C 
HETATM   29  O   UNK N   1       3.215  -4.652  -1.227  0.00  0.00    -0.267 OA
HETATM   30  N   UNK N   1       2.705  -5.275   0.853  0.00  0.00    -0.320 N 
HETATM   31  H   UNK N   1       2.255  -5.092   1.710  0.00  0.00     0.169 HD
BRANCH  30  32
HETATM   32  C   UNK N   1       3.523  -6.416   0.678  0.00  0.00     0.062 A 
HETATM   33  C   UNK N   1       4.927  -6.311   0.737  0.00  0.00    -0.034 A 
HETATM   34  C   UNK N   1       5.717  -7.410   0.393  0.00  0.00     0.009 A 
HETATM   35  C   UNK N   1       5.590  -5.029   1.117  0.00  0.00     0.050 C 
HETATM   36  C   UNK N   1       5.120  -8.606  -0.011  0.00  0.00     0.002 A 
HETATM   37  C   UNK N   1       3.728  -8.714  -0.062  0.00  0.00     0.026 A 
HETATM   38  C   UNK N   1       2.928  -7.623   0.282  0.00  0.00     0.061 A 
HETATM   39 Cl   UNK N   1       1.181  -7.757   0.145  0.00  0.00    -0.082 Cl
ENDBRANCH  30  32
ENDBRANCH  24  28
ENDBRANCH   1  22
TORSDOF 8
