REMARK  6 active torsions:
REMARK  status: ('A' for Active; 'I' for Inactive)
REMARK       I    between atoms: N_8  and  C_21 
REMARK    1  A    between atoms: C_20  and  N_12 
REMARK    2  A    between atoms: C_19  and  C_20 
REMARK    3  A    between atoms: C_19  and  C_21 
REMARK    4  A    between atoms: C_20  and  C_22 
REMARK    5  A    between atoms: C_22  and  C_24 
REMARK    6  A    between atoms: C_23  and  C_25 
ROOT
HETATM    1  O   UNK N   1       7.691  -2.855  -0.792  0.00  0.00    -0.273 OA
HETATM    2  N   UNK N   1       8.124  -1.203   0.654  0.00  0.00    -0.344 N 
HETATM    3  N   UNK N   1       9.866   0.808   0.398  0.00  0.00    -0.314 N 
HETATM    4  N   UNK N   1      11.585  -0.486  -0.132  0.00  0.00    -0.286 N 
ATOM      5  HN  UNK N   1      12.163  -1.316  -0.260  1.00  0.00     0.188 HD
HETATM    6  N   UNK N   1      11.922   0.766  -0.423  0.00  0.00    -0.280 N 
ATOM      7  HN  UNK N   1      12.810   1.077  -0.815  1.00  0.00     0.188 HD
HETATM    8  C   UNK N   1       7.745  -0.005   1.380  0.00  0.00     0.146 C 
HETATM    9  C   UNK N   1       8.532   1.206   0.854  0.00  0.00     0.152 C 
HETATM   10  C   UNK N   1       9.508  -1.621   0.760  0.00  0.00     0.203 C 
HETATM   11  C   UNK N   1      10.335  -0.448   0.363  0.00  0.00     0.118 A 
HETATM   12  C   UNK N   1       7.275  -1.873  -0.193  0.00  0.00     0.222 C 
HETATM   13  C   UNK N   1      10.870   1.551  -0.102  0.00  0.00     0.209 A 
ENDROOT
BRANCH  12  14
HETATM   14  C   UNK N   1       5.840  -1.462  -0.490  0.00  0.00     0.127 C 
BRANCH  14  15
HETATM   15  C   UNK N   1       5.252  -0.242   0.205  0.00  0.00     0.087 C 
BRANCH  15  16
HETATM   16  N   UNK N   1       4.834  -0.580   1.559  0.00  0.00    -0.425 N 
HETATM   17  H   UNK N   1       4.483  -0.445   2.507  0.00  0.00     0.150 HD
HETATM   18  H   UNK N   1       4.993  -1.588   1.559  0.00  0.00     0.150 HD
ENDBRANCH  15  16
BRANCH  15  19
HETATM   19  C   UNK N   1       4.103   0.361  -0.604  0.00  0.00     0.067 C 
BRANCH  19  20
HETATM   20  C   UNK N   1       2.793  -0.333  -0.393  0.00  0.00    -0.015 A 
HETATM   21  C   UNK N   1       1.694   0.385   0.100  0.00  0.00     0.125 A 
HETATM   22  F   UNK N   1       1.803   1.711   0.369  0.00  0.00    -0.205 F 
HETATM   23  C   UNK N   1       0.479  -0.267   0.326  0.00  0.00     0.088 A 
HETATM   24  C   UNK N   1       0.357  -1.634   0.062  0.00  0.00     0.157 A 
HETATM   25  F   UNK N   1      -0.821  -2.262   0.292  0.00  0.00    -0.203 F 
HETATM   26  C   UNK N   1       1.451  -2.351  -0.436  0.00  0.00     0.155 A 
HETATM   27  F   UNK N   1       1.341  -3.677  -0.690  0.00  0.00    -0.203 F 
HETATM   28  C   UNK N   1       2.664  -1.701  -0.666  0.00  0.00     0.055 A 
ENDBRANCH  19  20
ENDBRANCH  15  19
ENDBRANCH  14  15
ENDBRANCH  12  14
BRANCH  13  29
HETATM   29  C   UNK N   1      10.849   3.036  -0.315  0.00  0.00     0.450 C 
HETATM   30  F   UNK N   1      11.890   3.613   0.387  0.00  0.00    -0.163 F 
HETATM   31  F   UNK N   1      11.008   3.301  -1.662  0.00  0.00    -0.163 F 
HETATM   32  F   UNK N   1       9.659   3.598   0.110  0.00  0.00    -0.163 F 
ENDBRANCH  13  29
TORSDOF 6
