REMARK  7 active torsions:
REMARK  status: ('A' for Active; 'I' for Inactive)
REMARK    1  A    between atoms: N_4  and  C_8 
REMARK    2  A    between atoms: N_4  and  C_14 
REMARK    3  A    between atoms: N_4  and  C_15 
REMARK    4  A    between atoms: N_6  and  C_12 
REMARK       I    between atoms: N_6  and  C_16 
REMARK    5  A    between atoms: C_8  and  C_12 
REMARK    6  A    between atoms: C_9  and  C_16 
REMARK    7  A    between atoms: C_11  and  C_18 
ROOT
HETATM    1  N   UNK N   1       6.265  -0.914   1.403  0.00  0.00    -0.359 N 
HETATM    2  C   UNK N   1       7.183   0.812   0.278  0.00  0.00     0.062 A 
HETATM    3  C   UNK N   1       5.805   0.902   0.187  0.00  0.00    -0.018 A 
HETATM    4  C   UNK N   1       5.288  -0.170   0.859  0.00  0.00     0.040 A 
HETATM    5  C   UNK N   1       7.427  -0.323   1.069  0.00  0.00     0.022 A 
HETATM    6  C   UNK N   1       5.003   1.894  -0.593  0.00  0.00     0.052 C 
HETATM    7  C   UNK N   1       8.721  -0.973   1.403  0.00  0.00     0.069 C 
HETATM    8  H   UNK N   1       6.153  -1.731   1.941  0.00  0.00     0.166 HD
ENDROOT
BRANCH   4   9
HETATM    9  C   UNK N   1       3.888  -0.571   0.755  0.00  0.00     0.048 C 
HETATM   10  C   UNK N   1       3.550  -1.797   0.333  0.00  0.00     0.047 A 
HETATM   11  C   UNK N   1       2.201  -2.238   0.033  0.00  0.00     0.009 A 
HETATM   12  C   UNK N   1       4.395  -2.932  -0.107  0.00  0.00     0.257 A 
HETATM   13  C   UNK N   1       2.294  -3.500  -0.513  0.00  0.00     0.046 A 
HETATM   14  C   UNK N   1       0.982  -1.578   0.145  0.00  0.00     0.057 A 
HETATM   15  N   UNK N   1       3.634  -3.933  -0.591  0.00  0.00    -0.322 N 
HETATM   16  C   UNK N   1       1.174  -4.184  -0.967  0.00  0.00     0.033 A 
HETATM   17  H   UNK N   1       3.952  -4.800  -0.933  0.00  0.00     0.169 HD
HETATM   18  C   UNK N   1      -0.073  -3.544  -0.857  0.00  0.00     0.044 A 
HETATM   19  C   UNK N   1      -0.168  -2.246  -0.306  0.00  0.00     0.117 A 
HETATM   20  F   UNK N   1      -1.373  -1.634  -0.229  0.00  0.00    -0.206 F 
HETATM   21  O   UNK N   1       5.617  -2.983  -0.093  0.00  0.00    -0.267 OA
ENDBRANCH   4   9
BRANCH   2  22
HETATM   22  C   UNK N   1       8.097   1.728  -0.478  0.00  0.00     0.254 C 
HETATM   23  O   UNK N   1       7.611   2.414  -1.363  0.00  0.00    -0.268 OA
HETATM   24  N   UNK N   1       9.428   1.836  -0.278  0.00  0.00    -0.355 N 
HETATM   25  H   UNK N   1       9.928   2.354  -0.950  0.00  0.00     0.162 HD
BRANCH  24  26
HETATM   26  C   UNK N   1      10.198   1.284   0.800  0.00  0.00     0.153 C 
BRANCH  26  27
HETATM   27  C   UNK N   1      11.686   1.514   0.549  0.00  0.00     0.292 C 
BRANCH  27  28
HETATM   28  N   UNK N   1      11.915   2.600  -0.409  0.00  0.00     0.089 N 
BRANCH  28  29
HETATM   29  C   UNK N   1      13.132   2.349  -1.182  0.00  0.00     0.268 C 
HETATM   30  C   UNK N   1      14.381   2.233  -0.314  0.00  0.00     0.037 C 
ENDBRANCH  28  29
BRANCH  28  31
HETATM   31  C   UNK N   1      11.991   3.887   0.276  0.00  0.00     0.268 C 
HETATM   32  C   UNK N   1      10.620   4.540   0.326  0.00  0.00     0.037 C 
ENDBRANCH  28  31
ENDBRANCH  27  28
ENDBRANCH  26  27
ENDBRANCH  24  26
ENDBRANCH   2  22
TORSDOF 7
