REMARK  22 active torsions:
REMARK  status: ('A' for Active; 'I' for Inactive)
REMARK    1  A    between atoms: C_20  and  O_1 
REMARK    2  A    between atoms: C_26  and  O_1 
REMARK    3  A    between atoms: C_21  and  O_2 
REMARK    4  A    between atoms: C_30  and  O_2 
REMARK    5  A    between atoms: C_27  and  O_4 
REMARK    6  A    between atoms: C_33  and  O_4 
REMARK    7  A    between atoms: C_23  and  O_5 
REMARK    8  A    between atoms: C_28  and  O_8 
REMARK    9  A    between atoms: C_32  and  O_9 
REMARK   10  A    between atoms: C_34  and  O_10 
REMARK   11  A    between atoms: C_37  and  O_11 
REMARK   12  A    between atoms: O_12  and  C_38 
REMARK   13  A    between atoms: C_39  and  O_13 
REMARK   14  A    between atoms: O_14  and  C_41 
REMARK   15  A    between atoms: C_22  and  N_15 
REMARK   16  A    between atoms: C_24  and  N_16 
REMARK   17  A    between atoms: C_31  and  N_17 
REMARK   18  A    between atoms: C_35  and  N_18 
REMARK   19  A    between atoms: N_19  and  C_42 
REMARK   20  A    between atoms: C_29  and  C_38 
REMARK   21  A    between atoms: C_36  and  C_41 
REMARK   22  A    between atoms: C_40  and  C_42 
ROOT
HETATM    1  C   UNK N   1       6.520  -1.640  -0.721  0.00  0.00     0.186 C 
HETATM    2  C   UNK N   1       5.463  -2.549  -1.375  0.00  0.00     0.178 C 
HETATM    3  C   UNK N   1       5.336  -3.988  -0.832  0.00  0.00     0.107 C 
HETATM    4  C   UNK N   1       7.854  -2.402  -0.753  0.00  0.00     0.172 C 
HETATM    5  C   UNK N   1       7.739  -3.792  -0.111  0.00  0.00     0.107 C 
HETATM    6  C   UNK N   1       6.712  -4.649  -0.856  0.00  0.00     0.054 C 
ENDROOT
BRANCH   1   7
HETATM    7  O   UNK N   1       6.129  -1.340   0.601  0.00  0.00    -0.348 OA
BRANCH   7   8
HETATM    8  C   UNK N   1       6.838  -0.242   1.163  0.00  0.00     0.292 C 
HETATM    9  O   UNK N   1       7.992  -0.673   1.858  0.00  0.00    -0.348 OA
HETATM   10  C   UNK N   1       9.110  -0.123   1.196  0.00  0.00     0.180 C 
HETATM   11  C   UNK N   1       8.608   0.639  -0.022  0.00  0.00     0.189 C 
HETATM   12  C   UNK N   1       7.165   0.957   0.271  0.00  0.00     0.205 C 
BRANCH  10  13
HETATM   13  C   UNK N   1      10.083  -1.240   0.824  0.00  0.00     0.198 C 
BRANCH  13  14
HETATM   14  O   UNK N   1      11.030  -0.818  -0.110  0.00  0.00    -0.398 OA
HETATM   15  H   UNK N   1      11.614  -1.241  -0.758  0.00  0.00     0.209 HD
ENDBRANCH  13  14
ENDBRANCH  10  13
BRANCH  11  16
HETATM   16  O   UNK N   1       9.438   1.689  -0.507  0.00  0.00    -0.348 OA
BRANCH  16  17
HETATM   17  C   UNK N   1       9.790   2.585   0.537  0.00  0.00     0.285 C 
HETATM   18  O   UNK N   1      10.859   2.090   1.326  0.00  0.00    -0.350 OA
HETATM   19  C   UNK N   1      11.984   1.889   0.496  0.00  0.00     0.173 C 
HETATM   20  C   UNK N   1      12.546   3.232   0.022  0.00  0.00     0.179 C 
HETATM   21  C   UNK N   1      11.449   3.933  -0.785  0.00  0.00     0.176 C 
HETATM   22  C   UNK N   1      10.141   3.988   0.013  0.00  0.00     0.161 C 
BRANCH  19  23
HETATM   23  C   UNK N   1      13.023   1.057   1.229  0.00  0.00     0.145 C 
BRANCH  23  24
HETATM   24  N   UNK N   1      14.009   0.556   0.288  0.00  0.00    -0.428 N 
HETATM   25  H   UNK N   1      14.051  -0.220  -0.373  0.00  0.00     0.150 HD
HETATM   26  H   UNK N   1      14.864   1.113   0.288  0.00  0.00     0.150 HD
ENDBRANCH  23  24
ENDBRANCH  19  23
BRANCH  20  27
HETATM   27  O   UNK N   1      12.924   4.010   1.122  0.00  0.00    -0.390 OA
HETATM   28  H   UNK N   1      13.522   4.053   1.884  0.00  0.00     0.210 HD
ENDBRANCH  20  27
BRANCH  21  29
HETATM   29  O   UNK N   1      11.860   5.215  -1.153  0.00  0.00    -0.391 OA
HETATM   30  H   UNK N   1      12.775   5.413  -1.409  0.00  0.00     0.210 HD
ENDBRANCH  21  29
BRANCH  22  31
HETATM   31  N   UNK N   1       9.063   4.519  -0.804  0.00  0.00    -0.420 N 
HETATM   32  H   UNK N   1       9.008   5.361  -1.378  0.00  0.00     0.150 HD
HETATM   33  H   UNK N   1       8.216   3.952  -0.804  0.00  0.00     0.150 HD
ENDBRANCH  22  31
ENDBRANCH  16  17
ENDBRANCH  11  16
BRANCH  12  34
HETATM   34  O   UNK N   1       7.066   2.112   1.048  0.00  0.00    -0.388 OA
HETATM   35  H   UNK N   1       7.726   2.574   1.589  0.00  0.00     0.210 HD
ENDBRANCH  12  34
ENDBRANCH   7   8
ENDBRANCH   1   7
BRANCH   2  36
HETATM   36  O   UNK N   1       4.366  -1.966  -2.053  0.00  0.00    -0.349 OA
BRANCH  36  37
HETATM   37  C   UNK N   1       3.323  -1.516  -1.202  0.00  0.00     0.285 C 
HETATM   38  O   UNK N   1       2.854  -2.516  -0.337  0.00  0.00    -0.349 OA
HETATM   39  C   UNK N   1       1.574  -2.130   0.104  0.00  0.00     0.179 C 
HETATM   40  C   UNK N   1       1.697  -0.900   1.015  0.00  0.00     0.180 C 
HETATM   41  C   UNK N   1       2.330   0.240   0.216  0.00  0.00     0.176 C 
HETATM   42  C   UNK N   1       3.627  -0.214  -0.455  0.00  0.00     0.161 C 
BRANCH  39  43
HETATM   43  C   UNK N   1       0.948  -3.285   0.870  0.00  0.00     0.198 C 
BRANCH  43  44
HETATM   44  O   UNK N   1       0.821  -4.399   0.039  0.00  0.00    -0.398 OA
HETATM   45  H   UNK N   1       0.106  -4.709  -0.539  0.00  0.00     0.209 HD
ENDBRANCH  43  44
ENDBRANCH  39  43
BRANCH  40  46
HETATM   46  O   UNK N   1       0.433  -0.505   1.463  0.00  0.00    -0.390 OA
HETATM   47  H   UNK N   1       0.233   0.392   1.774  0.00  0.00     0.210 HD
ENDBRANCH  40  46
BRANCH  41  48
HETATM   48  O   UNK N   1       2.572   1.337   1.044  0.00  0.00    -0.391 OA
HETATM   49  H   UNK N   1       3.316   1.572   1.620  0.00  0.00     0.210 HD
ENDBRANCH  41  48
BRANCH  42  50
HETATM   50  N   UNK N   1       4.073   0.807  -1.387  0.00  0.00    -0.420 N 
HETATM   51  H   UNK N   1       4.850   0.895  -2.041  0.00  0.00     0.150 HD
HETATM   52  H   UNK N   1       3.467   1.627  -1.387  0.00  0.00     0.150 HD
ENDBRANCH  42  50
ENDBRANCH  36  37
ENDBRANCH   2  36
BRANCH   4  53
HETATM   53  O   UNK N   1       8.318  -2.502  -2.068  0.00  0.00    -0.391 OA
HETATM   54  H   UNK N   1       8.419  -2.816  -2.980  0.00  0.00     0.210 HD
ENDBRANCH   4  53
BRANCH   3  55
HETATM   55  N   UNK N   1       4.839  -3.998   0.535  0.00  0.00    -0.423 N 
HETATM   56  H   UNK N   1       4.658  -3.700   1.494  0.00  0.00     0.150 HD
HETATM   57  H   UNK N   1       4.348  -4.892   0.535  0.00  0.00     0.150 HD
ENDBRANCH   3  55
BRANCH   5  58
HETATM   58  N   UNK N   1       9.031  -4.456  -0.113  0.00  0.00    -0.423 N 
HETATM   59  H   UNK N   1       9.080  -5.475  -0.114  0.00  0.00     0.150 HD
HETATM   60  H   UNK N   1       9.888  -3.904  -0.113  0.00  0.00     0.150 HD
ENDBRANCH   5  58
TORSDOF 22
