REMARK  8 active torsions:
REMARK  status: ('A' for Active; 'I' for Inactive)
REMARK    1  A    between atoms: O_3  and  C_27 
REMARK    2  A    between atoms: O_4  and  C_28 
REMARK       I    between atoms: N_5  and  C_16 
REMARK    3  A    between atoms: N_5  and  C_17 
REMARK    4  A    between atoms: N_6  and  C_19 
REMARK       I    between atoms: N_6  and  C_20 
REMARK    5  A    between atoms: N_11  and  C_24 
REMARK    6  A    between atoms: C_12  and  C_16 
REMARK    7  A    between atoms: C_17  and  C_18 
REMARK    8  A    between atoms: C_18  and  C_19 
ROOT
HETATM    1  N   UNK N   1       6.765   2.057  -0.325  0.00  0.00    -0.222 N 
HETATM    2  N   UNK N   1       9.148   1.709  -0.102  0.00  0.00    -0.191 N 
ATOM      3  HN  UNK N   1       9.266   2.722  -0.071  1.00  0.00     0.184 HD
HETATM    4  N   UNK N   1       7.744  -0.171  -0.238  0.00  0.00    -0.176 N 
ATOM      5  HN  UNK N   1       6.805  -0.562  -0.318  1.00  0.00     0.186 HD
HETATM    6  C   UNK N   1       7.896   1.183  -0.213  0.00  0.00     0.681 A 
HETATM    7  C   UNK N   1       6.981   3.480  -0.250  0.00  0.00     0.168 C 
HETATM    8  C   UNK N   1      10.091  -0.488  -0.062  0.00  0.00     0.038 A 
HETATM    9  C   UNK N   1      10.242   0.909  -0.031  0.00  0.00     0.066 A 
HETATM   10  C   UNK N   1       8.802  -1.013  -0.161  0.00  0.00     0.127 A 
HETATM   11  C   UNK N   1      11.216  -1.313  -0.003  0.00  0.00     0.057 A 
HETATM   12  C   UNK N   1      11.516   1.468   0.059  0.00  0.00     0.070 A 
HETATM   13  C   UNK N   1      12.503  -0.755   0.082  0.00  0.00     0.102 A 
HETATM   14  C   UNK N   1      12.655   0.643   0.114  0.00  0.00     0.103 A 
ENDROOT
BRANCH   1  15
HETATM   15  C   UNK N   1       5.397   1.623  -0.579  0.00  0.00     0.142 C 
BRANCH  15  16
HETATM   16  C   UNK N   1       5.147   0.117  -0.626  0.00  0.00     0.040 C 
BRANCH  16  17
HETATM   17  C   UNK N   1       4.442  -0.335   0.644  0.00  0.00     0.124 C 
BRANCH  17  18
HETATM   18  N   UNK N   1       3.148   0.296   0.698  0.00  0.00    -0.359 N 
HETATM   19  C   UNK N   1       2.138  -0.062  -0.133  0.00  0.00     0.246 C 
HETATM   20  O   UNK N   1       2.255  -1.022  -0.880  0.00  0.00    -0.271 OA
HETATM   21  H   UNK N   1       2.993   1.010   1.358  0.00  0.00     0.162 HD
BRANCH  19  22
HETATM   22  C   UNK N   1       0.897   0.762  -0.181  0.00  0.00     0.213 C 
HETATM   23  O   UNK N   1       0.301   0.838   1.082  0.00  0.00    -0.376 OA
HETATM   24  C   UNK N   1      -0.454   2.019   1.031  0.00  0.00     0.168 C 
HETATM   25  C   UNK N   1       0.273   3.013   0.151  0.00  0.00     0.029 C 
HETATM   26  C   UNK N   1       1.254   2.170  -0.603  0.00  0.00     0.043 C 
ENDBRANCH  19  22
ENDBRANCH  17  18
ENDBRANCH  16  17
ENDBRANCH  15  16
ENDBRANCH   1  15
BRANCH  10  27
HETATM   27  N   UNK N   1       8.586  -2.408  -0.195  0.00  0.00    -0.384 N 
HETATM   28  H   UNK N   1       7.669  -2.764  -0.219  0.00  0.00     0.157 HD
HETATM   29  H   UNK N   1       9.353  -3.025  -0.195  0.00  0.00     0.157 HD
ENDBRANCH  10  27
BRANCH  14  30
HETATM   30  O   UNK N   1      13.900   1.172   0.193  0.00  0.00    -0.353 OA
HETATM   31  C   UNK N   1      14.145   2.526   0.216  0.00  0.00     0.210 C 
ENDBRANCH  14  30
BRANCH  13  32
HETATM   32  O   UNK N   1      13.604  -1.544   0.130  0.00  0.00    -0.353 OA
HETATM   33  C   UNK N   1      13.549  -2.919   0.085  0.00  0.00     0.210 C 
ENDBRANCH  13  32
TORSDOF 8
