REMARK  5 active torsions:
REMARK  status: ('A' for Active; 'I' for Inactive)
REMARK    1  A    between atoms: O_2  and  C_21 
REMARK    2  A    between atoms: O_4  and  C_28 
REMARK    3  A    between atoms: N_6  and  C_19 
REMARK    4  A    between atoms: N_8  and  C_14 
REMARK    5  A    between atoms: C_26  and  C_28 
ROOT
HETATM    1  F   UNK N   1       3.448   2.439  -0.212  0.00  0.00    -0.204 F 
HETATM    2  O   UNK N   1       8.207   3.603  -0.399  0.00  0.00    -0.286 OA
HETATM    3  N   UNK N   1       8.252  -0.377   0.155  0.00  0.00    -0.348 N 
HETATM    4  C   UNK N   1       4.552   0.325   0.119  0.00  0.00     0.105 A 
HETATM    5  C   UNK N   1       7.028   0.280   0.099  0.00  0.00     0.085 A 
HETATM    6  C   UNK N   1       5.776  -0.397   0.250  0.00  0.00     0.125 A 
HETATM    7  C   UNK N   1       7.014   1.688  -0.101  0.00  0.00     0.048 A 
HETATM    8  C   UNK N   1       4.587   1.719  -0.065  0.00  0.00     0.146 A 
HETATM    9  C   UNK N   1       9.416   0.327   0.058  0.00  0.00     0.114 A 
HETATM   10  C   UNK N   1       5.802   2.380  -0.167  0.00  0.00     0.062 A 
HETATM   11  C   UNK N   1       9.440   1.705  -0.136  0.00  0.00     0.104 A 
HETATM   12  C   UNK N   1       8.221   2.394  -0.223  0.00  0.00     0.202 A 
ENDROOT
BRANCH   4  13
HETATM   13  N   UNK N   1       3.303  -0.373   0.094  0.00  0.00    -0.374 N 
HETATM   14  C   UNK N   1       2.039   0.226   0.447  0.00  0.00     0.130 C 
HETATM   15  C   UNK N   1       1.062  -0.483  -0.475  0.00  0.00     0.028 C 
HETATM   16  C   UNK N   1       1.694  -1.870  -0.678  0.00  0.00     0.100 C 
HETATM   17  C   UNK N   1      -0.376  -0.557   0.041  0.00  0.00     0.010 C 
HETATM   18  N   UNK N   1       1.499  -2.727   0.497  0.00  0.00    -0.415 N 
HETATM   19  C   UNK N   1       3.165  -1.538  -0.752  0.00  0.00     0.148 C 
HETATM   20  C   UNK N   1       0.073  -2.886   0.767  0.00  0.00     0.114 C 
HETATM   21  H   UNK N   1       2.249  -3.150   1.044  0.00  0.00     0.153 HD
HETATM   22  C   UNK N   1      -0.507  -1.546   1.195  0.00  0.00     0.020 C 
ENDBRANCH   4  13
BRANCH   6  23
HETATM   23  O   UNK N   1       5.771  -1.720   0.560  0.00  0.00    -0.351 OA
HETATM   24  C   UNK N   1       4.889  -2.306   1.444  0.00  0.00     0.210 C 
ENDBRANCH   6  23
BRANCH   3  25
HETATM   25  C   UNK N   1       8.395  -1.836   0.320  0.00  0.00     0.090 A 
HETATM   26  C   UNK N   1       7.868  -2.567  -0.917  0.00  0.00     0.028 A 
HETATM   27  C   UNK N   1       9.349  -2.431  -0.717  0.00  0.00     0.028 A 
ENDBRANCH   3  25
BRANCH  11  28
HETATM   28  C   UNK N   1      10.760   2.380  -0.250  0.00  0.00     0.181 C 
HETATM   29  O   UNK N   1      10.835   3.587  -0.419  0.00  0.00    -0.646 OA
BRANCH  28  30
HETATM   30  O   UNK N   1      11.894   1.655  -0.169  0.00  0.00    -0.772 OA
HETATM   31  H   UNK N   1      11.852   0.721  -0.113  0.00  0.00     0.167 HD
ENDBRANCH  28  30
ENDBRANCH  11  28
TORSDOF 5
