REMARK  8 active torsions:
REMARK  status: ('A' for Active; 'I' for Inactive)
REMARK    1  A    between atoms: C_8  and  O_1 
REMARK    2  A    between atoms: O_1  and  C_23 
REMARK    3  A    between atoms: C_22  and  O_3 
REMARK    4  A    between atoms: C_7  and  C_11 
REMARK    5  A    between atoms: C_11  and  C_15 
REMARK    6  A    between atoms: C_19  and  C_15 
REMARK    7  A    between atoms: C_23  and  C_25 
REMARK    8  A    between atoms: C_25  and  C_27 
ROOT
HETATM    1  C   UNK N   1       3.903   2.499  -0.176  0.00  0.00     0.052 C 
HETATM    2  C   UNK N   1       5.125   2.178   0.713  0.00  0.00     0.004 C 
HETATM    3  C   UNK N   1       2.622   1.855   0.430  0.00  0.00     0.141 C 
HETATM    4  C   UNK N   1       6.432   2.840   0.212  0.00  0.00     0.009 C 
HETATM    5  C   UNK N   1       3.805   4.015  -0.319  0.00  0.00    -0.055 C 
HETATM    6  C   UNK N   1       1.418   2.782   0.660  0.00  0.00     0.041 C 
HETATM    7  C   UNK N   1       1.341   3.868  -0.387  0.00  0.00     0.007 C 
HETATM    8  C   UNK N   1       2.622   4.639  -0.390  0.00  0.00    -0.015 C 
HETATM    9  C   UNK N   1       6.243   4.288  -0.163  0.00  0.00    -0.022 C 
HETATM   10  C   UNK N   1       5.035   4.828  -0.379  0.00  0.00     0.004 C 
HETATM   11  C   UNK N   1       7.081   2.120  -0.958  0.00  0.00     0.014 C 
HETATM   12  C   UNK N   1       0.196   4.803  -0.054  0.00  0.00     0.014 C 
ENDROOT
BRANCH   2  13
HETATM   13  C   UNK N   1       5.311   0.699   1.094  0.00  0.00     0.009 C 
BRANCH  13  14
HETATM   14  C   UNK N   1       5.379  -0.234  -0.107  0.00  0.00     0.033 C 
BRANCH  14  15
HETATM   15  C   UNK N   1       5.541  -1.662   0.369  0.00  0.00     0.134 C 
HETATM   16  O   UNK N   1       6.866  -2.052   0.307  0.00  0.00    -0.316 OA
HETATM   17  C   UNK N   1       7.266  -3.352   0.163  0.00  0.00     0.261 C 
HETATM   18  O   UNK N   1       8.447  -3.618   0.134  0.00  0.00    -0.265 OA
HETATM   19  C   UNK N   1       6.253  -4.458  -0.036  0.00  0.00     0.142 C 
HETATM   20  C   UNK N   1       4.819  -3.974   0.146  0.00  0.00     0.130 C 
HETATM   21  C   UNK N   1       4.649  -2.588  -0.443  0.00  0.00     0.065 C 
BRANCH  20  22
HETATM   22  O   UNK N   1       3.933  -4.865  -0.459  0.00  0.00    -0.395 OA
HETATM   23  H   UNK N   1       3.089  -4.641  -0.880  0.00  0.00     0.210 HD
ENDBRANCH  20  22
ENDBRANCH  14  15
ENDBRANCH  13  14
ENDBRANCH   2  13
BRANCH   3  24
HETATM   24  O   UNK N   1       2.326   0.651  -0.189  0.00  0.00    -0.315 OA
BRANCH  24  25
HETATM   25  C   UNK N   1       1.397  -0.231   0.260  0.00  0.00     0.263 C 
HETATM   26  O   UNK N   1       0.468   0.138   0.966  0.00  0.00    -0.265 OA
BRANCH  25  27
HETATM   27  C   UNK N   1       1.583  -1.688  -0.037  0.00  0.00     0.081 C 
HETATM   28  C   UNK N   1       1.872  -2.452   1.247  0.00  0.00     0.020 C 
BRANCH  27  29
HETATM   29  C   UNK N   1       0.439  -2.320  -0.830  0.00  0.00     0.010 C 
HETATM   30  C   UNK N   1      -0.834  -2.479  -0.012  0.00  0.00     0.006 C 
ENDBRANCH  27  29
ENDBRANCH  25  27
ENDBRANCH  24  25
ENDBRANCH   3  24
TORSDOF 8
