REMARK  6 active torsions:
REMARK  status: ('A' for Active; 'I' for Inactive)
REMARK    1  A    between atoms: C_6  and  O_2 
REMARK    2  A    between atoms: O_2  and  C_13 
REMARK    3  A    between atoms: O_3  and  C_16 
REMARK    4  A    between atoms: O_3  and  C_22 
REMARK    5  A    between atoms: C_5  and  C_6 
REMARK    6  A    between atoms: C_6  and  C_10 
ROOT
HETATM    1  C   UNK N   1       4.798  -0.445   0.666  0.00  0.00     0.192 C 
ENDROOT
BRANCH   1   2
HETATM    2  O   UNK N   1       3.953   0.549   1.171  0.00  0.00    -0.336 OA
BRANCH   2   3
HETATM    3  C   UNK N   1       3.594   1.721   0.571  0.00  0.00     0.103 A 
HETATM    4  C   UNK N   1       2.304   1.885   0.023  0.00  0.00     0.102 A 
HETATM    5  C   UNK N   1       1.955   3.124  -0.557  0.00  0.00     0.039 A 
HETATM    6  C   UNK N   1       2.861   4.183  -0.577  0.00  0.00     0.003 A 
HETATM    7  C   UNK N   1       4.121   4.027  -0.008  0.00  0.00     0.003 A 
HETATM    8  C   UNK N   1       4.478   2.807   0.568  0.00  0.00     0.040 A 
BRANCH   4   9
HETATM    9  O   UNK N   1       1.411   0.865   0.066  0.00  0.00    -0.349 OA
BRANCH   9  10
HETATM   10  C   UNK N   1       0.120   0.949  -0.424  0.00  0.00     0.171 C 
HETATM   11  C   UNK N   1      -0.737   1.851   0.452  0.00  0.00     0.034 C 
ENDBRANCH   9  10
ENDBRANCH   4   9
ENDBRANCH   2   3
ENDBRANCH   1   2
BRANCH   1  12
HETATM   12  C   UNK N   1       4.110  -1.445  -0.286  0.00  0.00     0.172 C 
HETATM   13  O   UNK N   1       5.004  -2.471  -0.708  0.00  0.00    -0.380 OA
HETATM   14  C   UNK N   1       5.050  -3.506   0.249  0.00  0.00     0.187 C 
HETATM   15  C   UNK N   1       3.708  -4.248   0.279  0.00  0.00     0.140 C 
HETATM   16  N   UNK N   1       2.597  -3.375  -0.124  0.00  0.00    -0.417 N 
HETATM   17  C   UNK N   1       2.840  -2.024   0.378  0.00  0.00     0.148 C 
HETATM   18  H   UNK N   1       1.785  -3.666  -0.668  0.00  0.00     0.153 HD
ENDBRANCH   1  12
BRANCH   1  19
HETATM   19  C   UNK N   1       6.244  -0.094   0.341  0.00  0.00    -0.026 A 
HETATM   20  C   UNK N   1       6.633   1.170  -0.114  0.00  0.00     0.010 A 
HETATM   21  C   UNK N   1       7.971   1.448  -0.405  0.00  0.00     0.001 A 
HETATM   22  C   UNK N   1       8.938   0.452  -0.261  0.00  0.00     0.000 A 
HETATM   23  C   UNK N   1       8.564  -0.819   0.181  0.00  0.00     0.001 A 
HETATM   24  C   UNK N   1       7.226  -1.087   0.484  0.00  0.00     0.010 A 
ENDBRANCH   1  19
TORSDOF 6
