REMARK  5 active torsions:
REMARK  status: ('A' for Active; 'I' for Inactive)
REMARK    1  A    between atoms: S_1  and  C_10 
REMARK    2  A    between atoms: S_1  and  C_13 
REMARK    3  A    between atoms: O_2  and  C_15 
REMARK    4  A    between atoms: O_4  and  C_22 
REMARK    5  A    between atoms: C_10  and  C_11 
ROOT
HETATM    1  S   UNK N   1       6.852   0.180   1.115  0.00  0.00     0.090 S 
HETATM    2  O   UNK N   1       7.064   1.694   1.275  0.00  0.00    -0.249 OA
ENDROOT
BRANCH   1   3
HETATM    3  C   UNK N   1       7.388   0.217  -0.623  0.00  0.00     0.175 C 
BRANCH   3   4
HETATM    4  C   UNK N   1       8.848  -0.063  -0.638  0.00  0.00     0.029 A 
HETATM    5  N   UNK N   1       9.705   0.965  -0.861  0.00  0.00    -0.367 N 
HETATM    6  C   UNK N   1      11.048   0.798  -0.801  0.00  0.00     0.097 A 
ATOM      7  HN  UNK N   1       9.328   1.887  -1.079  1.00  0.00     0.165 HD
HETATM    8  C   UNK N   1      11.598  -0.446  -0.492  0.00  0.00    -0.013 A 
HETATM    9  C   UNK N   1      10.732  -1.553  -0.264  0.00  0.00     0.083 A 
HETATM   10  C   UNK N   1      13.083  -0.536  -0.420  0.00  0.00     0.052 C 
HETATM   11  C   UNK N   1       9.346  -1.348  -0.352  0.00  0.00    -0.005 A 
HETATM   12  C   UNK N   1       8.409  -2.493  -0.112  0.00  0.00     0.053 C 
BRANCH   9  13
HETATM   13  O   UNK N   1      11.167  -2.805   0.053  0.00  0.00    -0.355 OA
HETATM   14  C   UNK N   1      12.465  -3.179   0.311  0.00  0.00     0.210 C 
ENDBRANCH   9  13
ENDBRANCH   3   4
ENDBRANCH   1   3
BRANCH   1  15
HETATM   15  C   UNK N   1       5.134   0.335   0.661  0.00  0.00     0.176 A 
HETATM   16  N   UNK N   1       4.495   1.522   0.495  0.00  0.00    -0.333 N 
HETATM   17  C   UNK N   1       3.247   1.167   0.178  0.00  0.00     0.063 A 
HETATM   18  H   UNK N   1       4.865   2.430   0.586  0.00  0.00     0.168 HD
HETATM   19  C   UNK N   1       3.143  -0.188   0.155  0.00  0.00     0.061 A 
HETATM   20  C   UNK N   1       2.167   1.998  -0.090  0.00  0.00     0.068 A 
HETATM   21  N   UNK N   1       4.328  -0.736   0.458  0.00  0.00    -0.333 N 
HETATM   22  C   UNK N   1       1.952  -0.836  -0.141  0.00  0.00     0.035 A 
ATOM     23  HN  UNK N   1       4.567  -1.725   0.522  1.00  0.00     0.168 HD
HETATM   24  C   UNK N   1       0.831  -0.030  -0.417  0.00  0.00     0.039 A 
HETATM   25  C   UNK N   1       0.933   1.392  -0.391  0.00  0.00     0.070 A 
BRANCH  25  26
HETATM   26  O   UNK N   1      -0.136   2.182  -0.643  0.00  0.00    -0.356 OA
HETATM   27  C   UNK N   1      -1.390   1.685  -0.913  0.00  0.00     0.210 C 
ENDBRANCH  25  26
ENDBRANCH   1  15
TORSDOF 5
