REMARK  1 active torsions:
REMARK  status: ('A' for Active; 'I' for Inactive)
REMARK    1  A    between atoms: C_12  and  C_17 
ROOT
HETATM    1 Cl   UNK N   1      -0.564  -0.248   0.572  0.00  0.00    -0.084 Cl
HETATM    2  N   UNK N   1       5.125  -2.115   0.078  0.00  0.00    -0.286 N 
HETATM    3  N   UNK N   1       5.739   0.824   0.649  0.00  0.00    -0.381 N 
ATOM      4  HN  UNK N   1       6.342   1.626   0.464  1.00  0.00     0.160 HD
HETATM    5  N   UNK N   1       7.331  -2.322   0.158  0.00  0.00    -0.286 N 
ATOM      6  HN  UNK N   1       8.312  -2.107   0.341  1.00  0.00     0.188 HD
HETATM    7  N   UNK N   1       6.860  -3.420  -0.411  0.00  0.00    -0.287 N 
ATOM      8  HN  UNK N   1       7.409  -4.207  -0.757  1.00  0.00     0.188 HD
HETATM    9  C   UNK N   1       3.786  -1.600   0.248  0.00  0.00     0.054 A 
HETATM   10  C   UNK N   1       3.484  -0.195   0.364  0.00  0.00     0.020 A 
HETATM   11  C   UNK N   1       6.274  -1.540   0.450  0.00  0.00     0.122 A 
HETATM   12  C   UNK N   1       4.495   0.953   0.309  0.00  0.00     0.051 C 
HETATM   13  C   UNK N   1       6.363  -0.315   1.254  0.00  0.00     0.198 C 
HETATM   14  C   UNK N   1       5.520  -3.301  -0.446  0.00  0.00     0.100 A 
HETATM   15  C   UNK N   1       2.723  -2.523   0.228  0.00  0.00     0.033 A 
HETATM   16  C   UNK N   1       2.126   0.163   0.462  0.00  0.00     0.040 A 
HETATM   17  C   UNK N   1       1.398  -2.121   0.338  0.00  0.00     0.026 A 
HETATM   18  C   UNK N   1       1.100  -0.774   0.457  0.00  0.00     0.035 A 
HETATM   19  C   UNK N   1       4.628  -4.361  -1.001  0.00  0.00     0.091 C 
ENDROOT
BRANCH  12  20
HETATM   20  C   UNK N   1       4.067   2.352  -0.066  0.00  0.00    -0.009 A 
HETATM   21  C   UNK N   1       2.785   2.648  -0.565  0.00  0.00     0.014 A 
HETATM   22  C   UNK N   1       2.413   3.963  -0.862  0.00  0.00     0.001 A 
HETATM   23  C   UNK N   1       3.317   5.006  -0.663  0.00  0.00     0.000 A 
HETATM   24  C   UNK N   1       4.598   4.733  -0.180  0.00  0.00     0.001 A 
HETATM   25  C   UNK N   1       4.970   3.418   0.112  0.00  0.00     0.014 A 
ENDBRANCH  12  20
TORSDOF 1
