REMARK  4 active torsions:
REMARK  status: ('A' for Active; 'I' for Inactive)
REMARK    1  A    between atoms: C_13  and  O_1 
REMARK    2  A    between atoms: O_2  and  C_16 
REMARK    3  A    between atoms: C_11  and  N_4 
REMARK       I    between atoms: N_10  and  C_22 
REMARK    4  A    between atoms: C_12  and  C_16 
ROOT
HETATM    1  O   UNK N   1       2.528  -4.357  -0.543  0.00  0.00    -0.265 OA
HETATM    2  N   UNK N   1       5.237  -0.926   0.389  0.00  0.00    -0.318 N 
HETATM    3  N   UNK N   1       2.862  -0.449   0.180  0.00  0.00    -0.174 N 
HETATM    4  N   UNK N   1       5.088  -3.135  -0.032  0.00  0.00    -0.345 N 
ATOM      5  HN  UNK N   1       5.337  -4.112  -0.183  1.00  0.00     0.167 HD
HETATM    6  N   UNK N   1       1.520  -2.351  -0.311  0.00  0.00    -0.154 N 
ATOM      7  HN  UNK N   1       0.599  -2.755  -0.484  1.00  0.00     0.187 HD
HETATM    8  N   UNK N   1       0.482  -0.198  -0.024  0.00  0.00    -0.234 N 
HETATM    9  C   UNK N   1       3.954  -1.253   0.148  0.00  0.00     0.157 A 
HETATM   10  C   UNK N   1       5.917  -2.099   0.281  0.00  0.00     0.186 A 
HETATM   11  C   UNK N   1       3.867  -2.576  -0.097  0.00  0.00     0.147 A 
HETATM   12  C   UNK N   1       2.633  -3.162  -0.335  0.00  0.00     0.290 A 
HETATM   13  C   UNK N   1       1.634  -1.006  -0.056  0.00  0.00     0.680 A 
HETATM   14  H   UNK N   1       2.951   0.513   0.368  0.00  0.00     0.186 HD
HETATM   15  H   UNK N   1       0.568   0.782  -0.002  0.00  0.00     0.174 HD
HETATM   16  H   UNK N   1      -0.411  -0.614  -0.024  0.00  0.00     0.174 HD
ENDROOT
BRANCH   2  17
HETATM   17  C   UNK N   1       5.819   0.370   0.790  0.00  0.00     0.123 C 
HETATM   18  C   UNK N   1       4.836   1.524   0.615  0.00  0.00     0.062 C 
HETATM   19  C   UNK N   1       5.676   2.743   0.276  0.00  0.00     0.130 C 
HETATM   20  C   UNK N   1       6.920   2.247  -0.445  0.00  0.00     0.068 C 
HETATM   21  C   UNK N   1       6.981   0.814  -0.038  0.00  0.00    -0.057 C 
HETATM   22  C   UNK N   1       8.058   0.053  -0.251  0.00  0.00     0.017 C 
BRANCH  19  23
HETATM   23  O   UNK N   1       4.964   3.633  -0.527  0.00  0.00    -0.395 OA
HETATM   24  H   UNK N   1       5.253   4.372  -1.085  0.00  0.00     0.210 HD
ENDBRANCH  19  23
BRANCH  20  25
HETATM   25  C   UNK N   1       8.124   3.026   0.084  0.00  0.00     0.175 C 
BRANCH  25  26
HETATM   26  O   UNK N   1       8.006   4.383  -0.224  0.00  0.00    -0.400 OA
HETATM   27  H   UNK N   1       8.782   4.925  -0.437  0.00  0.00     0.209 HD
ENDBRANCH  25  26
ENDBRANCH  20  25
ENDBRANCH   2  17
TORSDOF 4
