REMARK  6 active torsions:
REMARK  status: ('A' for Active; 'I' for Inactive)
REMARK    1  A    between atoms: S_1  and  C_12 
REMARK    2  A    between atoms: S_1  and  C_15 
REMARK    3  A    between atoms: O_5  and  C_18 
REMARK    4  A    between atoms: O_5  and  C_26 
REMARK    5  A    between atoms: C_12  and  C_13 
REMARK    6  A    between atoms: C_26  and  C_27 
ROOT
HETATM    1  N   UNK N   1       8.102   2.354   0.531  0.00  0.00    -0.368 N 
ATOM      2  HN  UNK N   1       7.893   3.325   0.762  1.00  0.00     0.165 HD
HETATM    3  C   UNK N   1       7.087   1.448   0.487  0.00  0.00     0.029 A 
HETATM    4  C   UNK N   1       7.359   0.105   0.175  0.00  0.00    -0.005 A 
HETATM    5  C   UNK N   1       8.675  -0.281  -0.110  0.00  0.00     0.078 A 
HETATM    6  C   UNK N   1       6.256  -0.906   0.116  0.00  0.00     0.053 C 
HETATM    7  C   UNK N   1       9.698   0.678  -0.061  0.00  0.00     0.054 A 
HETATM    8  C   UNK N   1       9.389   1.997   0.273  0.00  0.00     0.091 A 
ENDROOT
BRANCH   3   9
HETATM    9  C   UNK N   1       5.687   1.916   0.701  0.00  0.00     0.175 C 
BRANCH   9  10
HETATM   10  S   UNK N   1       4.986   2.267  -0.940  0.00  0.00     0.090 S 
HETATM   11  O   UNK N   1       4.805   3.754  -0.600  0.00  0.00    -0.249 OA
BRANCH  10  12
HETATM   12  C   UNK N   1       3.310   1.812  -0.486  0.00  0.00     0.176 A 
HETATM   13  N   UNK N   1       2.331   2.714  -0.211  0.00  0.00    -0.333 N 
HETATM   14  C   UNK N   1       1.249   1.956  -0.004  0.00  0.00     0.061 A 
HETATM   15  H   UNK N   1       2.402   3.695  -0.172  0.00  0.00     0.168 HD
HETATM   16  C   UNK N   1       1.568   0.642  -0.157  0.00  0.00     0.061 A 
HETATM   17  C   UNK N   1      -0.042   2.373   0.305  0.00  0.00     0.032 A 
HETATM   18  N   UNK N   1       2.870   0.528  -0.465  0.00  0.00    -0.333 N 
HETATM   19  C   UNK N   1       0.627  -0.371  -0.014  0.00  0.00     0.032 A 
ATOM     20  HN  UNK N   1       3.403  -0.323  -0.642  1.00  0.00     0.168 HD
HETATM   21  C   UNK N   1      -0.693   0.011   0.301  0.00  0.00     0.002 A 
HETATM   22  C   UNK N   1      -1.026   1.378   0.459  0.00  0.00     0.002 A 
ENDBRANCH  10  12
ENDBRANCH   9  10
ENDBRANCH   3   9
BRANCH   5  23
HETATM   23  O   UNK N   1       8.926  -1.569  -0.441  0.00  0.00    -0.342 OA
BRANCH  23  24
HETATM   24  C   UNK N   1      10.135  -2.035  -0.909  0.00  0.00     0.293 C 
BRANCH  24  25
HETATM   25  C   UNK N   1      10.722  -3.047   0.059  0.00  0.00     0.408 C 
HETATM   26  F   UNK N   1       9.732  -3.895   0.526  0.00  0.00    -0.169 F 
HETATM   27  F   UNK N   1      11.302  -2.386   1.125  0.00  0.00    -0.169 F 
HETATM   28  F   UNK N   1      11.683  -3.793  -0.595  0.00  0.00    -0.169 F 
ENDBRANCH  24  25
ENDBRANCH  23  24
ENDBRANCH   5  23
TORSDOF 6
