REMARK  7 active torsions:
REMARK  status: ('A' for Active; 'I' for Inactive)
REMARK    1  A    between atoms: O_2  and  C_20 
REMARK    2  A    between atoms: O_3  and  C_21 
REMARK    3  A    between atoms: N_6  and  C_9 
REMARK    4  A    between atoms: N_6  and  C_10 
REMARK       I    between atoms: N_6  and  C_11 
REMARK    5  A    between atoms: N_7  and  C_19 
REMARK    6  A    between atoms: C_11  and  C_15 
REMARK    7  A    between atoms: C_14  and  C_16 
ROOT
HETATM    1  N   UNK N   1       6.986  -0.091   0.239  0.00  0.00    -0.191 NA
HETATM    2  C   UNK N   1       4.751   1.249   0.057  0.00  0.00     0.113 C 
HETATM    3  C   UNK N   1       3.629   0.600  -0.210  0.00  0.00     0.040 C 
HETATM    4  C   UNK N   1       6.016   0.539   0.168  0.00  0.00     0.105 C 
ENDROOT
BRANCH   2   5
HETATM    5  C   UNK N   1       4.630   2.673   0.371  0.00  0.00     0.264 C 
HETATM    6  O   UNK N   1       3.536   3.098   0.736  0.00  0.00    -0.267 OA
HETATM    7  N   UNK N   1       5.683   3.525   0.257  0.00  0.00    -0.348 N 
BRANCH   7   8
HETATM    8  C   UNK N   1       5.489   4.912   0.582  0.00  0.00     0.121 C 
HETATM    9  C   UNK N   1       5.355   5.705  -0.699  0.00  0.00     0.026 C 
ENDBRANCH   7   8
BRANCH   7  10
HETATM   10  C   UNK N   1       6.913   3.136  -0.409  0.00  0.00     0.121 C 
HETATM   11  C   UNK N   1       7.963   2.652   0.574  0.00  0.00     0.026 C 
ENDBRANCH   7  10
ENDBRANCH   2   5
BRANCH   3  12
HETATM   12  C   UNK N   1       3.563  -0.823  -0.380  0.00  0.00    -0.029 A 
HETATM   13  C   UNK N   1       2.376  -1.387  -0.057  0.00  0.00     0.050 A 
HETATM   14  C   UNK N   1       2.261  -2.750   0.064  0.00  0.00     0.139 A 
HETATM   15  C   UNK N   1       3.421  -3.568  -0.062  0.00  0.00     0.132 A 
HETATM   16  C   UNK N   1       4.633  -2.978  -0.440  0.00  0.00     0.102 A 
HETATM   17  C   UNK N   1       4.684  -1.620  -0.621  0.00  0.00     0.051 A 
BRANCH  14  18
HETATM   18  N   UNK N   1       0.956  -3.258   0.218  0.00  0.00    -0.113 N 
HETATM   19  O   UNK N   1      -0.056  -2.412   0.196  0.00  0.00    -0.532 OA
HETATM   20  O   UNK N   1       0.746  -4.413   0.020  0.00  0.00    -0.532 OA
ENDBRANCH  14  18
BRANCH  15  21
HETATM   21  O   UNK N   1       3.369  -4.892   0.146  0.00  0.00    -0.356 OA
HETATM   22  H   UNK N   1       2.550  -5.324   0.291  0.00  0.00     0.218 HD
ENDBRANCH  15  21
BRANCH  16  23
HETATM   23  O   UNK N   1       5.748  -3.705  -0.621  0.00  0.00    -0.358 OA
HETATM   24  H   UNK N   1       5.698  -4.632  -0.748  0.00  0.00     0.217 HD
ENDBRANCH  16  23
ENDBRANCH   3  12
TORSDOF 7
