REMARK  9 active torsions:
REMARK  status: ('A' for Active; 'I' for Inactive)
REMARK    1  A    between atoms: C_1  and  N_7 
REMARK    2  A    between atoms: N_7  and  C_8 
REMARK    3  A    between atoms: C_9  and  C_14 
REMARK       I    between atoms: C_14  and  N_15 
REMARK    4  A    between atoms: N_15  and  O_17 
REMARK    5  A    between atoms: O_17  and  C_18 
REMARK    6  A    between atoms: C_18  and  C_19 
REMARK    7  A    between atoms: C_19  and  C_20 
REMARK    8  A    between atoms: C_19  and  O_21 
REMARK    9  A    between atoms: C_20  and  O_22 
ROOT
HETATM    1  C   UNK N   1      -2.337  -0.565  -0.019  0.00  0.00     0.090 A 
HETATM    2  C   UNK N   1      -1.310  -1.031   0.835  0.00  0.00     0.064 A 
HETATM    3  C   UNK N   1      -1.381  -2.326   1.362  0.00  0.00     0.022 A 
HETATM    4  C   UNK N   1      -2.416  -3.183   1.000  0.00  0.00     0.046 A 
HETATM    5  C   UNK N   1      -3.411  -2.748   0.128  0.00  0.00     0.157 A 
HETATM    6  C   UNK N   1      -3.387  -1.442  -0.376  0.00  0.00     0.182 A 
HETATM    7  F   UNK N   1      -4.379  -1.040  -1.209  0.00  0.00    -0.200 F 
HETATM    8  F   UNK N   1      -4.417  -3.591  -0.212  0.00  0.00    -0.203 F 
ENDROOT
BRANCH   2   9
HETATM    9  C   UNK N   1      -0.197  -0.158   1.275  0.00  0.00     0.277 C 
HETATM   10  N   UNK N   1       0.578   0.517   0.391  0.00  0.00    -0.231 N 
HETATM   11  H   UNK N   1       1.201   1.197   0.736  0.00  0.00     0.197 HD
HETATM   12  O   UNK N   1       0.086  -0.108   2.458  0.00  0.00    -0.265 OA
BRANCH  10  13
HETATM   13  O   UNK N   1       0.535   0.301  -0.935  0.00  0.00    -0.275 OA
BRANCH  13  14
HETATM   14  C   UNK N   1       1.535  -0.666  -1.235  0.00  0.00     0.235 C 
BRANCH  14  15
HETATM   15  C   UNK N   1       2.904  -0.429  -0.561  0.00  0.00     0.167 C 
BRANCH  15  16
HETATM   16  C   UNK N   1       3.963  -1.329  -1.175  0.00  0.00     0.198 C 
BRANCH  16  17
HETATM   17  O   UNK N   1       5.190  -1.130  -0.537  0.00  0.00    -0.398 OA
HETATM   18  H   UNK N   1       5.736  -1.798  -0.094  0.00  0.00     0.209 HD
ENDBRANCH  16  17
ENDBRANCH  15  16
BRANCH  15  19
HETATM   19  O   UNK N   1       3.285   0.906  -0.711  0.00  0.00    -0.391 OA
HETATM   20  H   UNK N   1       4.220   1.140  -0.815  0.00  0.00     0.210 HD
ENDBRANCH  15  19
ENDBRANCH  14  15
ENDBRANCH  13  14
ENDBRANCH  10  13
ENDBRANCH   2   9
BRANCH   1  21
HETATM   21  N   UNK N   1      -2.331   0.799  -0.439  0.00  0.00    -0.350 N 
HETATM   22  H   UNK N   1      -1.499   1.155  -0.827  0.00  0.00     0.166 HD
BRANCH  21  23
HETATM   23  C   UNK N   1      -3.447   1.686  -0.336  0.00  0.00     0.071 A 
HETATM   24  C   UNK N   1      -4.661   1.279   0.247  0.00  0.00     0.034 A 
HETATM   25  C   UNK N   1      -5.721   2.179   0.385  0.00  0.00     0.020 A 
HETATM   26  C   UNK N   1      -5.576   3.500  -0.043  0.00  0.00     0.009 A 
HETATM   27  C   UNK N   1      -4.370   3.920  -0.609  0.00  0.00     0.062 A 
HETATM   28  I   UNK N   1      -7.165   4.862   0.186  0.00  0.00    -0.044 I 
HETATM   29  C   UNK N   1      -3.308   3.019  -0.756  0.00  0.00     0.144 A 
HETATM   30  F   UNK N   1      -2.137   3.450  -1.285  0.00  0.00    -0.204 F 
ENDBRANCH  21  23
ENDBRANCH   1  21
TORSDOF 9
