REMARK  7 active torsions:
REMARK  status: ('A' for Active; 'I' for Inactive)
REMARK    1  A    between atoms: S_1  and  N_6 
REMARK    2  A    between atoms: S_1  and  C_18 
REMARK    3  A    between atoms: O_4  and  C_25 
REMARK    4  A    between atoms: O_4  and  C_34 
REMARK    5  A    between atoms: C_21  and  C_23 
REMARK    6  A    between atoms: C_27  and  C_29 
REMARK    7  A    between atoms: C_29  and  C_31 
ROOT
HETATM    1  C   UNK N   1       4.600   0.608   0.623  0.00  0.00     0.075 A 
HETATM    2  C   UNK N   1       5.711  -0.150   0.304  0.00  0.00     0.042 A 
HETATM    3  C   UNK N   1       6.909   0.449  -0.066  0.00  0.00     0.043 A 
HETATM    4  C   UNK N   1       4.653   2.002   0.540  0.00  0.00     0.027 A 
HETATM    5  C   UNK N   1       6.988   1.858  -0.149  0.00  0.00     0.082 A 
HETATM    6  C   UNK N   1       5.841   2.627   0.142  0.00  0.00     0.039 A 
ENDROOT
BRANCH   3   7
HETATM    7  C   UNK N   1       8.073  -0.433  -0.220  0.00  0.00     0.121 A 
HETATM    8  N   UNK N   1       9.323   0.057   0.027  0.00  0.00    -0.338 N 
HETATM    9  C   UNK N   1      10.348  -0.817   0.109  0.00  0.00     0.092 A 
HETATM   10  H   UNK N   1       9.474   1.023   0.143  0.00  0.00     0.167 HD
HETATM   11  C   UNK N   1      11.663  -0.614   0.422  0.00  0.00     0.055 A 
HETATM   12  C   UNK N   1      10.196  -2.148  -0.069  0.00  0.00     0.147 A 
HETATM   13  N   UNK N   1      12.292  -1.816   0.419  0.00  0.00    -0.300 N 
HETATM   14  N   UNK N   1      11.389  -2.745   0.113  0.00  0.00    -0.289 N 
ATOM     15  HN  UNK N   1      13.280  -1.979   0.617  1.00  0.00     0.187 HD
HETATM   16  C   UNK N   1      11.676  -4.169   0.051  0.00  0.00     0.178 C 
HETATM   17  C   UNK N   1       8.942  -2.666  -0.356  0.00  0.00     0.277 A 
HETATM   18  O   UNK N   1       8.764  -3.859  -0.523  0.00  0.00    -0.265 OA
HETATM   19  N   UNK N   1       7.885  -1.787  -0.401  0.00  0.00    -0.307 N 
ATOM     20  HN  UNK N   1       6.945  -2.143  -0.573  1.00  0.00     0.170 HD
BRANCH  11  21
HETATM   21  C   UNK N   1      12.279   0.693   0.779  0.00  0.00     0.061 C 
BRANCH  21  22
HETATM   22  C   UNK N   1      13.302   1.110  -0.251  0.00  0.00     0.002 C 
HETATM   23  C   UNK N   1      13.635   2.571  -0.037  0.00  0.00     0.005 C 
ENDBRANCH  21  22
ENDBRANCH  11  21
ENDBRANCH   3   7
BRANCH   5  24
HETATM   24  O   UNK N   1       8.153   2.448  -0.516  0.00  0.00    -0.351 OA
BRANCH  24  25
HETATM   25  C   UNK N   1       8.344   3.810  -0.565  0.00  0.00     0.171 C 
HETATM   26  C   UNK N   1       9.599   4.163   0.206  0.00  0.00     0.034 C 
ENDBRANCH  24  25
ENDBRANCH   5  24
BRANCH   1  27
HETATM   27  S   UNK N   1       3.144  -0.248   1.168  0.00  0.00     0.243 S 
HETATM   28  O   UNK N   1       2.211   0.611   2.038  0.00  0.00    -0.206 OA
HETATM   29  O   UNK N   1       3.488  -1.418   2.109  0.00  0.00    -0.206 OA
BRANCH  27  30
HETATM   30  N   UNK N   1       2.182  -0.927  -0.157  0.00  0.00    -0.203 NA
HETATM   31  C   UNK N   1       0.759  -0.704   0.052  0.00  0.00     0.138 C 
HETATM   32  C   UNK N   1       0.013  -1.148  -1.207  0.00  0.00     0.287 C 
HETATM   33  N   UNK N   1       0.279  -2.556  -1.532  0.00  0.00     0.086 N 
HETATM   34  C   UNK N   1       1.716  -2.868  -1.545  0.00  0.00     0.287 C 
HETATM   35  C   UNK N   1      -0.407  -3.419  -0.581  0.00  0.00     0.310 C 
HETATM   36  C   UNK N   1       2.424  -2.359  -0.287  0.00  0.00     0.138 C 
ENDBRANCH  27  30
ENDBRANCH   1  27
TORSDOF 7
