REMARK  6 active torsions:
REMARK  status: ('A' for Active; 'I' for Inactive)
REMARK    1  A    between atoms: O_1  and  C_22 
REMARK    2  A    between atoms: C_6  and  C_11 
REMARK    3  A    between atoms: C_13  and  C_14 
REMARK    4  A    between atoms: C_16  and  C_17 
REMARK    5  A    between atoms: C_18  and  C_19 
REMARK    6  A    between atoms: C_21  and  C_22 
ROOT
HETATM    1  C   UNK N   1       3.144   0.882  -0.127  0.00  0.00    -0.062 C 
HETATM    2  C   UNK N   1       2.853   2.342  -0.176  0.00  0.00     0.048 C 
HETATM    3  C   UNK N   1       2.097   0.033  -0.124  0.00  0.00     0.007 C 
ENDROOT
BRANCH   1   4
HETATM    4  C   UNK N   1       4.578   0.473  -0.066  0.00  0.00     0.007 C 
HETATM    5  C   UNK N   1       5.011  -0.796  -0.059  0.00  0.00     0.009 C 
BRANCH   5   6
HETATM    6  C   UNK N   1       6.451  -1.186   0.052  0.00  0.00    -0.048 C 
HETATM    7  C   UNK N   1       7.540  -0.112   0.192  0.00  0.00    -0.020 C 
HETATM    8  C   UNK N   1       8.930  -0.690   0.468  0.00  0.00     0.014 C 
HETATM    9  C   UNK N   1       7.599   0.718  -1.081  0.00  0.00     0.020 C 
HETATM   10  C   UNK N   1       7.234   0.808   1.361  0.00  0.00     0.020 C 
HETATM   11  C   UNK N   1       9.188  -1.925  -0.366  0.00  0.00     0.005 C 
HETATM   12  C   UNK N   1       8.202  -2.991   0.074  0.00  0.00     0.034 C 
HETATM   13  C   UNK N   1       6.776  -2.509   0.010  0.00  0.00    -0.077 C 
HETATM   14  C   UNK N   1       5.725  -3.560  -0.128  0.00  0.00     0.044 C 
ENDBRANCH   5   6
ENDBRANCH   1   4
BRANCH   3  15
HETATM   15  C   UNK N   1       2.238  -1.426  -0.062  0.00  0.00     0.001 C 
HETATM   16  C   UNK N   1       1.189  -2.249  -0.064  0.00  0.00     0.007 C 
BRANCH  16  17
HETATM   17  C   UNK N   1       1.394  -3.710  -0.005  0.00  0.00    -0.056 C 
HETATM   18  C   UNK N   1       2.786  -4.258   0.078  0.00  0.00     0.048 C 
HETATM   19  C   UNK N   1       0.325  -4.523  -0.030  0.00  0.00     0.087 C 
BRANCH  19  20
HETATM   20  C   UNK N   1       0.371  -6.008   0.010  0.00  0.00     0.165 C 
HETATM   21  O   UNK N   1       1.431  -6.613   0.046  0.00  0.00    -0.647 OA
BRANCH  20  22
HETATM   22  O   UNK N   1      -0.782  -6.700  -0.001  0.00  0.00    -0.773 OA
HETATM   23  H   UNK N   1      -1.602  -6.246  -0.009  0.00  0.00     0.167 HD
ENDBRANCH  20  22
ENDBRANCH  19  20
ENDBRANCH  16  17
ENDBRANCH   3  15
TORSDOF 6
