REMARK  5 active torsions:
REMARK  status: ('A' for Active; 'I' for Inactive)
REMARK    1  A    between atoms: P_3  and  N_6 
REMARK    2  A    between atoms: N_6  and  C_11 
REMARK    3  A    between atoms: N_6  and  C_12 
REMARK    4  A    between atoms: C_11  and  C_13 
REMARK    5  A    between atoms: C_12  and  C_14 
ROOT
HETATM    1  P   UNK N   1       4.546   0.594   0.536  0.00  0.00     0.365 P 
HETATM    2  O   UNK N   1       5.595   1.667  -0.364  0.00  0.00    -0.307 OA
HETATM    3  O   UNK N   1       5.423  -0.244  -0.434  0.00  0.00    -0.248 OA
HETATM    4  N   UNK N   1       3.453   1.574  -0.538  0.00  0.00    -0.338 N 
HETATM    5  C   UNK N   1       3.212   2.855   0.125  0.00  0.00     0.126 C 
HETATM    6  C   UNK N   1       4.470   3.712   0.045  0.00  0.00     0.046 C 
HETATM    7  C   UNK N   1       5.671   2.845   0.394  0.00  0.00     0.180 C 
HETATM    8  H   UNK N   1       3.076   1.283  -1.440  0.00  0.00     0.164 HD
ENDROOT
BRANCH   1   9
HETATM    9  N   UNK N   1       3.345  -0.678  -0.009  0.00  0.00    -0.221 NA
BRANCH   9  10
HETATM   10  C   UNK N   1       2.060  -0.421   0.639  0.00  0.00     0.116 C 
BRANCH  10  11
HETATM   11  C   UNK N   1       0.974  -0.278  -0.410  0.00  0.00     0.129 C 
HETATM   12 Cl   UNK N   1      -0.620  -0.461   0.354  0.00  0.00    -0.129 Cl
ENDBRANCH  10  11
ENDBRANCH   9  10
BRANCH   9  13
HETATM   13  C   UNK N   1       3.738  -1.974   0.549  0.00  0.00     0.116 C 
BRANCH  13  14
HETATM   14  C   UNK N   1       4.282  -2.876  -0.543  0.00  0.00     0.129 C 
HETATM   15 Cl   UNK N   1       5.473  -3.990   0.164  0.00  0.00    -0.129 Cl
ENDBRANCH  13  14
ENDBRANCH   9  13
ENDBRANCH   1   9
TORSDOF 5
