REMARK  3 active torsions:
REMARK  status: ('A' for Active; 'I' for Inactive)
REMARK    1  A    between atoms: S_1  and  C_10 
REMARK    2  A    between atoms: C_6  and  C_7 
REMARK    3  A    between atoms: C_8  and  C_11 
ROOT
HETATM    1  O   UNK N   1       5.832   4.032  -0.288  0.00  0.00    -0.313 OA
HETATM    2  O   UNK N   1       3.814   5.018  -0.092  0.00  0.00    -0.259 OA
HETATM    3  C   UNK N   1       5.110   1.875  -0.171  0.00  0.00    -0.007 A 
HETATM    4  C   UNK N   1       4.013   2.653  -0.078  0.00  0.00     0.059 A 
HETATM    5  C   UNK N   1       6.343   2.743  -0.347  0.00  0.00     0.219 A 
HETATM    6  C   UNK N   1       4.498   4.013  -0.132  0.00  0.00     0.295 A 
ENDROOT
BRANCH   3   7
HETATM    7  C   UNK N   1       5.172   0.391  -0.091  0.00  0.00    -0.027 A 
HETATM    8  C   UNK N   1       6.167  -0.356  -0.754  0.00  0.00     0.013 A 
HETATM    9  C   UNK N   1       6.133  -1.767  -0.712  0.00  0.00     0.024 A 
HETATM   10  C   UNK N   1       5.123  -2.415   0.022  0.00  0.00     0.058 A 
HETATM   11  C   UNK N   1       4.201  -1.662   0.734  0.00  0.00     0.024 A 
HETATM   12  C   UNK N   1       4.232  -0.284   0.684  0.00  0.00     0.013 A 
BRANCH  10  13
HETATM   13  S   UNK N   1       4.915  -4.193   0.087  0.00  0.00     0.171 S 
HETATM   14  O   UNK N   1       3.416  -4.409  -0.175  0.00  0.00    -0.223 OA
HETATM   15  O   UNK N   1       4.851  -4.437   1.600  0.00  0.00    -0.223 OA
HETATM   16  C   UNK N   1       5.723  -5.704  -0.511  0.00  0.00     0.167 C 
ENDBRANCH  10  13
ENDBRANCH   3   7
BRANCH   4  17
HETATM   17  C   UNK N   1       2.558   2.273  -0.007  0.00  0.00    -0.019 A 
HETATM   18  C   UNK N   1       2.112   1.006  -0.419  0.00  0.00     0.012 A 
HETATM   19  C   UNK N   1       0.760   0.666  -0.391  0.00  0.00     0.001 A 
HETATM   20  C   UNK N   1      -0.180   1.603   0.033  0.00  0.00     0.000 A 
HETATM   21  C   UNK N   1       0.237   2.881   0.415  0.00  0.00     0.001 A 
HETATM   22  C   UNK N   1       1.597   3.217   0.385  0.00  0.00     0.012 A 
ENDBRANCH   4  17
TORSDOF 3
