REMARK  9 active torsions:
REMARK  status: ('A' for Active; 'I' for Inactive)
REMARK    1  A    between atoms: S_1  and  N_10 
REMARK    2  A    between atoms: S_1  and  C_34 
REMARK    3  A    between atoms: O_2  and  C_11 
REMARK    4  A    between atoms: O_2  and  C_16 
REMARK    5  A    between atoms: O_4  and  C_28 
REMARK       I    between atoms: N_9  and  C_16 
REMARK    6  A    between atoms: N_9  and  C_20 
REMARK       I    between atoms: N_10  and  C_33 
REMARK    7  A    between atoms: C_18  and  C_21 
REMARK    8  A    between atoms: C_21  and  C_26 
REMARK    9  A    between atoms: C_31  and  C_33 
ROOT
HETATM    1  C   UNK N   1       8.540   1.340   0.466  0.00  0.00    -0.020 C 
HETATM    2  C   UNK N   1       9.378   2.262  -0.160  0.00  0.00     0.075 C 
HETATM    3  C   UNK N   1       9.069   0.397   1.361  0.00  0.00     0.011 C 
HETATM    4  C   UNK N   1      10.728   1.956  -0.208  0.00  0.00     0.054 C 
HETATM    5  C   UNK N   1      11.225   0.810   0.416  0.00  0.00     0.035 C 
HETATM    6  C   UNK N   1      10.410   0.103   1.299  0.00  0.00     0.018 C 
ENDROOT
BRANCH   1   7
HETATM    7  C   UNK N   1       7.427   0.853  -0.407  0.00  0.00     0.082 C 
BRANCH   7   8
HETATM    8  C   UNK N   1       7.603  -0.661  -0.558  0.00  0.00    -0.026 A 
HETATM    9  C   UNK N   1       6.731  -1.476   0.029  0.00  0.00     0.001 A 
HETATM   10  C   UNK N   1       7.136  -2.758  -0.096  0.00  0.00     0.044 A 
HETATM   11  C   UNK N   1       5.582  -1.099   0.610  0.00  0.00     0.044 A 
HETATM   12  N   UNK N   1       8.308  -2.788  -0.758  0.00  0.00    -0.360 N 
HETATM   13  C   UNK N   1       6.349  -3.799   0.417  0.00  0.00     0.033 A 
HETATM   14  C   UNK N   1       8.626  -1.493  -1.059  0.00  0.00     0.099 A 
HETATM   15  C   UNK N   1       9.078  -3.973  -1.105  0.00  0.00     0.155 C 
HETATM   16  C   UNK N   1       5.070  -3.442   0.937  0.00  0.00     0.032 A 
HETATM   17  C   UNK N   1       4.693  -2.070   1.003  0.00  0.00     0.037 A 
BRANCH  17  18
HETATM   18  N   UNK N   1       3.335  -1.683   0.953  0.00  0.00    -0.303 N 
HETATM   19  C   UNK N   1       2.911  -0.964  -0.149  0.00  0.00     0.365 C 
HETATM   20  O   UNK N   1       3.651  -0.800  -1.109  0.00  0.00    -0.238 OA
HETATM   21  H   UNK N   1       2.712  -1.918   1.678  0.00  0.00     0.171 HD
BRANCH  19  22
HETATM   22  O   UNK N   1       1.662  -0.475  -0.243  0.00  0.00    -0.298 OA
BRANCH  22  23
HETATM   23  C   UNK N   1       0.669  -0.560   0.698  0.00  0.00     0.133 C 
HETATM   24  C   UNK N   1      -0.619  -0.363  -0.061  0.00  0.00     0.032 C 
HETATM   25  C   UNK N   1      -0.837  -1.687  -0.780  0.00  0.00     0.002 C 
HETATM   26  C   UNK N   1      -0.118  -2.737   0.054  0.00  0.00     0.002 C 
HETATM   27  C   UNK N   1       0.515  -1.981   1.203  0.00  0.00     0.032 C 
ENDBRANCH  22  23
ENDBRANCH  19  22
ENDBRANCH  17  18
ENDBRANCH   7   8
ENDBRANCH   1   7
BRANCH   2  28
HETATM   28  O   UNK N   1       8.905   3.308  -0.886  0.00  0.00    -0.355 OA
HETATM   29  C   UNK N   1       7.639   3.833  -0.718  0.00  0.00     0.210 C 
ENDBRANCH   2  28
BRANCH   5  30
HETATM   30  C   UNK N   1      12.346   0.070  -0.201  0.00  0.00     0.265 C 
HETATM   31  O   UNK N   1      12.357  -1.146  -0.067  0.00  0.00    -0.267 OA
HETATM   32  N   UNK N   1      13.263   0.613  -1.039  0.00  0.00    -0.246 N 
HETATM   33  H   UNK N   1      13.692  -0.024  -1.655  0.00  0.00     0.182 HD
BRANCH  32  34
HETATM   34  S   UNK N   1      13.807   2.280  -1.196  0.00  0.00     0.266 S 
HETATM   35  O   UNK N   1      14.320   2.311  -2.640  0.00  0.00    -0.200 OA
HETATM   36  O   UNK N   1      12.641   3.273  -1.280  0.00  0.00    -0.200 OA
BRANCH  34  37
HETATM   37  C   UNK N   1      15.171   2.701  -0.121  0.00  0.00     0.085 A 
HETATM   38  C   UNK N   1      15.996   1.701   0.447  0.00  0.00    -0.039 A 
HETATM   39  C   UNK N   1      17.088   2.071   1.232  0.00  0.00     0.008 A 
HETATM   40  C   UNK N   1      15.756   0.247   0.223  0.00  0.00     0.050 C 
HETATM   41  C   UNK N   1      17.366   3.418   1.460  0.00  0.00     0.001 A 
HETATM   42  C   UNK N   1      16.547   4.406   0.909  0.00  0.00     0.002 A 
HETATM   43  C   UNK N   1      15.453   4.048   0.118  0.00  0.00     0.026 A 
ENDBRANCH  34  37
ENDBRANCH  32  34
ENDBRANCH   5  30
TORSDOF 9
