REMARK  5 active torsions:
REMARK  status: ('A' for Active; 'I' for Inactive)
REMARK    1  A    between atoms: C_15  and  O_4 
REMARK    2  A    between atoms: O_5  and  C_18 
REMARK    3  A    between atoms: C_14  and  N_6 
REMARK    4  A    between atoms: N_13  and  C_22 
REMARK    5  A    between atoms: C_17  and  C_18 
ROOT
HETATM    1 Cl   UNK N   1       0.014   0.293   0.211  0.00  0.00    -0.045 Cl
HETATM    2  N   UNK N   1       4.938  -0.891  -0.597  0.00  0.00    -0.297 N 
HETATM    3  N   UNK N   1       4.648  -3.120  -0.495  0.00  0.00    -0.346 N 
ATOM      4  HN  UNK N   1       4.830  -4.124  -0.502  1.00  0.00     0.167 HD
HETATM    5  N   UNK N   1       2.619  -0.288  -0.223  0.00  0.00    -0.316 N 
ATOM      6  HN  UNK N   1       2.775   0.719  -0.274  1.00  0.00     0.170 HD
HETATM    7  N   UNK N   1       1.169  -2.154   0.074  0.00  0.00    -0.317 N 
ATOM      8  HN  UNK N   1       0.231  -2.517   0.245  1.00  0.00     0.170 HD
HETATM    9  C   UNK N   1       3.644  -1.162  -0.378  0.00  0.00     0.144 A 
HETATM   10  C   UNK N   1       5.542  -2.107  -0.669  0.00  0.00     0.188 A 
HETATM   11  C   UNK N   1       3.469  -2.497  -0.313  0.00  0.00     0.122 A 
HETATM   12  C   UNK N   1       2.210  -3.026  -0.083  0.00  0.00     0.132 A 
HETATM   13  C   UNK N   1       1.368  -0.796   0.005  0.00  0.00     0.182 A 
ENDROOT
BRANCH   2  14
HETATM   14  C   UNK N   1       5.608   0.408  -0.731  0.00  0.00     0.267 C 
HETATM   15  O   UNK N   1       4.703   1.487  -0.674  0.00  0.00    -0.353 OA
HETATM   16  C   UNK N   1       5.447   2.583  -0.170  0.00  0.00     0.179 C 
HETATM   17  C   UNK N   1       6.811   2.102   0.305  0.00  0.00     0.187 C 
HETATM   18  C   UNK N   1       6.589   0.621   0.395  0.00  0.00     0.250 C 
HETATM   19  F   UNK N   1       7.755  -0.109   0.237  0.00  0.00    -0.242 F 
BRANCH  16  20
HETATM   20  C   UNK N   1       4.695   3.265   0.956  0.00  0.00     0.198 C 
BRANCH  20  21
HETATM   21  O   UNK N   1       3.988   4.350   0.438  0.00  0.00    -0.398 OA
HETATM   22  H   UNK N   1       4.395   5.154   0.078  0.00  0.00     0.209 HD
ENDBRANCH  20  21
ENDBRANCH  16  20
BRANCH  17  23
HETATM   23  O   UNK N   1       7.742   2.391  -0.693  0.00  0.00    -0.390 OA
HETATM   24  H   UNK N   1       8.241   1.931  -1.387  0.00  0.00     0.210 HD
ENDBRANCH  17  23
ENDBRANCH   2  14
BRANCH  12  25
HETATM   25  N   UNK N   1       2.000  -4.418  -0.006  0.00  0.00    -0.383 N 
HETATM   26  H   UNK N   1       1.085  -4.777   0.048  0.00  0.00     0.157 HD
HETATM   27  H   UNK N   1       2.770  -5.031  -0.006  0.00  0.00     0.157 HD
ENDBRANCH  12  25
TORSDOF 5
