REMARK  7 active torsions:
REMARK  status: ('A' for Active; 'I' for Inactive)
REMARK    1  A    between atoms: C_8  and  O_2 
REMARK    2  A    between atoms: C_18  and  O_3 
REMARK    3  A    between atoms: O_4  and  C_27 
REMARK    4  A    between atoms: N_5  and  C_22 
REMARK    5  A    between atoms: C_10  and  C_18 
REMARK    6  A    between atoms: C_18  and  C_23 
REMARK    7  A    between atoms: C_22  and  C_24 
ROOT
HETATM    1  O   UNK N   1       3.821  -2.614  -0.718  0.00  0.00    -0.338 OA
HETATM    2  N   UNK N   1       4.648   2.561  -0.803  0.00  0.00     0.094 N 
HETATM    3  C   UNK N   1       5.094   0.425   0.498  0.00  0.00     0.006 C 
HETATM    4  C   UNK N   1       4.480  -0.360  -0.659  0.00  0.00     0.031 C 
HETATM    5  C   UNK N   1       6.037  -2.084   0.350  0.00  0.00     0.094 C 
HETATM    6  C   UNK N   1       4.983  -1.825  -0.785  0.00  0.00     0.178 C 
HETATM    7  C   UNK N   1       7.162  -0.999   0.152  0.00  0.00     0.058 C 
HETATM    8  C   UNK N   1       6.611   0.447   0.287  0.00  0.00     0.023 C 
HETATM    9  C   UNK N   1       4.378   1.831   0.458  0.00  0.00     0.236 C 
HETATM   10  C   UNK N   1       4.878  -0.333   1.837  0.00  0.00     0.016 C 
HETATM   11  C   UNK N   1       5.414  -1.789   1.748  0.00  0.00     0.042 C 
HETATM   12  C   UNK N   1       4.670   0.367  -2.004  0.00  0.00     0.048 C 
HETATM   13  C   UNK N   1       3.074  -0.567  -0.328  0.00  0.00    -0.003 C 
HETATM   14  C   UNK N   1       2.810   1.729   0.621  0.00  0.00     0.076 C 
HETATM   15  C   UNK N   1       4.166   1.816  -1.976  0.00  0.00     0.274 C 
HETATM   16  C   UNK N   1       2.221   0.397   0.183  0.00  0.00    -0.046 C 
HETATM   17  C   UNK N   1       2.748  -1.864  -0.429  0.00  0.00     0.110 C 
HETATM   18  C   UNK N   1       0.899   0.018   0.470  0.00  0.00     0.011 C 
HETATM   19  C   UNK N   1       1.442  -2.288  -0.163  0.00  0.00     0.099 C 
HETATM   20  C   UNK N   1       0.497  -1.325   0.255  0.00  0.00     0.040 C 
ENDROOT
BRANCH   7  21
HETATM   21  C   UNK N   1       8.590  -1.161   0.776  0.00  0.00     0.067 C 
HETATM   22  C   UNK N   1       8.597  -2.191   1.905  0.00  0.00     0.047 C 
BRANCH  21  23
HETATM   23  O   UNK N   1       8.999   0.054   1.345  0.00  0.00    -0.389 OA
HETATM   24  H   UNK N   1       9.868   0.229   1.738  0.00  0.00     0.210 HD
ENDBRANCH  21  23
BRANCH  21  25
HETATM   25  C   UNK N   1       9.615  -1.537  -0.335  0.00  0.00    -0.020 C 
HETATM   26  C   UNK N   1      11.029  -1.605   0.227  0.00  0.00     0.017 C 
HETATM   27  C   UNK N   1       9.301  -2.882  -0.971  0.00  0.00     0.017 C 
HETATM   28  C   UNK N   1       9.619  -0.488  -1.440  0.00  0.00     0.017 C 
ENDBRANCH  21  25
ENDBRANCH   7  21
BRANCH   5  29
HETATM   29  O   UNK N   1       6.603  -3.379   0.238  0.00  0.00    -0.382 OA
HETATM   30  C   UNK N   1       5.670  -4.358   0.617  0.00  0.00     0.202 C 
ENDBRANCH   5  29
BRANCH   2  31
HETATM   31  C   UNK N   1       6.051   2.939  -1.010  0.00  0.00     0.277 C 
BRANCH  31  32
HETATM   32  C   UNK N   1       6.645   3.646   0.200  0.00  0.00     0.014 A 
HETATM   33  C   UNK N   1       6.564   5.143   0.016  0.00  0.00     0.007 A 
HETATM   34  C   UNK N   1       7.871   4.417  -0.237  0.00  0.00     0.007 A 
ENDBRANCH  31  32
ENDBRANCH   2  31
BRANCH  19  35
HETATM   35  O   UNK N   1       1.098  -3.582  -0.277  0.00  0.00    -0.358 OA
HETATM   36  H   UNK N   1       0.197  -3.825  -0.356  0.00  0.00     0.217 HD
ENDBRANCH  19  35
TORSDOF 7
