REMARK  14 active torsions:
REMARK  status: ('A' for Active; 'I' for Inactive)
REMARK    1  A    between atoms: P_1  and  O_4 
REMARK    2  A    between atoms: P_1  and  O_5 
REMARK    3  A    between atoms: P_1  and  C_11 
REMARK    4  A    between atoms: P_2  and  O_6 
REMARK    5  A    between atoms: P_2  and  O_7 
REMARK    6  A    between atoms: P_2  and  C_11 
REMARK    7  A    between atoms: O_3  and  C_11 
REMARK    8  A    between atoms: N_10  and  C_13 
REMARK    9  A    between atoms: N_10  and  C_14 
REMARK   10  A    between atoms: C_11  and  C_12 
REMARK   11  A    between atoms: C_12  and  C_13 
REMARK   12  A    between atoms: C_14  and  C_15 
REMARK   13  A    between atoms: C_15  and  C_16 
REMARK   14  A    between atoms: C_16  and  C_18 
ROOT
HETATM    1  C   UNK N   1       3.676  -2.750  -0.791  0.00  0.00     0.253 C 
ENDROOT
BRANCH   1   2
HETATM    2  P   UNK N   1       5.177  -2.410   0.270  0.00  0.00     0.283 P 
HETATM    3  O   UNK N   1       4.801  -1.685   1.591  0.00  0.00    -0.651 OA
BRANCH   2   4
HETATM    4  O   UNK N   1       6.353  -1.370  -0.469  0.00  0.00    -0.327 OA
HETATM    5  H   UNK N   1       7.185  -1.648  -0.882  0.00  0.00     0.220 HD
ENDBRANCH   2   4
BRANCH   2   6
HETATM    6  O   UNK N   1       6.031  -3.828   0.791  0.00  0.00    -0.327 OA
HETATM    7  H   UNK N   1       5.584  -4.638   1.083  0.00  0.00     0.220 HD
ENDBRANCH   2   6
ENDBRANCH   1   2
BRANCH   1   8
HETATM    8  P   UNK N   1       2.454  -3.827   0.128  0.00  0.00     0.283 P 
HETATM    9  O   UNK N   1       3.145  -5.104   0.676  0.00  0.00    -0.651 OA
BRANCH   8  10
HETATM   10  O   UNK N   1       1.161  -4.443  -0.853  0.00  0.00    -0.327 OA
HETATM   11  H   UNK N   1       0.502  -3.990  -1.401  0.00  0.00     0.220 HD
ENDBRANCH   8  10
BRANCH   8  12
HETATM   12  O   UNK N   1       1.719  -3.109   1.528  0.00  0.00    -0.327 OA
HETATM   13  H   UNK N   1       1.862  -2.553   2.311  0.00  0.00     0.220 HD
ENDBRANCH   8  12
ENDBRANCH   1   8
BRANCH   1  14
HETATM   14  O   UNK N   1       4.099  -3.436  -1.930  0.00  0.00    -0.368 OA
HETATM   15  H   UNK N   1       3.834  -3.929  -2.721  0.00  0.00     0.212 HD
ENDBRANCH   1  14
BRANCH   1  16
HETATM   16  C   UNK N   1       3.018  -1.440  -1.230  0.00  0.00     0.094 C 
BRANCH  16  17
HETATM   17  C   UNK N   1       2.524  -0.611  -0.050  0.00  0.00     0.276 C 
BRANCH  17  18
HETATM   18  N   UNK N   1       2.208   0.738  -0.478  0.00  0.00     0.084 N 
HETATM   19  C   UNK N   1       0.804   0.951  -0.172  0.00  0.00     0.309 C 
BRANCH  18  20
HETATM   20  C   UNK N   1       2.976   1.632   0.373  0.00  0.00     0.271 C 
BRANCH  20  21
HETATM   21  C   UNK N   1       3.479   2.817  -0.434  0.00  0.00     0.030 C 
BRANCH  21  22
HETATM   22  C   UNK N   1       2.851   4.106   0.064  0.00  0.00     0.001 C 
BRANCH  22  23
HETATM   23  C   UNK N   1       1.430   4.236  -0.451  0.00  0.00    -0.005 C 
HETATM   24  C   UNK N   1       0.802   5.493   0.110  0.00  0.00     0.005 C 
ENDBRANCH  22  23
ENDBRANCH  21  22
ENDBRANCH  20  21
ENDBRANCH  18  20
ENDBRANCH  17  18
ENDBRANCH  16  17
ENDBRANCH   1  16
TORSDOF 14
