REMARK  4 active torsions:
REMARK  status: ('A' for Active; 'I' for Inactive)
REMARK    1  A    between atoms: N_4  and  C_15 
REMARK    2  A    between atoms: C_10  and  C_16 
REMARK    3  A    between atoms: C_15  and  C_17 
REMARK    4  A    between atoms: C_17  and  C_18 
ROOT
HETATM    1  N   UNK N   1       7.268  -0.592   0.149  0.00  0.00     0.088 N 
HETATM    2  C   UNK N   1       4.579  -1.432  -0.434  0.00  0.00     0.042 C 
HETATM    3  C   UNK N   1       4.878  -0.258   0.483  0.00  0.00     0.041 C 
HETATM    4  C   UNK N   1       5.706  -2.455  -0.324  0.00  0.00     0.041 C 
HETATM    5  C   UNK N   1       6.172   0.367   0.009  0.00  0.00     0.273 C 
HETATM    6  C   UNK N   1       7.023  -1.763  -0.703  0.00  0.00     0.273 C 
ENDROOT
BRANCH   1   7
HETATM    7  C   UNK N   1       8.472   0.062  -0.342  0.00  0.00     0.277 C 
BRANCH   7   8
HETATM    8  C   UNK N   1       8.912   1.144   0.639  0.00  0.00     0.076 C 
BRANCH   8   9
HETATM    9  C   UNK N   1      10.294   1.640   0.336  0.00  0.00     0.034 A 
HETATM   10  C   UNK N   1      11.392   0.770   0.386  0.00  0.00     0.257 A 
HETATM   11  O   UNK N   1      11.220  -0.409   0.658  0.00  0.00    -0.267 OA
HETATM   12  N   UNK N   1      12.663   1.241   0.133  0.00  0.00    -0.303 N 
HETATM   13  C   UNK N   1      13.786   0.289   0.193  0.00  0.00     0.133 C 
HETATM   14  C   UNK N   1      12.850   2.574  -0.154  0.00  0.00     0.086 A 
HETATM   15  C   UNK N   1      15.075   0.827  -0.412  0.00  0.00     0.021 C 
HETATM   16  C   UNK N   1      15.323   2.225   0.104  0.00  0.00     0.009 C 
HETATM   17  C   UNK N   1      14.220   3.144  -0.394  0.00  0.00     0.077 C 
HETATM   18  N   UNK N   1      11.786   3.416  -0.212  0.00  0.00    -0.349 N 
HETATM   19  C   UNK N   1      10.522   2.985   0.022  0.00  0.00     0.018 A 
ATOM     20  HN  UNK N   1      11.942   4.398  -0.438  1.00  0.00     0.167 HD
HETATM   21  C   UNK N   1       9.399   3.966  -0.044  0.00  0.00     0.069 C 
ENDBRANCH   8   9
ENDBRANCH   7   8
ENDBRANCH   1   7
BRANCH   2  22
HETATM   22  C   UNK N   1       3.211  -1.964  -0.150  0.00  0.00     0.050 A 
HETATM   23  N   UNK N   1       2.889  -3.243   0.163  0.00  0.00    -0.264 N 
HETATM   24  O   UNK N   1       1.590  -3.285   0.333  0.00  0.00    -0.237 OA
ATOM     25  HN  UNK N   1       3.536  -4.026   0.249  1.00  0.00     0.194 HD
HETATM   26  C   UNK N   1       1.066  -2.095   0.146  0.00  0.00     0.114 A 
HETATM   27  C   UNK N   1       2.059  -1.222  -0.166  0.00  0.00     0.025 A 
HETATM   28  C   UNK N   1      -0.264  -1.692   0.240  0.00  0.00     0.082 A 
HETATM   29  C   UNK N   1       1.819   0.126  -0.414  0.00  0.00     0.019 A 
HETATM   30  C   UNK N   1       0.490   0.573  -0.327  0.00  0.00     0.043 A 
HETATM   31  C   UNK N   1      -0.549  -0.330  -0.001  0.00  0.00     0.119 A 
HETATM   32  F   UNK N   1      -1.823   0.119   0.083  0.00  0.00    -0.206 F 
ENDBRANCH   2  22
TORSDOF 4
