REMARK  6 active torsions:
REMARK  status: ('A' for Active; 'I' for Inactive)
REMARK    1  A    between atoms: S_1  and  C_21 
REMARK    2  A    between atoms: S_1  and  C_22 
REMARK    3  A    between atoms: C_6  and  C_10 
REMARK    4  A    between atoms: C_10  and  C_11 
REMARK    5  A    between atoms: C_17  and  C_19 
REMARK    6  A    between atoms: C_19  and  C_21 
ROOT
HETATM    1  N   UNK N   1       8.876  -2.372  -0.560  0.00  0.00    -0.365 N 
HETATM    2  C   UNK N   1       8.942  -0.198   0.015  0.00  0.00    -0.028 A 
HETATM    3  C   UNK N   1       7.736  -0.712   0.399  0.00  0.00    -0.001 A 
HETATM    4  C   UNK N   1       9.637  -1.246  -0.587  0.00  0.00     0.096 A 
HETATM    5  C   UNK N   1       7.720  -2.026   0.042  0.00  0.00     0.043 A 
HETATM    6  C   UNK N   1       6.652  -0.102   1.014  0.00  0.00     0.021 A 
HETATM    7  C   UNK N   1       5.507  -0.877   1.259  0.00  0.00    -0.056 A 
HETATM    8  C   UNK N   1       6.616  -2.840   0.288  0.00  0.00     0.031 A 
HETATM    9  C   UNK N   1       5.492  -2.251   0.908  0.00  0.00     0.009 A 
HETATM   10  H   UNK N   1       9.118  -3.259  -0.910  0.00  0.00     0.165 HD
ENDROOT
BRANCH   7  11
HETATM   11  C   UNK N   1       4.308  -0.189   1.842  0.00  0.00     0.054 C 
BRANCH  11  12
HETATM   12  C   UNK N   1       3.026  -0.151   0.963  0.00  0.00     0.150 C 
BRANCH  12  13
HETATM   13  S   UNK N   1       3.043  -0.008  -0.909  0.00  0.00     0.175 S 
HETATM   14  O   UNK N   1       3.161  -1.510  -0.618  0.00  0.00    -0.223 OA
HETATM   15  O   UNK N   1       4.418   0.636  -0.702  0.00  0.00    -0.223 OA
BRANCH  13  16
HETATM   16  C   UNK N   1       1.649   1.003  -0.387  0.00  0.00     0.059 A 
HETATM   17  C   UNK N   1       0.382   0.435  -0.183  0.00  0.00     0.023 A 
HETATM   18  C   UNK N   1      -0.714   1.253   0.110  0.00  0.00     0.002 A 
HETATM   19  C   UNK N   1      -0.556   2.641   0.169  0.00  0.00     0.000 A 
HETATM   20  C   UNK N   1       0.698   3.214  -0.064  0.00  0.00     0.002 A 
HETATM   21  C   UNK N   1       1.795   2.398  -0.349  0.00  0.00     0.023 A 
ENDBRANCH  13  16
ENDBRANCH  12  13
ENDBRANCH  11  12
ENDBRANCH   7  11
BRANCH   2  22
HETATM   22  C   UNK N   1       9.353   1.234   0.205  0.00  0.00     0.076 C 
BRANCH  22  23
HETATM   23  C   UNK N   1      10.678   1.633  -0.432  0.00  0.00     0.227 C 
HETATM   24  N   UNK N   1      11.803   1.123   0.350  0.00  0.00     0.089 N 
HETATM   25  C   UNK N   1      12.734   2.231   0.492  0.00  0.00     0.272 C 
HETATM   26  C   UNK N   1      12.477   0.111  -0.445  0.00  0.00     0.310 C 
HETATM   27  C   UNK N   1      11.916   3.495   0.465  0.00  0.00     0.032 C 
HETATM   28  C   UNK N   1      10.758   3.151  -0.432  0.00  0.00     0.038 C 
ENDBRANCH  22  23
ENDBRANCH   2  22
TORSDOF 6
