REMARK  2 active torsions:
REMARK  status: ('A' for Active; 'I' for Inactive)
REMARK    1  A    between atoms: C_2  and  C_5 
REMARK    2  A    between atoms: C_6  and  C_4 
REMARK       I    between atoms: N_15  and  C_5 
ROOT
HETATM    1  C   UNK N   1       1.638   0.293   0.056  0.00  0.00     0.076 A 
HETATM    2  C   UNK N   1       2.812   1.057   0.128  0.00  0.00     0.060 A 
HETATM    3  C   UNK N   1       4.036   0.350   0.159  0.00  0.00     0.019 A 
HETATM    4  C   UNK N   1      -0.358  -0.437  -0.119  0.00  0.00     0.110 A 
HETATM    5  C   UNK N   1       4.056  -1.062   0.117  0.00  0.00     0.003 A 
HETATM    6  C   UNK N   1       2.857  -1.789   0.026  0.00  0.00     0.032 A 
HETATM    7  C   UNK N   1       1.668  -1.067  -0.004  0.00  0.00     0.061 A 
HETATM    8  N   UNK N   1       0.425  -1.548  -0.122  0.00  0.00    -0.342 N 
ATOM      9  HN  UNK N   1       0.132  -2.522  -0.197  1.00  0.00     0.167 HD
HETATM   10  N   UNK N   1       0.360   0.711  -0.002  0.00  0.00    -0.341 N 
HETATM   11  H   UNK N   1       0.023   1.636   0.033  0.00  0.00     0.167 HD
ENDROOT
BRANCH   4  12
HETATM   12  C   UNK N   1      -1.852  -0.467  -0.299  0.00  0.00     0.081 C 
HETATM   13  C   UNK N   1      -2.354  -1.866  -0.586  0.00  0.00     0.040 C 
HETATM   14  C   UNK N   1      -3.791  -1.823  -0.142  0.00  0.00     0.022 C 
HETATM   15  C   UNK N   1      -3.819  -0.742   0.926  0.00  0.00     0.115 C 
HETATM   16  N   UNK N   1      -2.535  -0.036   0.913  0.00  0.00    -0.407 N 
HETATM   17  H   UNK N   1      -2.190   0.624   1.610  0.00  0.00     0.154 HD
HETATM   18  C   UNK N   1      -2.233   0.452  -1.455  0.00  0.00     0.046 C 
ENDBRANCH   4  12
BRANCH   2  19
HETATM   19  C   UNK N   1       2.812   2.541   0.139  0.00  0.00     0.251 C 
HETATM   20  O   UNK N   1       3.870   3.151   0.156  0.00  0.00    -0.268 OA
HETATM   21  N   UNK N   1       1.654   3.231   0.109  0.00  0.00    -0.366 N 
HETATM   22  H   UNK N   1       1.668   4.215   0.087  0.00  0.00     0.159 HD
HETATM   23  H   UNK N   1       0.795   2.751   0.109  0.00  0.00     0.159 HD
ENDBRANCH   2  19
TORSDOF 2
