REMARK  3 active torsions:
REMARK  status: ('A' for Active; 'I' for Inactive)
REMARK    1  A    between atoms: O_1  and  C_6 
REMARK    2  A    between atoms: C_2  and  C_4 
REMARK    3  A    between atoms: C_3  and  C_5 
ROOT
HETATM    1  C   UNK N   1       5.027  -0.201  -0.003  0.00  0.00    -0.021 A 
HETATM    2  C   UNK N   1       2.573  -0.297   0.004  0.00  0.00    -0.021 A 
HETATM    3  C   UNK N   1       3.773   0.457   0.001  0.00  0.00     0.079 A 
HETATM    4  C   UNK N   1       5.062  -1.602  -0.004  0.00  0.00     0.010 A 
HETATM    5  C   UNK N   1       2.649  -1.696   0.002  0.00  0.00     0.010 A 
HETATM    6  C   UNK N   1       3.882  -2.345  -0.002  0.00  0.00     0.001 A 
ENDROOT
BRANCH   1   7
HETATM    7  C   UNK N   1       6.340   0.562  -0.009  0.00  0.00     0.013 C 
HETATM    8  C   UNK N   1       7.664  -0.183   0.009  0.00  0.00     0.015 C 
HETATM    9  C   UNK N   1       6.417   2.080  -0.003  0.00  0.00     0.015 C 
ENDBRANCH   1   7
BRANCH   3  10
HETATM   10  O   UNK N   1       3.721   1.799   0.002  0.00  0.00    -0.360 OA
HETATM   11  H   UNK N   1       4.513   2.299   0.002  0.00  0.00     0.217 HD
ENDBRANCH   3  10
BRANCH   2  12
HETATM   12  C   UNK N   1       1.205   0.362   0.010  0.00  0.00     0.013 C 
HETATM   13  C   UNK N   1      -0.057  -0.483  -0.018  0.00  0.00     0.015 C 
HETATM   14  C   UNK N   1       1.011   1.870   0.013  0.00  0.00     0.015 C 
ENDBRANCH   2  12
TORSDOF 3
