REMARK  1 active torsions:
REMARK  status: ('A' for Active; 'I' for Inactive)
REMARK    1  A    between atoms: C_9  and  C_16 
ROOT
HETATM    1  O   UNK N   1       9.099   0.482   0.165  0.00  0.00    -0.271 OA
HETATM    2  O   UNK N   1       4.669   3.330   0.444  0.00  0.00    -0.271 OA
HETATM    3  N   UNK N   1       5.577   1.340  -0.148  0.00  0.00    -0.323 N 
HETATM    4  N   UNK N   1       3.313  -1.608  -0.888  0.00  0.00    -0.356 N 
HETATM    5  N   UNK N   1       8.105   2.396   0.745  0.00  0.00    -0.346 N 
HETATM    6  C   UNK N   1       6.782   0.500  -0.223  0.00  0.00     0.185 A 
HETATM    7  C   UNK N   1       4.312   0.746  -0.688  0.00  0.00     0.172 C 
HETATM    8  C   UNK N   1       6.565  -0.786   0.594  0.00  0.00     0.076 C 
HETATM    9  C   UNK N   1       4.292  -0.755  -0.495  0.00  0.00     0.045 A 
HETATM   10  C   UNK N   1       5.324  -1.438   0.106  0.00  0.00    -0.018 A 
HETATM   11  C   UNK N   1       8.067   1.134   0.246  0.00  0.00     0.243 A 
HETATM   12  C   UNK N   1       4.973  -2.759   0.098  0.00  0.00    -0.001 A 
HETATM   13  C   UNK N   1       5.651   2.618   0.372  0.00  0.00     0.239 A 
HETATM   14  C   UNK N   1       6.933   3.217   0.868  0.00  0.00     0.228 A 
HETATM   15  C   UNK N   1       3.746  -2.833  -0.512  0.00  0.00     0.043 A 
HETATM   16  C   UNK N   1       5.638  -3.890   0.565  0.00  0.00     0.014 A 
HETATM   17  C   UNK N   1       3.095  -4.050  -0.696  0.00  0.00     0.030 A 
HETATM   18  C   UNK N   1       9.359   2.962   1.177  0.00  0.00     0.153 C 
HETATM   19  C   UNK N   1       5.004  -5.134   0.397  0.00  0.00     0.001 A 
HETATM   20  C   UNK N   1       3.739  -5.214  -0.232  0.00  0.00     0.002 A 
HETATM   21  H   UNK N   1       2.470  -1.385  -1.346  0.00  0.00     0.166 HD
ENDROOT
BRANCH   7  22
HETATM   22  C   UNK N   1       3.009   1.398  -0.266  0.00  0.00    -0.027 A 
HETATM   23  C   UNK N   1       2.541   2.537  -0.961  0.00  0.00     0.049 A 
HETATM   24  C   UNK N   1       1.394   3.165  -0.482  0.00  0.00     0.105 A 
HETATM   25  O   UNK N   1       0.810   4.274  -0.931  0.00  0.00    -0.323 OA
HETATM   26  C   UNK N   1       0.715   2.705   0.574  0.00  0.00     0.105 A 
HETATM   27  C   UNK N   1      -0.299   4.547  -0.123  0.00  0.00     0.352 A 
HETATM   28  O   UNK N   1      -0.319   3.509   0.815  0.00  0.00    -0.323 OA
HETATM   29  C   UNK N   1       1.105   1.566   1.272  0.00  0.00     0.040 A 
HETATM   30  C   UNK N   1       2.278   0.913   0.850  0.00  0.00     0.012 A 
ENDBRANCH   7  22
TORSDOF 1
