REMARK  5 active torsions:
REMARK  status: ('A' for Active; 'I' for Inactive)
REMARK    1  A    between atoms: S_1  and  C_19 
REMARK    2  A    between atoms: C_11  and  C_14 
REMARK    3  A    between atoms: C_15  and  C_16 
REMARK    4  A    between atoms: C_16  and  C_18 
REMARK    5  A    between atoms: C_22  and  C_25 
ROOT
HETATM    1  C   UNK N   1       4.821  -0.440  -0.383  0.00  0.00     0.036 A 
HETATM    2  C   UNK N   1       6.035   0.338  -0.385  0.00  0.00     0.073 A 
HETATM    3  C   UNK N   1       4.934  -1.818  -0.120  0.00  0.00     0.018 A 
HETATM    4  C   UNK N   1       7.271  -0.317  -0.214  0.00  0.00     0.040 A 
HETATM    5  C   UNK N   1       7.341  -1.692   0.011  0.00  0.00     0.049 A 
HETATM    6  C   UNK N   1       6.163  -2.429   0.077  0.00  0.00     0.017 A 
ENDROOT
BRANCH   1   7
HETATM    7  C   UNK N   1       3.479   0.213  -0.624  0.00  0.00     0.197 C 
HETATM    8  O   UNK N   1       3.503   1.307  -1.145  0.00  0.00    -0.286 OA
BRANCH   7   9
HETATM    9  C   UNK N   1       2.108  -0.354  -0.335  0.00  0.00     0.064 A 
HETATM   10  C   UNK N   1       0.942   0.394  -0.100  0.00  0.00     0.096 A 
HETATM   11  O   UNK N   1      -0.049  -0.453   0.091  0.00  0.00    -0.241 OA
HETATM   12  N   UNK N   1       0.347  -1.683   0.005  0.00  0.00    -0.271 N 
HETATM   13  C   UNK N   1       1.663  -1.680  -0.250  0.00  0.00     0.132 A 
ATOM     14  HN  UNK N   1      -0.240  -2.510   0.114  1.00  0.00     0.194 HD
BRANCH  10  15
HETATM   15  C   UNK N   1       0.641   1.870   0.064  0.00  0.00     0.046 A 
HETATM   16  C   UNK N   1       1.771   2.896   0.050  0.00  0.00     0.012 A 
HETATM   17  C   UNK N   1       0.345   3.370   0.212  0.00  0.00     0.012 A 
ENDBRANCH  10  15
ENDBRANCH   7   9
ENDBRANCH   1   7
BRANCH   2  18
HETATM   18  S   UNK N   1       6.076   2.174  -0.450  0.00  0.00     0.172 S 
HETATM   19  O   UNK N   1       7.501   2.502   0.022  0.00  0.00    -0.223 OA
HETATM   20  O   UNK N   1       5.626   2.004   1.011  0.00  0.00    -0.223 OA
HETATM   21  C   UNK N   1       5.316   3.846  -0.289  0.00  0.00     0.167 C 
ENDBRANCH   2  18
BRANCH   5  22
HETATM   22  C   UNK N   1       8.682  -2.351   0.207  0.00  0.00     0.417 C 
HETATM   23  F   UNK N   1       9.437  -2.199  -0.942  0.00  0.00    -0.166 F 
HETATM   24  F   UNK N   1       8.556  -3.704   0.474  0.00  0.00    -0.166 F 
HETATM   25  F   UNK N   1       9.342  -1.755   1.266  0.00  0.00    -0.166 F 
ENDBRANCH   5  22
TORSDOF 5
