REMARK  1 active torsions:
REMARK  status: ('A' for Active; 'I' for Inactive)
REMARK       I    between atoms: N_11  and  C_17 
REMARK    1  A    between atoms: C_13  and  C_17 
ROOT
HETATM    1  O   UNK N   1       2.843   2.903  -0.000  0.00  0.00    -0.244 OA
HETATM    2  N   UNK N   1       3.974   0.963  -0.000  0.00  0.00    -0.241 N 
HETATM    3  N   UNK N   1       1.625   0.990   0.000  0.00  0.00    -0.232 N 
HETATM    4  N   UNK N   1       6.072   0.215  -0.000  0.00  0.00    -0.344 N 
ATOM      5  HN  UNK N   1       7.092   0.186  -0.000  1.00  0.00     0.167 HD
HETATM    6  N   UNK N   1       2.777  -1.040   0.000  0.00  0.00    -0.268 N 
ATOM      7  HN  UNK N   1       2.770  -2.060   0.000  1.00  0.00     0.190 HD
HETATM    8  N   UNK N   1       1.631  -0.351   0.000  0.00  0.00    -0.235 N 
ATOM      9  HN  UNK N   1       0.744  -0.854   0.000  1.00  0.00     0.208 HD
HETATM   10  C   UNK N   1       3.943  -0.360   0.000  0.00  0.00     0.165 A 
HETATM   11  C   UNK N   1       5.220  -0.840  -0.000  0.00  0.00     0.148 A 
HETATM   12  C   UNK N   1       2.819   1.684  -0.000  0.00  0.00     0.350 A 
HETATM   13  C   UNK N   1       5.275   1.320  -0.000  0.00  0.00     0.195 A 
HETATM   14  C   UNK N   1       0.351   1.689   0.000  0.00  0.00     0.184 C 
ENDROOT
BRANCH  11  15
HETATM   15  C   UNK N   1       5.616  -2.257   0.000  0.00  0.00     0.269 C 
HETATM   16  O   UNK N   1       4.762  -3.130  -0.000  0.00  0.00    -0.266 OA
HETATM   17  N   UNK N   1       6.918  -2.598   0.000  0.00  0.00    -0.365 N 
HETATM   18  H   UNK N   1       7.178  -3.547   0.000  0.00  0.00     0.159 HD
HETATM   19  H   UNK N   1       7.610  -1.898   0.000  0.00  0.00     0.159 HD
ENDBRANCH  11  15
TORSDOF 1
