REMARK  8 active torsions:
REMARK  status: ('A' for Active; 'I' for Inactive)
REMARK    1  A    between atoms: O_1  and  C_22 
REMARK    2  A    between atoms: C_26  and  O_2 
REMARK    3  A    between atoms: C_27  and  O_3 
REMARK    4  A    between atoms: C_5  and  C_10 
REMARK    5  A    between atoms: C_10  and  C_16 
REMARK    6  A    between atoms: C_17  and  C_19 
REMARK    7  A    between atoms: C_18  and  C_20 
REMARK    8  A    between atoms: C_20  and  C_22 
ROOT
HETATM    1  C   UNK N   1       3.882   1.518   0.605  0.00  0.00    -0.032 C 
HETATM    2  C   UNK N   1       5.311   2.095   0.525  0.00  0.00     0.002 C 
HETATM    3  C   UNK N   1       4.161   0.073   0.175  0.00  0.00     0.023 C 
HETATM    4  C   UNK N   1       5.849   1.512  -0.786  0.00  0.00     0.007 C 
HETATM    5  C   UNK N   1       5.061   0.230  -1.040  0.00  0.00     0.010 C 
HETATM    6  C   UNK N   1       2.906   2.191  -0.394  0.00  0.00     0.010 C 
HETATM    7  C   UNK N   1       2.908  -0.689  -0.152  0.00  0.00    -0.075 C 
HETATM    8  C   UNK N   1       3.297   1.587   2.015  0.00  0.00     0.016 C 
HETATM    9  C   UNK N   1       1.605   1.382  -0.539  0.00  0.00     0.005 C 
HETATM   10  C   UNK N   1       1.907  -0.022  -1.067  0.00  0.00     0.034 C 
HETATM   11  C   UNK N   1       2.758  -1.919   0.357  0.00  0.00     0.003 C 
ENDROOT
BRANCH  11  12
HETATM   12  C   UNK N   1       1.637  -2.834   0.079  0.00  0.00     0.003 C 
HETATM   13  C   UNK N   1       1.734  -4.133   0.396  0.00  0.00    -0.075 C 
HETATM   14  C   UNK N   1       2.983  -4.710   1.004  0.00  0.00     0.066 C 
HETATM   15  C   UNK N   1       0.632  -5.088   0.058  0.00  0.00     0.066 C 
HETATM   16  C   UNK N   1       3.515  -5.798   0.076  0.00  0.00     0.124 C 
HETATM   17  C   UNK N   1       2.433  -6.851  -0.176  0.00  0.00     0.064 C 
HETATM   18  C   UNK N   1       1.203  -6.205  -0.823  0.00  0.00     0.124 C 
BRANCH  16  19
HETATM   19  O   UNK N   1       4.634  -6.398   0.650  0.00  0.00    -0.395 OA
HETATM   20  H   UNK N   1       4.662  -7.282   1.050  0.00  0.00     0.210 HD
ENDBRANCH  16  19
BRANCH  18  21
HETATM   21  O   UNK N   1       0.228  -7.177  -1.038  0.00  0.00    -0.395 OA
HETATM   22  H   UNK N   1      -0.698  -6.927  -1.188  0.00  0.00     0.210 HD
ENDBRANCH  18  21
ENDBRANCH  11  12
BRANCH   2  23
HETATM   23  C   UNK N   1       5.500   3.631   0.566  0.00  0.00     0.008 C 
HETATM   24  C   UNK N   1       4.743   4.268   1.717  0.00  0.00     0.014 C 
BRANCH  23  25
HETATM   25  C   UNK N   1       6.955   3.983   0.755  0.00  0.00    -0.026 C 
HETATM   26  C   UNK N   1       7.910   3.586  -0.090  0.00  0.00    -0.023 C 
BRANCH  26  27
HETATM   27  C   UNK N   1       9.361   3.874   0.178  0.00  0.00     0.037 C 
HETATM   28  C   UNK N   1      10.196   2.901  -0.643  0.00  0.00     0.017 C 
BRANCH  27  29
HETATM   29  C   UNK N   1       9.774   5.338  -0.083  0.00  0.00     0.057 C 
HETATM   30  C   UNK N   1       8.978   6.298   0.784  0.00  0.00     0.046 C 
HETATM   31  C   UNK N   1      11.241   5.534   0.261  0.00  0.00     0.046 C 
BRANCH  29  32
HETATM   32  O   UNK N   1       9.575   5.665  -1.426  0.00  0.00    -0.390 OA
HETATM   33  H   UNK N   1       9.702   5.898  -2.359  0.00  0.00     0.210 HD
ENDBRANCH  29  32
ENDBRANCH  27  29
ENDBRANCH  26  27
ENDBRANCH  23  25
ENDBRANCH   2  23
TORSDOF 8
