REMARK  11 active torsions:
REMARK  status: ('A' for Active; 'I' for Inactive)
REMARK    1  A    between atoms: O_1  and  C_10 
REMARK    2  A    between atoms: O_2  and  C_23 
REMARK    3  A    between atoms: O_3  and  C_22 
REMARK    4  A    between atoms: N_5  and  C_7 
REMARK    5  A    between atoms: N_5  and  C_9 
REMARK    6  A    between atoms: N_6  and  C_18 
REMARK    7  A    between atoms: N_6  and  C_24 
REMARK    8  A    between atoms: C_7  and  C_8 
REMARK    9  A    between atoms: C_8  and  C_12 
REMARK   10  A    between atoms: C_9  and  C_10 
REMARK   11  A    between atoms: C_10  and  C_13 
ROOT
HETATM    1  C   UNK N   1       5.811   2.286   1.172  0.00  0.00     0.168 C 
ENDROOT
BRANCH   1   2
HETATM    2  O   UNK N   1       6.625   3.421   1.230  0.00  0.00    -0.389 OA
HETATM    3  H   UNK N   1       7.590   3.325   1.271  0.00  0.00     0.210 HD
ENDBRANCH   1   2
BRANCH   1   4
HETATM    4  C   UNK N   1       6.496   1.254   0.285  0.00  0.00     0.150 C 
BRANCH   4   5
HETATM    5  N   UNK N   1       5.838  -0.043   0.358  0.00  0.00    -0.414 N 
HETATM    6  H   UNK N   1       5.393  -0.465   1.173  0.00  0.00     0.153 HD
BRANCH   5   7
HETATM    7  C   UNK N   1       5.951  -0.608  -0.975  0.00  0.00     0.076 C 
HETATM    8  C   UNK N   1       4.663  -1.293  -1.401  0.00  0.00     0.032 C 
BRANCH   7   9
HETATM    9  C   UNK N   1       7.201  -1.484  -1.133  0.00  0.00     0.062 C 
BRANCH   9  10
HETATM   10  C   UNK N   1       7.169  -2.872  -0.550  0.00  0.00    -0.056 A 
HETATM   11  C   UNK N   1       8.183  -3.761  -0.919  0.00  0.00     0.010 A 
HETATM   12  C   UNK N   1       8.151  -5.089  -0.488  0.00  0.00     0.037 A 
HETATM   13  C   UNK N   1       7.099  -5.545   0.325  0.00  0.00     0.068 A 
HETATM   14  C   UNK N   1       6.101  -4.648   0.721  0.00  0.00     0.037 A 
HETATM   15  C   UNK N   1       6.132  -3.319   0.284  0.00  0.00     0.010 A 
BRANCH  13  16
HETATM   16  O   UNK N   1       7.019  -6.837   0.721  0.00  0.00    -0.356 OA
HETATM   17  C   UNK N   1       7.900  -7.809   0.301  0.00  0.00     0.210 C 
ENDBRANCH  13  16
ENDBRANCH   9  10
ENDBRANCH   7   9
ENDBRANCH   5   7
ENDBRANCH   4   5
ENDBRANCH   1   4
BRANCH   1  18
HETATM   18  C   UNK N   1       4.424   2.643   0.689  0.00  0.00    -0.026 A 
HETATM   19  C   UNK N   1       4.107   3.959   0.315  0.00  0.00     0.042 A 
HETATM   20  C   UNK N   1       2.809   4.300  -0.101  0.00  0.00     0.068 A 
HETATM   21  C   UNK N   1       1.821   3.304  -0.138  0.00  0.00     0.092 A 
HETATM   22  C   UNK N   1       2.130   1.993   0.235  0.00  0.00     0.039 A 
HETATM   23  C   UNK N   1       3.423   1.665   0.650  0.00  0.00     0.012 A 
BRANCH  20  24
HETATM   24  N   UNK N   1       2.466   5.633  -0.482  0.00  0.00    -0.332 N 
HETATM   25  H   UNK N   1       1.540   5.787  -0.780  0.00  0.00     0.168 HD
BRANCH  24  26
HETATM   26  C   UNK N   1       3.297   6.710  -0.473  0.00  0.00     0.353 C 
HETATM   27  O   UNK N   1       4.460   6.624  -0.112  0.00  0.00    -0.283 OA
ENDBRANCH  24  26
ENDBRANCH  20  24
BRANCH  21  28
HETATM   28  O   UNK N   1       0.569   3.603  -0.526  0.00  0.00    -0.358 OA
HETATM   29  H   UNK N   1       0.314   4.462  -0.798  0.00  0.00     0.217 HD
ENDBRANCH  21  28
ENDBRANCH   1  18
TORSDOF 11
