REMARK  6 active torsions:
REMARK  status: ('A' for Active; 'I' for Inactive)
REMARK    1  A    between atoms: C_10  and  O_2 
REMARK    2  A    between atoms: C_11  and  O_3 
REMARK    3  A    between atoms: O_4  and  C_14 
REMARK    4  A    between atoms: C_12  and  N_6 
REMARK    5  A    between atoms: N_9  and  C_18 
REMARK    6  A    between atoms: C_13  and  C_14 
ROOT
HETATM    1  O   UNK N   1       4.445  -1.874  -0.338  0.00  0.00    -0.353 OA
HETATM    2  C   UNK N   1       2.265  -1.808   0.480  0.00  0.00     0.198 C 
HETATM    3  C   UNK N   1       2.686  -3.264   0.400  0.00  0.00     0.182 C 
HETATM    4  C   UNK N   1       3.265  -1.122  -0.433  0.00  0.00     0.263 C 
HETATM    5  C   UNK N   1       4.000  -3.201  -0.356  0.00  0.00     0.179 C 
ENDROOT
BRANCH   4   6
HETATM    6  N   UNK N   1       3.509   0.293  -0.086  0.00  0.00    -0.280 N 
HETATM    7  C   UNK N   1       4.764   0.671   0.304  0.00  0.00     0.102 A 
HETATM    8  C   UNK N   1       5.060   2.002   0.580  0.00  0.00     0.065 A 
HETATM    9  C   UNK N   1       4.056   2.951   0.448  0.00  0.00     0.103 A 
HETATM   10  N   UNK N   1       2.810   2.570   0.065  0.00  0.00    -0.295 N 
HETATM   11  C   UNK N   1       2.525   1.257  -0.205  0.00  0.00     0.330 A 
ATOM     12  HN  UNK N   1       2.076   3.272  -0.024  1.00  0.00     0.172 HD
HETATM   13  O   UNK N   1       1.401   0.956  -0.572  0.00  0.00    -0.246 OA
BRANCH   9  14
HETATM   14  N   UNK N   1       4.333   4.308   0.699  0.00  0.00    -0.385 N 
HETATM   15  H   UNK N   1       5.252   4.615   0.875  0.00  0.00     0.157 HD
HETATM   16  H   UNK N   1       3.596   4.961   0.699  0.00  0.00     0.157 HD
ENDBRANCH   9  14
ENDBRANCH   4   6
BRANCH   2  17
HETATM   17  O   UNK N   1       0.952  -1.618   0.039  0.00  0.00    -0.388 OA
HETATM   18  H   UNK N   1       0.611  -0.763  -0.267  0.00  0.00     0.210 HD
ENDBRANCH   2  17
BRANCH   5  19
HETATM   19  C   UNK N   1       5.025  -4.106   0.302  0.00  0.00     0.198 C 
BRANCH  19  20
HETATM   20  O   UNK N   1       6.277  -3.909  -0.283  0.00  0.00    -0.398 OA
HETATM   21  H   UNK N   1       6.831  -4.593  -0.690  0.00  0.00     0.209 HD
ENDBRANCH  19  20
ENDBRANCH   5  19
BRANCH   3  22
HETATM   22  O   UNK N   1       1.783  -4.046  -0.326  0.00  0.00    -0.390 OA
HETATM   23  H   UNK N   1       1.000  -3.775  -0.830  0.00  0.00     0.210 HD
ENDBRANCH   3  22
TORSDOF 6
