REMARK  5 active torsions:
REMARK  status: ('A' for Active; 'I' for Inactive)
REMARK    1  A    between atoms: O_1  and  C_12 
REMARK    2  A    between atoms: O_1  and  C_16 
REMARK    3  A    between atoms: C_5  and  N_3 
REMARK    4  A    between atoms: N_4  and  C_15 
REMARK       I    between atoms: N_4  and  C_16 
REMARK    5  A    between atoms: C_5  and  C_6 
ROOT
HETATM    1  C   UNK N   1       4.974   1.673   0.198  0.00  0.00    -0.023 A 
HETATM    2  C   UNK N   1       3.779   0.940   0.067  0.00  0.00     0.046 A 
HETATM    3  C   UNK N   1       6.188   0.971   0.220  0.00  0.00     0.009 A 
HETATM    4  C   UNK N   1       3.788  -0.454  -0.036  0.00  0.00     0.081 A 
HETATM    5  C   UNK N   1       6.213  -0.419   0.085  0.00  0.00     0.003 A 
HETATM    6  C   UNK N   1       5.018  -1.131  -0.033  0.00  0.00     0.037 A 
ENDROOT
BRANCH   4   7
HETATM    7  O   UNK N   1       2.594  -1.102  -0.097  0.00  0.00    -0.261 OA
BRANCH   7   8
HETATM    8  C   UNK N   1       2.363  -2.447  -0.077  0.00  0.00     0.367 C 
HETATM    9  O   UNK N   1       3.296  -3.241  -0.063  0.00  0.00    -0.238 OA
HETATM   10  N   UNK N   1       1.081  -2.906  -0.057  0.00  0.00    -0.332 N 
HETATM   11  C   UNK N   1      -0.010  -1.954  -0.061  0.00  0.00     0.155 C 
BRANCH  10  12
HETATM   12  C   UNK N   1       0.822  -4.339  -0.019  0.00  0.00     0.123 C 
HETATM   13  C   UNK N   1      -0.660  -4.694   0.015  0.00  0.00     0.026 C 
ENDBRANCH  10  12
ENDBRANCH   7   8
ENDBRANCH   4   7
BRANCH   1  14
HETATM   14  C   UNK N   1       4.947   3.188   0.408  0.00  0.00     0.251 C 
HETATM   15  C   UNK N   1       3.511   3.728   0.295  0.00  0.00     0.048 C 
BRANCH  14  16
HETATM   16  N   UNK N   1       5.868   3.920  -0.485  0.00  0.00     0.088 N 
HETATM   17  C   UNK N   1       5.705   5.359  -0.302  0.00  0.00     0.310 C 
HETATM   18  C   UNK N   1       7.238   3.669  -0.059  0.00  0.00     0.310 C 
ENDBRANCH  14  16
ENDBRANCH   1  14
TORSDOF 5
