REMARK  5 active torsions:
REMARK  status: ('A' for Active; 'I' for Inactive)
REMARK    1  A    between atoms: O_1  and  C_12 
REMARK    2  A    between atoms: N_3  and  C_11 
REMARK    3  A    between atoms: C_4  and  C_10 
REMARK    4  A    between atoms: C_4  and  C_11 
REMARK    5  A    between atoms: C_10  and  C_12 
ROOT
HETATM    1  C   UNK N   1       2.825   0.157  -0.228  0.00  0.00    -0.016 C 
HETATM    2  C   UNK N   1       1.681  -0.661   0.396  0.00  0.00     0.011 C 
HETATM    3  C   UNK N   1       3.610  -0.750  -1.191  0.00  0.00     0.011 C 
HETATM    4  C   UNK N   1       2.190  -1.930   1.081  0.00  0.00     0.001 C 
HETATM    5  C   UNK N   1       4.122  -2.012  -0.497  0.00  0.00     0.001 C 
HETATM    6  C   UNK N   1       2.950  -2.795   0.081  0.00  0.00     0.000 C 
ENDROOT
BRANCH   1   7
HETATM    7  C   UNK N   1       3.725   0.731   0.887  0.00  0.00     0.121 C 
BRANCH   7   8
HETATM    8  C   UNK N   1       4.983   1.380   0.384  0.00  0.00     0.140 C 
HETATM    9  O   UNK N   1       5.944   0.694   0.078  0.00  0.00    -0.650 OA
BRANCH   8  10
HETATM   10  O   UNK N   1       5.065   2.721   0.303  0.00  0.00    -0.776 OA
HETATM   11  H   UNK N   1       5.902   3.138   0.247  0.00  0.00     0.167 HD
ENDBRANCH   8  10
ENDBRANCH   7   8
ENDBRANCH   1   7
BRANCH   1  12
HETATM   12  C   UNK N   1       2.221   1.295  -1.053  0.00  0.00     0.121 C 
BRANCH  12  13
HETATM   13  N   UNK N   1       1.364   2.149  -0.242  0.00  0.00    -0.429 N 
HETATM   14  H   UNK N   1       1.583   2.968   0.325  0.00  0.00     0.149 HD
HETATM   15  H   UNK N   1       0.380   1.884  -0.242  0.00  0.00     0.149 HD
ENDBRANCH  12  13
ENDBRANCH   1  12
TORSDOF 5
