REMARK  2 active torsions:
REMARK  status: ('A' for Active; 'I' for Inactive)
REMARK    1  A    between atoms: C_5  and  N_3 
REMARK       I    between atoms: N_4  and  C_18 
REMARK    2  A    between atoms: C_15  and  C_18 
ROOT
HETATM    1  N   UNK N   1       4.390   2.159   0.186  0.00  0.00    -0.358 N 
HETATM    2  C   UNK N   1       1.547  -0.928   0.157  0.00  0.00     0.080 C 
HETATM    3  C   UNK N   1       3.001  -1.231  -0.214  0.00  0.00     0.066 C 
HETATM    4  C   UNK N   1       1.072   0.415  -0.437  0.00  0.00     0.031 C 
HETATM    5  C   UNK N   1       3.845  -0.013  -0.063  0.00  0.00    -0.021 A 
HETATM    6  C   UNK N   1       1.910   1.616   0.047  0.00  0.00     0.059 C 
HETATM    7  C   UNK N   1       3.369   1.276   0.059  0.00  0.00     0.017 A 
HETATM    8  C   UNK N   1       5.202   0.078  -0.015  0.00  0.00    -0.000 A 
HETATM    9  C   UNK N   1       5.511   1.403   0.136  0.00  0.00     0.043 A 
HETATM   10  C   UNK N   1       6.170  -0.910  -0.083  0.00  0.00     0.031 A 
HETATM   11  C   UNK N   1       6.832   1.834   0.223  0.00  0.00     0.031 A 
HETATM   12  C   UNK N   1       7.518  -0.522   0.006  0.00  0.00     0.032 A 
HETATM   13  C   UNK N   1       7.847   0.854   0.157  0.00  0.00     0.019 A 
HETATM   14  H   UNK N   1       4.329   3.136   0.292  0.00  0.00     0.166 HD
ENDROOT
BRANCH  12  15
HETATM   15  C   UNK N   1       8.571  -1.557  -0.046  0.00  0.00     0.249 C 
HETATM   16  O   UNK N   1       8.266  -2.735  -0.158  0.00  0.00    -0.268 OA
HETATM   17  N   UNK N   1       9.872  -1.214   0.037  0.00  0.00    -0.366 N 
HETATM   18  H   UNK N   1      10.564  -1.912   0.098  0.00  0.00     0.159 HD
HETATM   19  H   UNK N   1      10.131  -0.264   0.037  0.00  0.00     0.159 HD
ENDBRANCH  12  15
BRANCH   2  20
HETATM   20  N   UNK N   1       0.717  -2.021  -0.326  0.00  0.00    -0.421 N 
HETATM   21  C   UNK N   1      -0.488  -2.064   0.484  0.00  0.00     0.140 C 
HETATM   22  H   UNK N   1       0.942  -2.647  -1.099  0.00  0.00     0.153 HD
ENDBRANCH   2  20
TORSDOF 2
