REMARK  3 active torsions:
REMARK  status: ('A' for Active; 'I' for Inactive)
REMARK    1  A    between atoms: C_8  and  O_1 
REMARK    2  A    between atoms: O_2  and  C_20 
REMARK    3  A    between atoms: O_3  and  C_21 
ROOT
HETATM    1  C   UNK N   1       7.115   1.520   0.034  0.00  0.00    -0.014 C 
HETATM    2  C   UNK N   1       7.134   0.019  -0.145  0.00  0.00     0.001 C 
HETATM    3  C   UNK N   1       5.861  -0.686   0.324  0.00  0.00    -0.001 C 
HETATM    4  C   UNK N   1       4.691  -0.045  -0.438  0.00  0.00     0.024 C 
HETATM    5  C   UNK N   1       8.491   1.824  -0.522  0.00  0.00     0.126 C 
HETATM    6  C   UNK N   1       5.961   2.115  -0.769  0.00  0.00     0.013 C 
HETATM    7  C   UNK N   1       8.477  -0.426   0.414  0.00  0.00     0.008 C 
HETATM    8  C   UNK N   1       4.635   1.490  -0.315  0.00  0.00     0.010 C 
HETATM    9  C   UNK N   1       9.399   0.764   0.107  0.00  0.00     0.033 C 
HETATM   10  C   UNK N   1       5.932  -2.153  -0.099  0.00  0.00     0.010 C 
HETATM   11  C   UNK N   1       7.001   1.931   1.511  0.00  0.00     0.018 C 
HETATM   12  C   UNK N   1       3.385  -0.746  -0.175  0.00  0.00    -0.044 A 
HETATM   13  C   UNK N   1       4.642  -2.935   0.183  0.00  0.00     0.039 C 
HETATM   14  C   UNK N   1       3.370  -2.135   0.071  0.00  0.00    -0.049 A 
HETATM   15  C   UNK N   1       2.174  -0.040  -0.210  0.00  0.00     0.047 A 
HETATM   16  C   UNK N   1       2.149  -2.792   0.251  0.00  0.00     0.047 A 
HETATM   17  C   UNK N   1       0.950  -0.700  -0.017  0.00  0.00     0.101 A 
HETATM   18  C   UNK N   1       0.944  -2.085   0.198  0.00  0.00     0.099 A 
ENDROOT
BRANCH   5  19
HETATM   19  O   UNK N   1       8.920   3.123  -0.243  0.00  0.00    -0.395 OA
HETATM   20  H   UNK N   1       9.851   3.316  -0.050  0.00  0.00     0.210 HD
ENDBRANCH   5  19
BRANCH  17  21
HETATM   21  O   UNK N   1      -0.225  -0.023  -0.036  0.00  0.00    -0.353 OA
HETATM   22  C   UNK N   1      -0.305   1.344  -0.183  0.00  0.00     0.210 C 
ENDBRANCH  17  21
BRANCH  18  23
HETATM   23  O   UNK N   1      -0.217  -2.740   0.363  0.00  0.00    -0.358 OA
HETATM   24  H   UNK N   1      -1.018  -2.266   0.479  0.00  0.00     0.217 HD
ENDBRANCH  18  23
TORSDOF 3
