REMARK  7 active torsions:
REMARK  status: ('A' for Active; 'I' for Inactive)
REMARK    1  A    between atoms: C_2  and  O_32 
REMARK    2  A    between atoms: C_3  and  N_28 
REMARK    3  A    between atoms: C_4  and  O_31 
REMARK    4  A    between atoms: C_5  and  O_10 
REMARK    5  A    between atoms: C_7  and  O_13 
REMARK    6  A    between atoms: C_11  and  C_16 
REMARK       I    between atoms: C_16  and  N_20 
REMARK    7  A    between atoms: C_23  and  O_26 
ROOT
HETATM    1  C   UNK N   1      18.349  -8.846  -0.153  0.00  0.00     0.104 C 
HETATM    2  C   UNK N   1      18.424 -10.411  -0.322  0.00  0.00     0.180 C 
HETATM    3  C   UNK N   1      19.744  -8.196   0.192  0.00  0.00     0.289 C 
HETATM    4  C   UNK N   1      17.221  -8.522   0.864  0.00  0.00     0.137 C 
HETATM    5  C   UNK N   1      17.119 -11.172  -0.042  0.00  0.00     0.097 C 
HETATM    6  C   UNK N   1      19.617 -10.966   0.434  0.00  0.00     0.208 C 
HETATM    7  C   UNK N   1      20.955  -9.053  -0.175  0.00  0.00     0.096 C 
HETATM    8  C   UNK N   1      15.903  -9.014   0.211  0.00  0.00     0.063 C 
HETATM    9  C   UNK N   1      15.943 -10.533   0.224  0.00  0.00     0.033 C 
HETATM   10  C   UNK N   1      20.923 -10.389   0.046  0.00  0.00     0.112 C 
HETATM   11  O   UNK N   1      19.540 -11.964   1.139  0.00  0.00    -0.288 OA
HETATM   12  C   UNK N   1      14.622  -8.456   0.868  0.00  0.00     0.027 C 
HETATM   13  C   UNK N   1      14.654 -11.294   0.372  0.00  0.00     0.194 C 
HETATM   14  C   UNK N   1      13.360  -9.159   0.413  0.00  0.00    -0.037 A 
HETATM   15  C   UNK N   1      13.364 -10.560   0.262  0.00  0.00     0.054 A 
HETATM   16  O   UNK N   1      14.657 -12.516   0.428  0.00  0.00    -0.287 OA
HETATM   17  C   UNK N   1      12.163  -8.445   0.224  0.00  0.00     0.009 A 
HETATM   18  C   UNK N   1      12.154 -11.225  -0.056  0.00  0.00     0.080 A 
HETATM   19  C   UNK N   1      10.984  -9.107  -0.110  0.00  0.00     0.003 A 
HETATM   20  C   UNK N   1      10.978 -10.494  -0.238  0.00  0.00     0.037 A 
HETATM   21  C   UNK N   1      14.506  -6.938   0.694  0.00  0.00     0.016 C 
ENDROOT
BRANCH  10  22
HETATM   22  C   UNK N   1      22.098 -11.282  -0.212  0.00  0.00     0.255 C 
HETATM   23  N   UNK N   1      23.264 -10.791  -0.675  0.00  0.00    -0.366 N 
HETATM   24  H   UNK N   1      24.001 -11.349  -1.013  0.00  0.00     0.159 HD
HETATM   25  H   UNK N   1      23.387  -9.814  -0.675  0.00  0.00     0.159 HD
HETATM   26  O   UNK N   1      21.986 -12.490  -0.058  0.00  0.00    -0.268 OA
ENDBRANCH  10  22
BRANCH   7  27
HETATM   27  O   UNK N   1      22.065  -8.459  -0.663  0.00  0.00    -0.362 OA
HETATM   28  H   UNK N   1      22.807  -8.920  -1.001  0.00  0.00     0.217 HD
ENDBRANCH   7  27
BRANCH   2  29
HETATM   29  O   UNK N   1      18.716 -10.657  -1.669  0.00  0.00    -0.374 OA
HETATM   30  H   UNK N   1      18.669 -10.917  -2.602  0.00  0.00     0.211 HD
ENDBRANCH   2  29
BRANCH   3  31
HETATM   31  N   UNK N   1      19.984  -6.803  -0.261  0.00  0.00     0.091 N 
HETATM   32  C   UNK N   1      20.848  -6.142   0.705  0.00  0.00     0.310 C 
HETATM   33  C   UNK N   1      18.815  -5.956  -0.426  0.00  0.00     0.310 C 
ENDBRANCH   3  31
BRANCH   5  34
HETATM   34  O   UNK N   1      17.150 -12.521  -0.122  0.00  0.00    -0.361 OA
HETATM   35  H   UNK N   1      16.351 -13.007  -0.176  0.00  0.00     0.217 HD
ENDBRANCH   5  34
BRANCH   4  36
HETATM   36  O   UNK N   1      17.165  -7.172   1.199  0.00  0.00    -0.394 OA
HETATM   37  H   UNK N   1      17.960  -6.668   1.432  0.00  0.00     0.210 HD
ENDBRANCH   4  36
BRANCH  18  38
HETATM   38  O   UNK N   1      12.117 -12.559  -0.218  0.00  0.00    -0.360 OA
HETATM   39  H   UNK N   1      11.299 -13.002  -0.330  0.00  0.00     0.217 HD
ENDBRANCH  18  38
TORSDOF 7
