REMARK  4 active torsions:
REMARK  status: ('A' for Active; 'I' for Inactive)
REMARK       I    between atoms: C_9  and  N_13 
REMARK    1  A    between atoms: C_10  and  C_14 
REMARK    2  A    between atoms: C_14  and  C_15 
REMARK    3  A    between atoms: C_14  and  O_16 
REMARK    4  A    between atoms: C_15  and  O_18 
ROOT
HETATM    1  C   UNK N   1      17.289 -13.750  -0.091  0.00  0.00     0.149 A 
HETATM    2  C   UNK N   1      17.174 -12.362   0.020  0.00  0.00     0.142 A 
HETATM    3  N   UNK N   1      16.116 -14.534  -0.217  0.00  0.00    -0.372 N 
HETATM    4  N   UNK N   1      18.515 -14.333  -0.121  0.00  0.00    -0.175 N 
ATOM      5  HN  UNK N   1      18.590 -15.348  -0.184  1.00  0.00     0.186 HD
HETATM    6  N   UNK N   1      15.883 -11.771   0.091  0.00  0.00    -0.374 N 
HETATM    7  C   UNK N   1      18.339 -11.594   0.046  0.00  0.00     0.289 A 
HETATM    8  C   UNK N   1      14.856 -13.889  -0.534  0.00  0.00     0.149 C 
HETATM    9  C   UNK N   1      19.645 -13.576  -0.066  0.00  0.00     0.680 A 
HETATM   10  C   UNK N   1      14.711 -12.607   0.297  0.00  0.00     0.131 C 
HETATM   11  N   UNK N   1      19.559 -12.220   0.002  0.00  0.00    -0.154 N 
HETATM   12  O   UNK N   1      18.281 -10.379   0.109  0.00  0.00    -0.265 OA
HETATM   13  N   UNK N   1      20.908 -14.199  -0.097  0.00  0.00    -0.234 N 
HETATM   14  H   UNK N   1      16.156 -15.510  -0.092  0.00  0.00     0.161 HD
HETATM   15  H   UNK N   1      15.782 -10.796  -0.000  0.00  0.00     0.160 HD
HETATM   16  H   UNK N   1      20.382 -11.681   0.020  0.00  0.00     0.187 HD
HETATM   17  H   UNK N   1      20.972 -15.181  -0.119  0.00  0.00     0.174 HD
HETATM   18  H   UNK N   1      21.726 -13.652  -0.097  0.00  0.00     0.174 HD
ENDROOT
BRANCH  10  19
HETATM   19  C   UNK N   1      13.428 -11.817  -0.023  0.00  0.00     0.170 C 
BRANCH  19  20
HETATM   20  C   UNK N   1      12.186 -12.709  -0.165  0.00  0.00     0.145 C 
HETATM   21  C   UNK N   1      10.934 -11.864  -0.311  0.00  0.00     0.042 C 
BRANCH  20  22
HETATM   22  O   UNK N   1      12.042 -13.565   0.926  0.00  0.00    -0.393 OA
HETATM   23  H   UNK N   1      11.477 -13.776   1.686  0.00  0.00     0.210 HD
ENDBRANCH  20  22
ENDBRANCH  19  20
BRANCH  19  24
HETATM   24  O   UNK N   1      13.590 -11.070  -1.193  0.00  0.00    -0.391 OA
HETATM   25  H   UNK N   1      14.096 -10.908  -2.005  0.00  0.00     0.210 HD
ENDBRANCH  19  24
ENDBRANCH  10  19
TORSDOF 4
