REMARK  9 active torsions:
REMARK  status: ('A' for Active; 'I' for Inactive)
REMARK    1  A    between atoms: C_1  and  C_12 
REMARK    2  A    between atoms: C_2  and  O_7 
REMARK    3  A    between atoms: C_3  and  O_8 
REMARK    4  A    between atoms: C_4  and  O_9 
REMARK    5  A    between atoms: C_5  and  C_10 
REMARK    6  A    between atoms: C_10  and  O_11 
REMARK    7  A    between atoms: C_16  and  O_21 
REMARK    8  A    between atoms: C_22  and  C_24 
REMARK    9  A    between atoms: C_29  and  O_30 
ROOT
HETATM    1  C   UNK N   1      12.315 -10.352   0.010  0.00  0.00     0.041 A 
HETATM    2  C   UNK N   1      13.511 -11.138   0.028  0.00  0.00     0.101 A 
HETATM    3  C   UNK N   1      13.443 -12.554   0.001  0.00  0.00     0.050 A 
HETATM    4  O   UNK N   1      14.701 -10.551   0.029  0.00  0.00    -0.320 OA
HETATM    5  C   UNK N   1      11.076 -11.042  -0.076  0.00  0.00     0.077 A 
HETATM    6  C   UNK N   1      14.641 -13.294  -0.009  0.00  0.00     0.197 A 
HETATM    7  C   UNK N   1      12.203 -13.188  -0.031  0.00  0.00     0.021 A 
HETATM    8  C   UNK N   1      15.844 -11.216   0.012  0.00  0.00     0.159 A 
HETATM    9  C   UNK N   1      11.035 -12.438  -0.076  0.00  0.00     0.038 A 
HETATM   10  C   UNK N   1      15.877 -12.612  -0.002  0.00  0.00     0.048 A 
HETATM   11  O   UNK N   1      14.601 -14.516  -0.035  0.00  0.00    -0.286 OA
ENDROOT
BRANCH   1  12
HETATM   12  C   UNK N   1      12.388  -8.801  -0.030  0.00  0.00     0.192 C 
HETATM   13  C   UNK N   1      11.557  -7.915   0.926  0.00  0.00     0.183 C 
HETATM   14  C   UNK N   1      11.617  -6.519   0.292  0.00  0.00     0.181 C 
HETATM   15  C   UNK N   1      13.063  -6.049   0.136  0.00  0.00     0.180 C 
HETATM   16  C   UNK N   1      13.917  -7.149  -0.516  0.00  0.00     0.177 C 
HETATM   17  O   UNK N   1      13.715  -8.363   0.155  0.00  0.00    -0.368 OA
BRANCH  13  18
HETATM   18  O   UNK N   1      10.222  -8.287   1.040  0.00  0.00    -0.390 OA
HETATM   19  H   UNK N   1       9.531  -7.610   1.120  0.00  0.00     0.210 HD
ENDBRANCH  13  18
BRANCH  14  20
HETATM   20  O   UNK N   1      10.890  -5.593   1.041  0.00  0.00    -0.390 OA
HETATM   21  H   UNK N   1      11.195  -4.833   1.561  0.00  0.00     0.210 HD
ENDBRANCH  14  20
BRANCH  15  22
HETATM   22  O   UNK N   1      13.088  -4.900  -0.658  0.00  0.00    -0.390 OA
HETATM   23  H   UNK N   1      13.788  -4.517  -1.210  0.00  0.00     0.210 HD
ENDBRANCH  15  22
BRANCH  16  24
HETATM   24  C   UNK N   1      15.401  -6.820  -0.357  0.00  0.00     0.198 C 
BRANCH  24  25
HETATM   25  O   UNK N   1      15.733  -5.610  -0.964  0.00  0.00    -0.398 OA
HETATM   26  H   UNK N   1      16.577  -5.389  -1.387  0.00  0.00     0.209 HD
ENDBRANCH  24  25
ENDBRANCH  16  24
ENDBRANCH   1  12
BRANCH   5  27
HETATM   27  O   UNK N   1       9.913 -10.387  -0.191  0.00  0.00    -0.360 OA
HETATM   28  H   UNK N   1       9.903  -9.453  -0.271  0.00  0.00     0.217 HD
ENDBRANCH   5  27
BRANCH  10  29
HETATM   29  C   UNK N   1      17.210 -13.283   0.015  0.00  0.00    -0.020 A 
HETATM   30  C   UNK N   1      17.340 -14.674   0.157  0.00  0.00     0.015 A 
HETATM   31  C   UNK N   1      18.605 -15.265   0.233  0.00  0.00     0.037 A 
HETATM   32  C   UNK N   1      19.755 -14.472   0.164  0.00  0.00     0.065 A 
HETATM   33  C   UNK N   1      19.641 -13.092   0.006  0.00  0.00     0.037 A 
HETATM   34  C   UNK N   1      18.378 -12.502  -0.063  0.00  0.00     0.015 A 
BRANCH  32  35
HETATM   35  O   UNK N   1      20.969 -15.037   0.254  0.00  0.00    -0.361 OA
HETATM   36  H   UNK N   1      21.051 -15.969   0.316  0.00  0.00     0.217 HD
ENDBRANCH  32  35
ENDBRANCH  10  29
TORSDOF 9
