REMARK  7 active torsions:
REMARK  status: ('A' for Active; 'I' for Inactive)
REMARK    1  A    between atoms: C_1  and  O_14 
REMARK    2  A    between atoms: C_4  and  O_3 
REMARK    3  A    between atoms: C_18  and  O_19 
REMARK    4  A    between atoms: O_19  and  C_34 
REMARK    5  A    between atoms: C_23  and  O_31 
REMARK    6  A    between atoms: C_27  and  O_32 
REMARK    7  A    between atoms: C_37  and  O_38 
ROOT
HETATM    1  C   UNK N   1      18.999  -5.562   0.658  0.00  0.00     0.130 C 
HETATM    2  C   UNK N   1      18.483  -5.829  -0.784  0.00  0.00     0.041 C 
HETATM    3  C   UNK N   1      21.466  -4.582   1.245  0.00  0.00     0.131 C 
HETATM    4  C   UNK N   1      20.029  -4.410   0.718  0.00  0.00     0.040 C 
HETATM    5  C   UNK N   1      23.877  -4.879   0.642  0.00  0.00    -0.020 C 
HETATM    6  C   UNK N   1      22.526  -4.457   0.133  0.00  0.00     0.033 C 
HETATM    7  C   UNK N   1      25.194  -7.562  -0.608  0.00  0.00     0.251 C 
HETATM    8  C   UNK N   1      26.254  -6.835   0.157  0.00  0.00     0.006 C 
HETATM    9  C   UNK N   1      26.188  -5.505   0.389  0.00  0.00     0.012 C 
HETATM   10  C   UNK N   1      25.018  -4.717  -0.042  0.00  0.00    -0.003 C 
HETATM   11  C   UNK N   1      22.560  -3.052  -0.442  0.00  0.00     0.017 C 
HETATM   12  C   UNK N   1      19.541  -2.990   0.496  0.00  0.00     0.015 C 
HETATM   13  C   UNK N   1      27.326  -7.616   0.845  0.00  0.00     0.054 C 
HETATM   14  O   UNK N   1      24.429  -6.960  -1.348  0.00  0.00    -0.268 OA
HETATM   15  N   UNK N   1      25.035  -8.888  -0.400  0.00  0.00    -0.319 N 
HETATM   16  C   UNK N   1      17.324  -6.862  -1.008  0.00  0.00     0.144 C 
HETATM   17  C   UNK N   1      17.241  -8.141  -0.142  0.00  0.00     0.044 C 
HETATM   18  C   UNK N   1      23.796  -9.598  -0.455  0.00  0.00     0.099 C 
HETATM   19  C   UNK N   1      23.806 -10.986  -0.514  0.00  0.00     0.098 A 
HETATM   20  C   UNK N   1      22.574  -8.977  -0.109  0.00  0.00     0.108 C 
HETATM   21  C   UNK N   1      21.447  -9.772   0.226  0.00  0.00     0.047 C 
HETATM   22  C   UNK N   1      21.456 -11.187   0.005  0.00  0.00     0.026 C 
HETATM   23  C   UNK N   1      22.675 -11.763  -0.378  0.00  0.00     0.076 A 
HETATM   24  C   UNK N   1      20.365  -9.194   0.941  0.00  0.00     0.088 C 
HETATM   25  C   UNK N   1      19.368 -10.004   1.466  0.00  0.00     0.007 C 
HETATM   26  C   UNK N   1      19.325 -11.316   1.097  0.00  0.00     0.096 C 
HETATM   27  C   UNK N   1      20.285 -11.903   0.337  0.00  0.00     0.063 C 
HETATM   28  C   UNK N   1      19.658  -6.221  -1.662  0.00  0.00     0.015 C 
HETATM   29  C   UNK N   1      16.491  -9.344  -0.826  0.00  0.00     0.151 C 
HETATM   30  C   UNK N   1      16.764 -10.735  -0.241  0.00  0.00     0.029 C 
HETATM   31  C   UNK N   1      16.577  -7.764   1.179  0.00  0.00     0.015 C 
HETATM   32  C   UNK N   1      17.036 -11.846  -0.980  0.00  0.00     0.137 C 
HETATM   33  O   UNK N   1      17.385 -13.070  -0.422  0.00  0.00    -0.319 OA
HETATM   34  O   UNK N   1      18.313 -12.138   1.403  0.00  0.00    -0.305 OA
HETATM   35  C   UNK N   1      18.331 -13.254   0.599  0.00  0.00     0.237 C 
HETATM   36  C   UNK N   1      19.761 -13.219   0.065  0.00  0.00     0.225 C 
HETATM   37  C   UNK N   1      18.062 -14.503   1.418  0.00  0.00     0.089 C 
HETATM   38  C   UNK N   1      18.356  -9.480   2.415  0.00  0.00     0.054 C 
HETATM   39  N   UNK N   1      23.024 -13.071  -0.333  0.00  0.00    -0.339 N 
ATOM     40  HN  UNK N   1      22.413 -13.886  -0.272  1.00  0.00     0.167 HD
HETATM   41  C   UNK N   1      24.386 -13.040  -0.390  0.00  0.00     0.113 A 
HETATM   42  N   UNK N   1      24.866 -11.790  -0.520  0.00  0.00    -0.304 N 
HETATM   43  O   UNK N   1      20.274 -14.060  -0.657  0.00  0.00    -0.286 OA
HETATM   44  C   UNK N   1      25.245 -14.110  -0.159  0.00  0.00     0.056 A 
HETATM   45  C   UNK N   1      26.626 -13.830  -0.078  0.00  0.00    -0.057 A 
HETATM   46  C   UNK N   1      27.101 -12.517  -0.255  0.00  0.00     0.024 A 
HETATM   47  C   UNK N   1      26.191 -11.485  -0.482  0.00  0.00     0.099 A 
HETATM   48  C   UNK N   1      27.588 -14.909   0.259  0.00  0.00     0.048 C 
HETATM   49  H   UNK N   1      25.843  -9.411  -0.194  0.00  0.00     0.169 HD
ENDROOT
BRANCH  16  50
HETATM   50  O   UNK N   1      16.064  -6.322  -1.218  0.00  0.00    -0.315 OA
BRANCH  50  51
HETATM   51  C   UNK N   1      15.474  -5.381  -0.440  0.00  0.00     0.255 C 
HETATM   52  C   UNK N   1      14.048  -5.549  -0.051  0.00  0.00     0.126 C 
HETATM   53  O   UNK N   1      16.091  -4.400  -0.058  0.00  0.00    -0.266 OA
ENDBRANCH  50  51
ENDBRANCH  16  50
BRANCH   1  54
HETATM   54  O   UNK N   1      17.966  -5.297   1.557  0.00  0.00    -0.395 OA
HETATM   55  H   UNK N   1      17.767  -4.583   2.182  0.00  0.00     0.210 HD
ENDBRANCH   1  54
BRANCH  29  56
HETATM   56  O   UNK N   1      15.123  -9.097  -1.101  0.00  0.00    -0.386 OA
HETATM   57  C   UNK N   1      14.361  -9.283   0.067  0.00  0.00     0.202 C 
ENDBRANCH  29  56
BRANCH   3  58
HETATM   58  O   UNK N   1      21.606  -5.777   1.951  0.00  0.00    -0.394 OA
HETATM   59  H   UNK N   1      20.935  -6.277   2.442  0.00  0.00     0.210 HD
ENDBRANCH   3  58
BRANCH  24  60
HETATM   60  O   UNK N   1      20.340  -7.892   1.229  0.00  0.00    -0.359 OA
HETATM   61  H   UNK N   1      21.123  -7.419   1.431  0.00  0.00     0.217 HD
ENDBRANCH  24  60
BRANCH  20  62
HETATM   62  O   UNK N   1      22.518  -7.649   0.067  0.00  0.00    -0.357 OA
HETATM   63  H   UNK N   1      23.302  -7.151   0.190  0.00  0.00     0.217 HD
ENDBRANCH  20  62
TORSDOF 7
