REMARK  1 active torsions:
REMARK  status: ('A' for Active; 'I' for Inactive)
REMARK    1  A    between atoms: O_2  and  C_3 
ROOT
HETATM    1  C   UNK N   1       2.977  -0.878   0.000  0.00  0.00     0.094 A 
HETATM    2  C   UNK N   1       4.301  -1.432  -0.000  0.00  0.00     0.032 A 
HETATM    3  C   UNK N   1       5.457  -0.645   0.000  0.00  0.00     0.023 A 
HETATM    4  C   UNK N   1       6.712  -1.252   0.000  0.00  0.00     0.083 A 
HETATM    5  C   UNK N   1       6.797  -2.646   0.000  0.00  0.00     0.288 A 
HETATM    6  O   UNK N   1       7.886  -3.187   0.000  0.00  0.00    -0.260 OA
HETATM    7  O   UNK N   1       5.693  -3.387  -0.000  0.00  0.00    -0.275 OA
HETATM    8  C   UNK N   1       4.475  -2.855  -0.000  0.00  0.00     0.095 A 
HETATM    9  C   UNK N   1       3.361  -3.707  -0.000  0.00  0.00     0.076 A 
HETATM   10  C   UNK N   1       2.102  -3.132  -0.000  0.00  0.00     0.090 A 
HETATM   11  C   UNK N   1       1.915  -1.784  -0.000  0.00  0.00     0.034 A 
HETATM   12  C   UNK N   1       0.556  -1.562   0.000  0.00  0.00     0.041 A 
HETATM   13  C   UNK N   1      -0.013  -2.837  -0.000  0.00  0.00     0.143 A 
HETATM   14  O   UNK N   1       0.949  -3.744  -0.000  0.00  0.00    -0.322 OA
ENDROOT
BRANCH   1  15
HETATM   15  O   UNK N   1       2.681   0.452   0.000  0.00  0.00    -0.354 OA
HETATM   16  C   UNK N   1       3.584   1.489   0.000  0.00  0.00     0.210 C 
ENDBRANCH   1  15
TORSDOF 1
