REMARK  4 active torsions:
REMARK  status: ('A' for Active; 'I' for Inactive)
REMARK    1  A    between atoms: C_2  and  N_7 
REMARK    2  A    between atoms: C_3  and  C_10 
REMARK    3  A    between atoms: C_5  and  N_13 
REMARK    4  A    between atoms: C_6  and  N_16 
REMARK       I    between atoms: C_10  and  N_11 
ROOT
HETATM    1  C   UNK N   1       1.438   1.019   0.001  0.00  0.00     0.075 A 
HETATM    2  C   UNK N   1       1.490  -0.381   0.000  0.00  0.00     0.121 A 
HETATM    3  C   UNK N   1       0.237  -1.100  -0.000  0.00  0.00     0.067 A 
HETATM    4  C   UNK N   1      -0.947  -0.341  -0.000  0.00  0.00     0.051 A 
HETATM    5  C   UNK N   1      -0.973   1.056   0.000  0.00  0.00     0.064 A 
HETATM    6  C   UNK N   1       0.261   1.759   0.001  0.00  0.00     0.131 A 
ENDROOT
BRANCH   3   7
HETATM    7  C   UNK N   1       0.022  -2.589  -0.000  0.00  0.00     0.252 C 
HETATM    8  N   UNK N   1      -1.238  -3.076  -0.001  0.00  0.00    -0.366 N 
HETATM    9  H   UNK N   1      -2.005  -2.459  -0.001  0.00  0.00     0.159 HD
HETATM   10  H   UNK N   1      -1.389  -4.049  -0.001  0.00  0.00     0.159 HD
HETATM   11  O   UNK N   1       0.941  -3.381   0.000  0.00  0.00    -0.268 OA
ENDBRANCH   3   7
BRANCH   2  12
HETATM   12  N   UNK N   1       2.811  -0.955   0.000  0.00  0.00    -0.115 N 
HETATM   13  O   UNK N   1       3.761  -0.229   0.002  0.00  0.00    -0.532 OA
HETATM   14  O   UNK N   1       3.021  -2.246  -0.004  0.00  0.00    -0.532 OA
ENDBRANCH   2  12
BRANCH   5  15
HETATM   15  N   UNK N   1      -2.247   1.688   0.000  0.00  0.00    -0.376 N 
HETATM   16  C   UNK N   1      -3.031   2.824   0.000  0.00  0.00     0.143 A 
HETATM   17  C   UNK N   1      -3.555   1.244  -0.000  0.00  0.00     0.143 A 
ENDBRANCH   5  15
BRANCH   6  18
HETATM   18  N   UNK N   1       0.386   3.184   0.001  0.00  0.00    -0.113 N 
HETATM   19  O   UNK N   1      -0.569   3.893   0.000  0.00  0.00    -0.532 OA
HETATM   20  O   UNK N   1       1.586   3.729   0.001  0.00  0.00    -0.532 OA
ENDBRANCH   6  18
TORSDOF 4
