REMARK  10 active torsions:
REMARK  status: ('A' for Active; 'I' for Inactive)
REMARK    1  A    between atoms: C_2  and  C_1 
REMARK    2  A    between atoms: C_2  and  O_8 
REMARK    3  A    between atoms: C_3  and  C_2 
REMARK    4  A    between atoms: C_3  and  O_9 
REMARK    5  A    between atoms: C_4  and  C_3 
REMARK    6  A    between atoms: C_4  and  O_10 
REMARK    7  A    between atoms: C_5  and  C_4 
REMARK    8  A    between atoms: C_5  and  O_11 
REMARK    9  A    between atoms: C_6  and  C_5 
REMARK   10  A    between atoms: O_12  and  C_6 
ROOT
HETATM    1  C   UNK N   1       5.994  -3.864   0.278  0.00  0.00     0.180 C 
ENDROOT
BRANCH   1   2
HETATM    2  C   UNK N   1       6.428  -2.484  -0.263  0.00  0.00     0.184 C 
BRANCH   2   3
HETATM    3  C   UNK N   1       5.566  -1.338   0.307  0.00  0.00     0.210 C 
BRANCH   3   4
HETATM    4  C   UNK N   1       5.998   0.002  -0.205  0.00  0.00     0.265 C 
HETATM    5  O   UNK N   1       7.097   0.453   0.069  0.00  0.00    -0.304 OA
ENDBRANCH   3   4
BRANCH   3   6
HETATM    6  O   UNK N   1       4.225  -1.513  -0.037  0.00  0.00    -0.386 OA
HETATM    7  H   UNK N   1       3.654  -0.767  -0.276  0.00  0.00     0.210 HD
ENDBRANCH   3   6
ENDBRANCH   2   3
BRANCH   2   8
HETATM    8  O   UNK N   1       7.767  -2.252   0.063  0.00  0.00    -0.390 OA
HETATM    9  H   UNK N   1       8.371  -2.977   0.289  0.00  0.00     0.210 HD
ENDBRANCH   2   8
ENDBRANCH   1   2
BRANCH   1  10
HETATM   10  O   UNK N   1       4.647  -4.079  -0.022  0.00  0.00    -0.390 OA
HETATM   11  H   UNK N   1       4.050  -3.343  -0.230  0.00  0.00     0.210 HD
ENDBRANCH   1  10
BRANCH   1  12
HETATM   12  C   UNK N   1       6.822  -5.027  -0.302  0.00  0.00     0.173 C 
BRANCH  12  13
HETATM   13  O   UNK N   1       8.177  -4.863  -0.006  0.00  0.00    -0.391 OA
HETATM   14  H   UNK N   1       8.746  -5.621   0.200  0.00  0.00     0.210 HD
ENDBRANCH  12  13
BRANCH  12  15
HETATM   15  C   UNK N   1       6.382  -6.372   0.271  0.00  0.00     0.198 C 
BRANCH  15  16
HETATM   16  O   UNK N   1       5.093  -6.702  -0.152  0.00  0.00    -0.398 OA
HETATM   17  H   UNK N   1       4.446  -6.041  -0.445  0.00  0.00     0.209 HD
ENDBRANCH  15  16
ENDBRANCH  12  15
ENDBRANCH   1  12
TORSDOF 10
