REMARK  1 active torsions:
REMARK  status: ('A' for Active; 'I' for Inactive)
REMARK    1  A    between atoms: C_15  and  N_7 
ROOT
HETATM    1  C   UNK N   1      -2.078   0.403  -0.269  0.00  0.00     0.039 A 
HETATM    2  C   UNK N   1      -1.990  -0.991  -0.106  0.00  0.00    -0.030 A 
HETATM    3  C   UNK N   1      -3.329   1.031  -0.236  0.00  0.00     0.017 A 
HETATM    4  C   UNK N   1      -3.161  -1.759   0.058  0.00  0.00    -0.050 A 
HETATM    5  C   UNK N   1      -4.490   0.268  -0.077  0.00  0.00     0.002 A 
HETATM    6  C   UNK N   1      -4.406  -1.122   0.060  0.00  0.00     0.007 A 
HETATM    7  N   UNK N   1       0.310   0.479  -0.895  0.00  0.00    -0.341 N 
HETATM    8  C   UNK N   1       0.204  -0.948  -1.169  0.00  0.00     0.136 C 
HETATM    9  C   UNK N   1      -0.827   1.167  -0.517  0.00  0.00     0.254 C 
HETATM   10  C   UNK N   1      -0.620  -1.626  -0.092  0.00  0.00     0.038 C 
HETATM   11  C   UNK N   1      -0.676  -3.127  -0.348  0.00  0.00     0.011 C 
HETATM   12  C   UNK N   1      -1.699  -3.767   0.574  0.00  0.00     0.005 C 
HETATM   13  C   UNK N   1      -3.103  -3.253   0.247  0.00  0.00     0.039 C 
HETATM   14  O   UNK N   1      -0.831   2.382  -0.397  0.00  0.00    -0.267 OA
ENDROOT
BRANCH   7  15
HETATM   15  C   UNK N   1       1.629   1.077  -1.110  0.00  0.00     0.120 C 
HETATM   16  C   UNK N   1       1.750   2.608  -0.885  0.00  0.00     0.298 C 
HETATM   17  N   UNK N   1       2.873   2.931   0.015  0.00  0.00     0.090 N 
HETATM   18  C   UNK N   1       4.125   2.394  -0.553  0.00  0.00     0.273 C 
HETATM   19  C   UNK N   1       2.628   2.304   1.328  0.00  0.00     0.273 C 
HETATM   20  C   UNK N   1       4.062   0.859  -0.708  0.00  0.00     0.037 C 
HETATM   21  C   UNK N   1       2.690   0.357  -0.257  0.00  0.00     0.014 C 
HETATM   22  C   UNK N   1       2.496   0.770   1.207  0.00  0.00     0.037 C 
ENDBRANCH   7  15
TORSDOF 1
