REMARK  7 active torsions:
REMARK  status: ('A' for Active; 'I' for Inactive)
REMARK    1  A    between atoms: C_5  and  N_15 
REMARK    2  A    between atoms: C_11  and  C_12 
REMARK    3  A    between atoms: C_12  and  O_14 
REMARK       I    between atoms: N_15  and  C_16 
REMARK    4  A    between atoms: C_16  and  C_17 
REMARK    5  A    between atoms: C_17  and  C_18 
REMARK    6  A    between atoms: C_17  and  S_20 
REMARK    7  A    between atoms: C_18  and  C_21 
ROOT
HETATM    1  S   UNK N   1       1.177   4.301   0.838  0.00  0.00    -0.143 SA
HETATM    2  C   UNK N   1       2.117   3.131  -0.215  0.00  0.00     0.150 C 
HETATM    3  N   UNK N   1       1.904   1.755   0.274  0.00  0.00    -0.322 N 
HETATM    4  C   UNK N   1       0.636   1.204   0.334  0.00  0.00     0.244 C 
HETATM    5  C   UNK N   1      -0.624   1.840  -0.237  0.00  0.00     0.177 C 
HETATM    6  C   UNK N   1      -0.615   3.162  -0.997  0.00  0.00     0.045 C 
HETATM    7  C   UNK N   1      -0.364   4.386  -0.135  0.00  0.00     0.078 C 
HETATM    8  C   UNK N   1       3.561   3.644  -0.157  0.00  0.00     0.036 C 
HETATM    9  C   UNK N   1       4.582   2.548  -0.274  0.00  0.00     0.005 C 
HETATM   10  C   UNK N   1       4.336   1.666   0.923  0.00  0.00     0.036 C 
HETATM   11  C   UNK N   1       3.030   0.901   0.711  0.00  0.00     0.186 C 
HETATM   12  O   UNK N   1       0.488   0.109   0.856  0.00  0.00    -0.271 OA
ENDROOT
BRANCH   5  13
HETATM   13  N   UNK N   1      -1.750   1.711   0.658  0.00  0.00    -0.347 N 
HETATM   14  C   UNK N   1      -2.768   0.856   0.374  0.00  0.00     0.232 C 
HETATM   15  O   UNK N   1      -3.710   0.770   1.144  0.00  0.00    -0.272 OA
HETATM   16  H   UNK N   1      -1.781   2.248   1.483  0.00  0.00     0.163 HD
BRANCH  14  17
HETATM   17  C   UNK N   1      -2.770   0.060  -0.914  0.00  0.00     0.140 C 
BRANCH  17  18
HETATM   18  C   UNK N   1      -1.698  -1.036  -1.039  0.00  0.00     0.063 C 
BRANCH  18  19
HETATM   19  C   UNK N   1      -1.979  -2.377  -0.411  0.00  0.00    -0.057 A 
HETATM   20  C   UNK N   1      -1.093  -3.430  -0.672  0.00  0.00     0.007 A 
HETATM   21  C   UNK N   1      -1.339  -4.707  -0.157  0.00  0.00     0.001 A 
HETATM   22  C   UNK N   1      -2.474  -4.939   0.623  0.00  0.00     0.000 A 
HETATM   23  C   UNK N   1      -3.359  -3.892   0.895  0.00  0.00     0.001 A 
HETATM   24  C   UNK N   1      -3.114  -2.615   0.379  0.00  0.00     0.007 A 
ENDBRANCH  18  19
ENDBRANCH  17  18
BRANCH  17  25
HETATM   25  S   UNK N   1      -4.415  -0.413  -1.544  0.00  0.00    -0.168 SA
HETATM   26  H   UNK N   1      -5.333   0.473  -2.014  0.00  0.00     0.102 HD
ENDBRANCH  17  25
ENDBRANCH  14  17
ENDBRANCH   5  13
BRANCH  11  27
HETATM   27  C   UNK N   1       3.257  -0.273  -0.245  0.00  0.00     0.163 C 
HETATM   28  O   UNK N   1       4.380  -0.538  -0.646  0.00  0.00    -0.648 OA
BRANCH  27  29
HETATM   29  O   UNK N   1       2.229  -1.047  -0.643  0.00  0.00    -0.775 OA
HETATM   30  H   UNK N   1       1.405  -0.698  -0.920  0.00  0.00     0.167 HD
ENDBRANCH  27  29
ENDBRANCH  11  27
TORSDOF 7
