REMARK  1 active torsions:
REMARK  status: ('A' for Active; 'I' for Inactive)
REMARK    1  A    between atoms: C_3  and  N_16 
ROOT
HETATM    1  N   UNK N   1       0.580  -0.291   0.337  0.00  0.00    -0.340 N 
ATOM      2  HN  UNK N   1       0.300   0.680   0.482  1.00  0.00     0.167 HD
HETATM    3  C   UNK N   1       1.863  -0.445   0.434  0.00  0.00     0.117 C 
HETATM    4  C   UNK N   1       2.550  -1.755   0.207  0.00  0.00     0.043 A 
HETATM    5  C   UNK N   1      -0.538  -2.555   0.019  0.00  0.00     0.060 A 
HETATM    6  C   UNK N   1      -0.538  -1.133   0.079  0.00  0.00     0.060 A 
HETATM    7  C   UNK N   1      -1.762  -0.465  -0.087  0.00  0.00     0.032 A 
HETATM    8  C   UNK N   1      -2.951  -1.154  -0.316  0.00  0.00     0.002 A 
HETATM    9  C   UNK N   1      -1.748  -3.229  -0.196  0.00  0.00     0.032 A 
HETATM   10  C   UNK N   1      -2.945  -2.540  -0.365  0.00  0.00     0.002 A 
HETATM   11  N   UNK N   1       0.601  -3.375   0.131  0.00  0.00    -0.348 N 
HETATM   12  C   UNK N   1       1.954  -3.014   0.092  0.00  0.00     0.089 A 
HETATM   13  C   UNK N   1       3.973  -1.831   0.044  0.00  0.00     0.032 A 
HETATM   14  S   UNK N   1       3.150  -4.127  -0.170  0.00  0.00    -0.076 SA
HETATM   15  C   UNK N   1       4.446  -3.119  -0.179  0.00  0.00    -0.018 A 
HETATM   16  C   UNK N   1       5.860  -3.504  -0.421  0.00  0.00     0.056 C 
HETATM   17  H   UNK N   1       0.421  -4.335   0.255  0.00  0.00     0.166 HD
ENDROOT
BRANCH   3  18
HETATM   18  N   UNK N   1       2.636   0.734   0.741  0.00  0.00    -0.363 N 
HETATM   19  C   UNK N   1       2.049   2.048   0.617  0.00  0.00     0.154 C 
HETATM   20  C   UNK N   1       2.921   2.862  -0.343  0.00  0.00     0.291 C 
HETATM   21  N   UNK N   1       4.313   2.881   0.122  0.00  0.00     0.087 N 
HETATM   22  C   UNK N   1       4.843   1.518   0.190  0.00  0.00     0.291 C 
HETATM   23  C   UNK N   1       5.092   3.582  -0.881  0.00  0.00     0.310 C 
HETATM   24  C   UNK N   1       4.018   0.686   1.163  0.00  0.00     0.154 C 
ENDBRANCH   3  18
TORSDOF 1
