REMARK  2 active torsions:
REMARK  status: ('A' for Active; 'I' for Inactive)
REMARK    1  A    between atoms: C_3  and  O_21 
REMARK    2  A    between atoms: C_15  and  C_16 
ROOT
HETATM    1  C   UNK N   1       2.778  -0.159   1.158  0.00  0.00     0.010 C 
HETATM    2  C   UNK N   1       0.405  -1.919   0.817  0.00  0.00     0.010 C 
HETATM    3  C   UNK N   1       3.225   1.949   0.255  0.00  0.00     0.128 C 
HETATM    4  C   UNK N   1       0.904   1.720  -1.392  0.00  0.00     0.047 C 
HETATM    5  C   UNK N   1       3.846   0.573   0.353  0.00  0.00     0.052 C 
HETATM    6  C   UNK N   1      -2.141  -0.783  -0.358  0.00  0.00     0.023 C 
HETATM    7  C   UNK N   1      -0.558   1.251  -1.088  0.00  0.00    -0.083 C 
HETATM    8  C   UNK N   1      -0.848  -2.788   0.846  0.00  0.00     0.035 C 
HETATM    9  C   UNK N   1      -2.097  -2.171   0.284  0.00  0.00    -0.072 C 
HETATM   10  C   UNK N   1      -3.187   0.007   0.438  0.00  0.00     0.017 C 
HETATM   11  C   UNK N   1      -3.244  -2.838   0.469  0.00  0.00     0.053 C 
HETATM   12  C   UNK N   1      -4.579  -0.644   0.200  0.00  0.00     0.084 C 
HETATM   13  C   UNK N   1       0.198  -0.397   0.673  0.00  0.00    -0.000 C 
HETATM   14  C   UNK N   1      -0.715  -0.173  -0.549  0.00  0.00     0.026 C 
HETATM   15  C   UNK N   1       1.671   1.746  -0.038  0.00  0.00     0.009 C 
HETATM   16  C   UNK N   1       1.569   0.215   0.341  0.00  0.00     0.003 C 
HETATM   17  O   UNK N   1      -5.540  -2.818   0.039  0.00  0.00    -0.293 OA
HETATM   18  C   UNK N   1      -4.524  -2.162   0.200  0.00  0.00     0.149 C 
HETATM   19  C   UNK N   1       3.990   2.850  -0.606  0.00  0.00    -0.078 C 
HETATM   20  C   UNK N   1       4.722   3.564  -1.245  0.00  0.00     0.015 C 
HETATM   21  C   UNK N   1      -1.484   2.169  -0.785  0.00  0.00     0.015 C 
ENDROOT
BRANCH   3  22
HETATM   22  O   UNK N   1       3.387   2.454   1.554  0.00  0.00    -0.377 OA
HETATM   23  H   UNK N   1       3.745   2.532   2.453  0.00  0.00     0.211 HD
ENDBRANCH   3  22
BRANCH  15  24
HETATM   24  C   UNK N   1       0.948   3.001   0.539  0.00  0.00     0.010 C 
HETATM   25  C   UNK N   1       0.863   3.275   2.016  0.00  0.00     0.006 C 
ENDBRANCH  15  24
TORSDOF 2
