REMARK  7 active torsions:
REMARK  status: ('A' for Active; 'I' for Inactive)
REMARK    1  A    between atoms: C_4  and  S_5 
REMARK    2  A    between atoms: C_6  and  S_5 
REMARK    3  A    between atoms: C_9  and  C_11 
REMARK       I    between atoms: C_11  and  N_13 
REMARK    4  A    between atoms: C_16  and  C_24 
REMARK    5  A    between atoms: C_20  and  C_21 
REMARK    6  A    between atoms: C_21  and  O_23 
REMARK    7  A    between atoms: C_24  and  O_25 
ROOT
HETATM    1  C   UNK N   1       1.099   0.316   0.488  0.00  0.00     0.095 A 
HETATM    2  C   UNK N   1       2.438   0.615  -0.242  0.00  0.00     0.043 A 
HETATM    3  C   UNK N   1       2.251   1.226  -1.621  0.00  0.00     0.017 C 
HETATM    4  C   UNK N   1       3.134  -0.731  -0.318  0.00  0.00     0.013 A 
HETATM    5  C   UNK N   1       2.332  -1.686   0.143  0.00  0.00     0.105 A 
HETATM    6  N   UNK N   1       1.126  -1.108   0.570  0.00  0.00    -0.206 NA
HETATM    7  C   UNK N   1      -0.017  -1.291  -0.051  0.00  0.00     0.213 A 
HETATM    8  O   UNK N   1      -0.255  -2.229  -0.797  0.00  0.00    -0.279 OA
HETATM    9  C   UNK N   1      -0.289   0.155  -0.313  0.00  0.00     0.120 A 
ENDROOT
BRANCH   4  10
HETATM   10  S   UNK N   1       4.814  -0.922  -0.972  0.00  0.00    -0.125 SA
BRANCH  10  11
HETATM   11  C   UNK N   1       5.445   0.328   0.194  0.00  0.00     0.072 C 
HETATM   12  C   UNK N   1       6.945   0.392   0.386  0.00  0.00     0.130 C 
HETATM   13  N   UNK N   1       7.233   1.760   0.844  0.00  0.00    -0.408 N 
HETATM   14  C   UNK N   1       5.936   2.438   0.811  0.00  0.00     0.170 C 
HETATM   15  H   UNK N   1       8.134   2.149   1.121  0.00  0.00     0.154 HD
HETATM   16  C   UNK N   1       5.133   1.724  -0.225  0.00  0.00     0.051 C 
BRANCH  14  17
HETATM   17  C   UNK N   1       5.894   3.948   0.633  0.00  0.00     0.241 C 
HETATM   18  O   UNK N   1       4.785   4.464   0.572  0.00  0.00    -0.271 OA
HETATM   19  N   UNK N   1       7.002   4.749   0.565  0.00  0.00    -0.359 N 
HETATM   20  C   UNK N   1       6.846   6.176   0.420  0.00  0.00     0.152 C 
HETATM   21  C   UNK N   1       8.342   4.235   0.667  0.00  0.00     0.152 C 
ENDBRANCH  14  17
ENDBRANCH  10  11
ENDBRANCH   4  10
BRANCH   5  22
HETATM   22  C   UNK N   1       2.602  -3.143   0.197  0.00  0.00     0.189 C 
HETATM   23  O   UNK N   1       3.656  -3.600  -0.216  0.00  0.00    -0.645 OA
BRANCH  22  24
HETATM   24  O   UNK N   1       1.675  -3.977   0.706  0.00  0.00    -0.772 OA
HETATM   25  H   UNK N   1       0.850  -3.708   1.060  0.00  0.00     0.167 HD
ENDBRANCH  22  24
ENDBRANCH   5  22
BRANCH   9  26
HETATM   26  C   UNK N   1      -1.469   0.734   0.456  0.00  0.00     0.128 C 
HETATM   27  C   UNK N   1      -2.774   0.311  -0.188  0.00  0.00     0.040 C 
BRANCH  26  28
HETATM   28  O   UNK N   1      -1.386   2.127   0.443  0.00  0.00    -0.395 OA
HETATM   29  H   UNK N   1      -0.519   2.562   0.434  0.00  0.00     0.210 HD
ENDBRANCH  26  28
ENDBRANCH   9  26
TORSDOF 7
