REMARK  8 active torsions:
REMARK  status: ('A' for Active; 'I' for Inactive)
REMARK    1  A    between atoms: C_14  and  C_12 
REMARK    2  A    between atoms: C_17  and  C_12 
REMARK    3  A    between atoms: C_15  and  C_13 
REMARK    4  A    between atoms: C_16  and  C_18 
REMARK    5  A    between atoms: C_19  and  C_17 
REMARK    6  A    between atoms: C_17  and  N_20 
REMARK    7  A    between atoms: C_18  and  O_22 
REMARK    8  A    between atoms: O_24  and  C_19 
ROOT
HETATM    1  C   UNK N   1       5.369   1.049   0.638  0.00  0.00     0.116 C 
HETATM    2  N   UNK N   1       4.596   0.004   0.611  0.00  0.00    -0.359 N 
ATOM      3  HN  UNK N   1       4.668  -0.641   1.398  1.00  0.00     0.162 HD
ENDROOT
BRANCH   2   4
HETATM    4  C   UNK N   1       3.640  -0.337  -0.428  0.00  0.00     0.185 C 
BRANCH   4   5
HETATM    5  C   UNK N   1       4.182  -1.513  -1.259  0.00  0.00     0.074 C 
BRANCH   5   6
HETATM    6  C   UNK N   1       4.930  -2.562  -0.486  0.00  0.00    -0.056 A 
HETATM    7  C   UNK N   1       6.323  -2.636  -0.612  0.00  0.00     0.007 A 
HETATM    8  C   UNK N   1       7.044  -3.609   0.089  0.00  0.00     0.001 A 
HETATM    9  C   UNK N   1       6.372  -4.517   0.912  0.00  0.00     0.000 A 
HETATM   10  C   UNK N   1       4.981  -4.452   1.034  0.00  0.00     0.001 A 
HETATM   11  C   UNK N   1       4.261  -3.476   0.337  0.00  0.00     0.007 A 
ENDBRANCH   5   6
ENDBRANCH   4   5
BRANCH   4  12
HETATM   12  C   UNK N   1       2.287  -0.627   0.169  0.00  0.00     0.163 C 
HETATM   13  O   UNK N   1       1.327   0.058  -0.141  0.00  0.00    -0.648 OA
BRANCH  12  14
HETATM   14  O   UNK N   1       2.126  -1.636   1.047  0.00  0.00    -0.775 OA
HETATM   15  H   UNK N   1       1.462  -1.890   1.657  0.00  0.00     0.167 HD
ENDBRANCH  12  14
ENDBRANCH   4  12
ENDBRANCH   2   4
BRANCH   1  16
HETATM   16  C   UNK N   1       5.343   2.112  -0.454  0.00  0.00     0.060 C 
HETATM   17  C   UNK N   1       4.068   2.966  -0.374  0.00  0.00     0.013 C 
HETATM   18  C   UNK N   1       4.081   3.878   0.861  0.00  0.00     0.006 C 
HETATM   19  C   UNK N   1       5.314   4.799   0.868  0.00  0.00    -0.011 C 
HETATM   20  C   UNK N   1       6.575   3.932   0.818  0.00  0.00     0.006 C 
HETATM   21  C   UNK N   1       6.573   3.029  -0.414  0.00  0.00     0.013 C 
BRANCH  19  22
HETATM   22  C   UNK N   1       5.275   5.803  -0.302  0.00  0.00    -0.019 C 
HETATM   23  C   UNK N   1       6.523   6.671  -0.342  0.00  0.00     0.010 C 
HETATM   24  C   UNK N   1       4.060   6.712  -0.207  0.00  0.00     0.010 C 
ENDBRANCH  19  22
ENDBRANCH   1  16
BRANCH   1  25
HETATM   25  O   UNK N   1       6.258   1.155   1.642  0.00  0.00    -0.349 OA
HETATM   26  H   UNK N   1       6.631   0.655   2.341  0.00  0.00     0.219 HD
ENDBRANCH   1  25
TORSDOF 8
