REMARK  19 active torsions:
REMARK  status: ('A' for Active; 'I' for Inactive)
REMARK    1  A    between atoms: C_18  and  O_3 
REMARK    2  A    between atoms: O_5  and  C_31 
REMARK    3  A    between atoms: O_5  and  C_43 
REMARK    4  A    between atoms: C_16  and  N_8 
REMARK       I    between atoms: N_8  and  C_24 
REMARK    5  A    between atoms: C_19  and  N_9 
REMARK       I    between atoms: N_9  and  C_31 
REMARK    6  A    between atoms: C_22  and  N_10 
REMARK       I    between atoms: N_10  and  C_34 
REMARK       I    between atoms: N_11  and  C_34 
REMARK    7  A    between atoms: N_11  and  C_41 
REMARK    8  A    between atoms: C_16  and  C_17 
REMARK    9  A    between atoms: C_16  and  C_20 
REMARK   10  A    between atoms: C_17  and  C_18 
REMARK   11  A    between atoms: C_18  and  C_19 
REMARK   12  A    between atoms: C_19  and  C_21 
REMARK   13  A    between atoms: C_20  and  C_25 
REMARK   14  A    between atoms: C_21  and  C_26 
REMARK   15  A    between atoms: C_22  and  C_23 
REMARK   16  A    between atoms: C_22  and  C_24 
REMARK   17  A    between atoms: C_41  and  C_44 
REMARK   18  A    between atoms: C_43  and  C_45 
REMARK   19  A    between atoms: C_46  and  C_48 
ROOT
HETATM    1  C   UNK N   1       3.193   1.655   1.250  0.00  0.00     0.091 C 
ENDROOT
BRANCH   1   2
HETATM    2  N   UNK N   1       3.850   1.707  -0.032  0.00  0.00    -0.354 N 
HETATM    3  C   UNK N   1       4.969   2.331  -0.470  0.00  0.00     0.241 C 
HETATM    4  O   UNK N   1       5.160   2.312  -1.672  0.00  0.00    -0.271 OA
HETATM    5  H   UNK N   1       3.394   1.183  -0.729  0.00  0.00     0.162 HD
BRANCH   3   6
HETATM    6  C   UNK N   1       6.029   3.015   0.398  0.00  0.00     0.181 C 
BRANCH   6   7
HETATM    7  N   UNK N   1       7.164   2.136   0.593  0.00  0.00    -0.329 N 
HETATM    8  C   UNK N   1       7.870   1.645  -0.460  0.00  0.00     0.319 C 
HETATM    9  O   UNK N   1       7.621   2.022  -1.600  0.00  0.00    -0.247 OA
HETATM   10  N   UNK N   1       8.822   0.703  -0.277  0.00  0.00    -0.333 N 
HETATM   11  C   UNK N   1       9.418   0.072  -1.438  0.00  0.00     0.154 C 
HETATM   12  H   UNK N   1       7.429   1.888   1.508  0.00  0.00     0.165 HD
BRANCH  10  13
HETATM   13  C   UNK N   1       9.264   0.339   1.058  0.00  0.00     0.184 C 
BRANCH  13  14
HETATM   14  C   UNK N   1      10.751   0.243   1.033  0.00  0.00     0.034 A 
HETATM   15  N   UNK N   1      11.504   1.169   0.340  0.00  0.00    -0.355 N 
HETATM   16  C   UNK N   1      12.783   0.771   0.178  0.00  0.00     0.054 A 
ATOM     17  HN  UNK N   1      11.135   2.053  -0.009  1.00  0.00     0.166 HD
HETATM   18  S   UNK N   1      12.978  -0.708   0.895  0.00  0.00    -0.086 SA
HETATM   19  C   UNK N   1      11.425  -0.922   1.434  0.00  0.00     0.078 A 
BRANCH  16  20
HETATM   20  C   UNK N   1      13.769   1.523  -0.662  0.00  0.00     0.035 C 
HETATM   21  C   UNK N   1      15.046   0.744  -0.917  0.00  0.00     0.016 C 
HETATM   22  C   UNK N   1      14.091   2.865  -0.039  0.00  0.00     0.016 C 
ENDBRANCH  16  20
ENDBRANCH  13  14
ENDBRANCH  10  13
ENDBRANCH   6   7
BRANCH   6  23
HETATM   23  C   UNK N   1       5.670   3.849   1.640  0.00  0.00     0.009 C 
HETATM   24  C   UNK N   1       4.876   5.079   1.251  0.00  0.00     0.012 C 
HETATM   25  C   UNK N   1       6.931   4.377   2.304  0.00  0.00     0.012 C 
ENDBRANCH   6  23
ENDBRANCH   3   6
ENDBRANCH   1   2
BRANCH   1  26
HETATM   26  C   UNK N   1       2.004   0.674   1.151  0.00  0.00     0.059 C 
BRANCH  26  27
HETATM   27  C   UNK N   1       1.677   0.227  -0.292  0.00  0.00     0.143 C 
BRANCH  27  28
HETATM   28  O   UNK N   1       0.339   0.499  -0.577  0.00  0.00    -0.393 OA
HETATM   29  H   UNK N   1       0.038   1.400  -0.776  0.00  0.00     0.210 HD
ENDBRANCH  27  28
BRANCH  27  30
HETATM   30  C   UNK N   1       2.008  -1.247  -0.614  0.00  0.00     0.119 C 
BRANCH  30  31
HETATM   31  N   UNK N   1       3.435  -1.540  -0.734  0.00  0.00    -0.329 N 
HETATM   32  C   UNK N   1       4.322  -1.529   0.299  0.00  0.00     0.361 C 
HETATM   33  O   UNK N   1       3.956  -1.236   1.424  0.00  0.00    -0.238 OA
HETATM   34  H   UNK N   1       3.781  -1.762  -1.629  0.00  0.00     0.165 HD
BRANCH  32  35
HETATM   35  O   UNK N   1       5.612  -1.893   0.120  0.00  0.00    -0.299 OA
BRANCH  35  36
HETATM   36  C   UNK N   1       6.085  -2.603  -0.958  0.00  0.00     0.228 C 
BRANCH  36  37
HETATM   37  C   UNK N   1       7.361  -3.249  -0.529  0.00  0.00     0.023 A 
HETATM   38  S   UNK N   1       8.844  -3.097  -1.228  0.00  0.00    -0.086 SA
HETATM   39  C   UNK N   1       9.709  -3.987  -0.132  0.00  0.00     0.138 A 
HETATM   40  N   UNK N   1       8.847  -4.435   0.822  0.00  0.00    -0.368 N 
HETATM   41  C   UNK N   1       7.544  -4.033   0.615  0.00  0.00     0.104 A 
ATOM     42  HN  UNK N   1       9.136  -5.012   1.612  1.00  0.00     0.165 HD
ENDBRANCH  36  37
ENDBRANCH  35  36
ENDBRANCH  32  35
ENDBRANCH  30  31
BRANCH  30  43
HETATM   43  C   UNK N   1       1.249  -2.223   0.298  0.00  0.00     0.066 C 
BRANCH  43  44
HETATM   44  C   UNK N   1       1.616  -3.659   0.091  0.00  0.00    -0.056 A 
HETATM   45  C   UNK N   1       2.794  -4.167   0.654  0.00  0.00     0.007 A 
HETATM   46  C   UNK N   1       3.126  -5.513   0.499  0.00  0.00     0.001 A 
HETATM   47  C   UNK N   1       2.275  -6.362  -0.213  0.00  0.00     0.000 A 
HETATM   48  C   UNK N   1       1.092  -5.863  -0.766  0.00  0.00     0.001 A 
HETATM   49  C   UNK N   1       0.759  -4.512  -0.611  0.00  0.00     0.007 A 
ENDBRANCH  43  44
ENDBRANCH  30  43
ENDBRANCH  27  30
ENDBRANCH  26  27
ENDBRANCH   1  26
BRANCH   1  50
HETATM   50  C   UNK N   1       2.672   3.042   1.661  0.00  0.00     0.063 C 
BRANCH  50  51
HETATM   51  C   UNK N   1       2.038   3.883   0.574  0.00  0.00    -0.056 A 
HETATM   52  C   UNK N   1       0.805   4.500   0.796  0.00  0.00     0.007 A 
HETATM   53  C   UNK N   1       0.275   5.368  -0.168  0.00  0.00     0.001 A 
HETATM   54  C   UNK N   1       0.976   5.626  -1.351  0.00  0.00     0.000 A 
HETATM   55  C   UNK N   1       2.207   5.016  -1.577  0.00  0.00     0.001 A 
HETATM   56  C   UNK N   1       2.732   4.163  -0.613  0.00  0.00     0.007 A 
ENDBRANCH  50  51
ENDBRANCH   1  50
TORSDOF 19
