REMARK  12 active torsions:
REMARK  status: ('A' for Active; 'I' for Inactive)
REMARK    1  A    between atoms: C_6  and  C_3 
REMARK    2  A    between atoms: C_10  and  C_3 
REMARK    3  A    between atoms: C_12  and  C_6 
REMARK    4  A    between atoms: C_8  and  C_7 
REMARK    5  A    between atoms: C_13  and  C_7 
REMARK    6  A    between atoms: C_14  and  C_8 
REMARK    7  A    between atoms: C_17  and  C_11 
REMARK    8  A    between atoms: C_19  and  C_13 
REMARK    9  A    between atoms: C_13  and  N_24 
REMARK   10  A    between atoms: O_29  and  C_14 
REMARK       I    between atoms: N_24  and  C_17 
REMARK   11  A    between atoms: O_31  and  C_18 
REMARK   12  A    between atoms: O_33  and  C_19 
ROOT
HETATM    1  C   UNK N   1      -2.089   4.559   0.073  0.00  0.00     0.008 A 
HETATM    2  C   UNK N   1      -1.304   2.270   0.124  0.00  0.00     0.008 A 
HETATM    3  C   UNK N   1      -3.403   4.112  -0.072  0.00  0.00     0.017 A 
HETATM    4  C   UNK N   1      -2.617   1.826   0.007  0.00  0.00     0.017 A 
HETATM    5  C   UNK N   1      -1.044   3.637   0.191  0.00  0.00    -0.058 A 
HETATM    6  C   UNK N   1      -3.671   2.740  -0.105  0.00  0.00     0.032 A 
ENDROOT
BRANCH   5   7
HETATM    7  C   UNK N   1       0.305   4.113   0.580  0.00  0.00     0.043 C 
BRANCH   7   8
HETATM    8  C   UNK N   1       1.292   4.050  -0.557  0.00  0.00     0.045 C 
BRANCH   8   9
HETATM    9  C   UNK N   1       2.320   5.099  -0.312  0.00  0.00    -0.024 A 
HETATM   10  C   UNK N   1       3.682   4.883  -0.127  0.00  0.00     0.098 A 
HETATM   11  N   UNK N   1       4.306   6.073   0.070  0.00  0.00    -0.350 N 
HETATM   12  C   UNK N   1       3.340   7.009   0.009  0.00  0.00     0.136 A 
HETATM   13  H   UNK N   1       5.266   6.221   0.225  0.00  0.00     0.166 HD
HETATM   14  C   UNK N   1       2.122   6.458  -0.218  0.00  0.00     0.067 A 
HETATM   15  N   UNK N   1       3.515   8.344   0.145  0.00  0.00    -0.176 N 
HETATM   16  C   UNK N   1       1.002   7.282  -0.308  0.00  0.00     0.170 A 
HETATM   17  N   UNK N   1       1.177   8.626  -0.168  0.00  0.00    -0.170 N 
HETATM   18  C   UNK N   1       2.420   9.160   0.054  0.00  0.00     0.679 A 
ATOM     19  HN  UNK N   1       0.369   9.246  -0.229  1.00  0.00     0.186 HD
HETATM   20  N   UNK N   1       2.557  10.424   0.169  0.00  0.00    -0.234 N 
HETATM   21  H   UNK N   1       3.454  10.820   0.258  0.00  0.00     0.174 HD
ATOM     22  HN  UNK N   1       1.733  11.026   0.169  1.00  0.00     0.174 HD
HETATM   23  H   UNK N   1       4.410   8.720   0.307  0.00  0.00     0.186 HD
BRANCH  16  24
HETATM   24  O   UNK N   1      -0.224   6.782  -0.530  0.00  0.00    -0.345 OA
HETATM   25  H   UNK N   1      -0.954   7.348  -0.685  0.00  0.00     0.219 HD
ENDBRANCH  16  24
ENDBRANCH   8   9
ENDBRANCH   7   8
ENDBRANCH   5   7
BRANCH   6  26
HETATM   26  C   UNK N   1      -4.998   2.290   0.295  0.00  0.00     0.252 C 
HETATM   27  N   UNK N   1      -6.045   2.238  -0.568  0.00  0.00    -0.343 N 
HETATM   28  H   UNK N   1      -5.904   2.454  -1.518  0.00  0.00     0.163 HD
HETATM   29  O   UNK N   1      -5.143   1.952   1.460  0.00  0.00    -0.268 OA
BRANCH  27  30
HETATM   30  C   UNK N   1      -7.371   1.867  -0.102  0.00  0.00     0.183 C 
BRANCH  30  31
HETATM   31  C   UNK N   1      -8.384   2.862  -0.656  0.00  0.00     0.046 C 
BRANCH  31  32
HETATM   32  C   UNK N   1      -9.619   2.920   0.230  0.00  0.00     0.112 C 
BRANCH  32  33
HETATM   33  C   UNK N   1     -10.321   4.221   0.043  0.00  0.00     0.139 C 
HETATM   34  O   UNK N   1     -11.503   4.235  -0.256  0.00  0.00    -0.650 OA
BRANCH  33  35
HETATM   35  O   UNK N   1      -9.660   5.381   0.225  0.00  0.00    -0.776 OA
HETATM   36  H   UNK N   1      -8.732   5.386   0.352  0.00  0.00     0.167 HD
ENDBRANCH  33  35
ENDBRANCH  32  33
ENDBRANCH  31  32
ENDBRANCH  30  31
BRANCH  30  37
HETATM   37  C   UNK N   1      -7.670   0.430  -0.449  0.00  0.00     0.163 C 
HETATM   38  O   UNK N   1      -6.941  -0.455  -0.027  0.00  0.00    -0.648 OA
BRANCH  37  39
HETATM   39  O   UNK N   1      -8.750   0.104  -1.185  0.00  0.00    -0.775 OA
HETATM   40  H   UNK N   1      -9.322   0.642  -1.697  0.00  0.00     0.167 HD
ENDBRANCH  37  39
ENDBRANCH  30  37
ENDBRANCH  27  30
ENDBRANCH   6  26
TORSDOF 12
