REMARK  6 active torsions:
REMARK  status: ('A' for Active; 'I' for Inactive)
REMARK    1  A    between atoms: C_19  and  C_15 
REMARK    2  A    between atoms: C_19  and  C_16 
REMARK    3  A    between atoms: C_17  and  O_23 
REMARK    4  A    between atoms: C_19  and  C_18 
REMARK    5  A    between atoms: O_23  and  C_18 
REMARK    6  A    between atoms: C_19  and  O_22 
ROOT
HETATM    1  C   UNK N   1      -0.775  -0.416  -0.313  0.00  0.00     0.176 C 
ENDROOT
BRANCH   1   2
HETATM    2  C   UNK N   1      -2.149   0.212  -0.117  0.00  0.00    -0.014 A 
HETATM    3  C   UNK N   1      -3.335  -0.537  -0.232  0.00  0.00     0.011 A 
HETATM    4  C   UNK N   1      -4.582   0.077  -0.095  0.00  0.00     0.001 A 
HETATM    5  C   UNK N   1      -4.661   1.448   0.156  0.00  0.00     0.000 A 
HETATM    6  C   UNK N   1      -3.493   2.206   0.269  0.00  0.00     0.001 A 
HETATM    7  C   UNK N   1      -2.245   1.593   0.128  0.00  0.00     0.011 A 
ENDBRANCH   1   2
BRANCH   1   8
HETATM    8  C   UNK N   1      -0.861  -1.946  -0.583  0.00  0.00     0.035 C 
HETATM    9  C   UNK N   1      -1.477  -2.779   0.527  0.00  0.00     0.008 C 
HETATM   10  C   UNK N   1      -1.055  -4.198   0.211  0.00  0.00     0.001 C 
HETATM   11  C   UNK N   1       0.210  -4.091  -0.630  0.00  0.00     0.001 C 
HETATM   12  C   UNK N   1       0.475  -2.610  -0.840  0.00  0.00     0.008 C 
ENDBRANCH   1   8
BRANCH   1  13
HETATM   13  C   UNK N   1       0.106  -0.138   0.925  0.00  0.00     0.299 C 
HETATM   14  O   UNK N   1      -0.217  -0.660   1.982  0.00  0.00    -0.261 OA
BRANCH  13  15
HETATM   15  O   UNK N   1       1.199   0.688   0.941  0.00  0.00    -0.312 OA
BRANCH  15  16
HETATM   16  C   UNK N   1       1.635   1.569  -0.035  0.00  0.00     0.159 C 
HETATM   17  C   UNK N   1       2.354   0.864  -1.167  0.00  0.00     0.062 C 
HETATM   18  C   UNK N   1       3.796   0.831  -0.722  0.00  0.00     0.239 C 
HETATM   19  N   UNK N   1       4.006   2.026   0.080  0.00  0.00    -0.072 N 
HETATM   20  C   UNK N   1       4.885   1.723   1.194  0.00  0.00     0.272 C 
HETATM   21  C   UNK N   1       4.600   3.075  -0.734  0.00  0.00     0.272 C 
HETATM   22  C   UNK N   1       2.703   2.473   0.562  0.00  0.00     0.268 C 
ENDBRANCH  15  16
ENDBRANCH  13  15
ENDBRANCH   1  13
BRANCH   1  23
HETATM   23  O   UNK N   1      -0.248   0.164  -1.465  0.00  0.00    -0.374 OA
HETATM   24  H   UNK N   1       0.286   0.048  -2.266  0.00  0.00     0.211 HD
ENDBRANCH   1  23
TORSDOF 6
