REMARK  28 active torsions:
REMARK  status: ('A' for Active; 'I' for Inactive)
REMARK    1  A    between atoms: C_21  and  C_6 
REMARK    2  A    between atoms: C_34  and  C_7 
REMARK    3  A    between atoms: C_58  and  C_9 
REMARK    4  A    between atoms: S_15  and  O_35 
REMARK    5  A    between atoms: O_61  and  S_15 
REMARK    6  A    between atoms: C_37  and  C_21 
REMARK    7  A    between atoms: C_21  and  O_70 
REMARK    8  A    between atoms: C_49  and  C_24 
REMARK    9  A    between atoms: C_25  and  C_52 
REMARK   10  A    between atoms: C_27  and  O_72 
REMARK   11  A    between atoms: N_33  and  C_28 
REMARK   12  A    between atoms: O_35  and  C_29 
REMARK       I    between atoms: C_30  and  N_33 
REMARK   13  A    between atoms: C_50  and  C_30 
REMARK   14  A    between atoms: C_31  and  O_73 
REMARK   15  A    between atoms: C_36  and  C_34 
REMARK   16  A    between atoms: C_34  and  O_75 
REMARK   17  A    between atoms: C_44  and  C_36 
REMARK   18  A    between atoms: C_38  and  C_37 
REMARK   19  A    between atoms: C_37  and  O_74 
REMARK   20  A    between atoms: C_43  and  O_77 
REMARK       I    between atoms: N_71  and  C_44 
REMARK   21  A    between atoms: O_80  and  C_53 
REMARK   22  A    between atoms: C_58  and  O_82 
REMARK   23  A    between atoms: C_59  and  O_81 
REMARK   24  A    between atoms: O_84  and  C_76 
REMARK   25  A    between atoms: C_86  and  O_84 
REMARK   26  A    between atoms: C_87  and  C_86 
REMARK   27  A    between atoms: C_89  and  C_87 
REMARK   28  A    between atoms: C_88  and  C_89 
ROOT
HETATM    1  N   UNK N   1      -0.496   0.265  -0.182  0.00  0.00    -0.334 N 
HETATM    2  N   UNK N   1       5.319  -5.605  -0.038  0.00  0.00    -0.334 N 
HETATM    3  C   UNK N   1      -0.013   1.292   0.709  0.00  0.00     0.208 C 
HETATM    4  C   UNK N   1       0.094  -0.968  -0.262  0.00  0.00     0.246 C 
HETATM    5  C   UNK N   1       5.209  -4.403   0.620  0.00  0.00     0.246 C 
HETATM    6  C   UNK N   1       0.838  -5.286   0.813  0.00  0.00     0.208 C 
HETATM    7  C   UNK N   1      -0.519  -2.194  -0.964  0.00  0.00     0.206 C 
HETATM    8  C   UNK N   1       1.343   1.791   0.317  0.00  0.00     0.245 C 
HETATM    9  C   UNK N   1       6.374  -3.560   1.096  0.00  0.00     0.205 C 
HETATM   10  N   UNK N   1       0.296  -3.383  -0.701  0.00  0.00    -0.344 N 
HETATM   11  N   UNK N   1       2.208  -5.721   0.607  0.00  0.00    -0.344 N 
HETATM   12  N   UNK N   1       6.427  -2.486   0.155  0.00  0.00    -0.344 N 
HETATM   13  C   UNK N   1       0.483  -3.861   0.569  0.00  0.00     0.243 C 
HETATM   14  N   UNK N   1       2.424   1.329   0.994  0.00  0.00    -0.331 N 
HETATM   15  C   UNK N   1       2.844  -5.743  -0.592  0.00  0.00     0.241 C 
HETATM   16  C   UNK N   1       4.238  -6.287  -0.699  0.00  0.00     0.181 C 
HETATM   17  C   UNK N   1       5.551  -1.464  -0.027  0.00  0.00     0.241 C 
HETATM   18  C   UNK N   1      -1.755   0.605  -0.788  0.00  0.00     0.134 C 
HETATM   19  C   UNK N   1      -1.058   2.388   0.633  0.00  0.00     0.155 C 
HETATM   20  C   UNK N   1       5.742  -0.613  -1.263  0.00  0.00     0.179 C 
HETATM   21  C   UNK N   1       3.798   1.563   0.596  0.00  0.00     0.249 C 
HETATM   22  C   UNK N   1      -2.300   1.655   0.159  0.00  0.00     0.031 C 
HETATM   23  C   UNK N   1       5.474   0.909  -1.217  0.00  0.00     0.071 C 
HETATM   24  C   UNK N   1       6.513  -6.386  -0.105  0.00  0.00     0.158 C 
HETATM   25  C   UNK N   1       4.475  -7.734  -0.365  0.00  0.00     0.068 C 
HETATM   26  C   UNK N   1       4.026   1.260  -0.896  0.00  0.00     0.169 C 
HETATM   27  O   UNK N   1       4.112  -3.888   0.751  0.00  0.00    -0.271 OA
HETATM   28  O   UNK N   1       1.179  -1.121   0.303  0.00  0.00    -0.271 OA
HETATM   29  O   UNK N   1       1.475   2.489  -0.680  0.00  0.00    -0.271 OA
HETATM   30  O   UNK N   1       0.139  -3.199   1.537  0.00  0.00    -0.271 OA
HETATM   31  O   UNK N   1       2.302  -5.307  -1.597  0.00  0.00    -0.271 OA
HETATM   32  O   UNK N   1       4.627  -1.277   0.747  0.00  0.00    -0.271 OA
HETATM   33  C   UNK N   1       6.010  -7.808  -0.373  0.00  0.00     0.138 C 
HETATM   34  C   UNK N   1      -3.283   2.581  -0.525  0.00  0.00     0.014 C 
HETATM   35  H   UNK N   1       0.719  -3.851  -1.457  0.00  0.00     0.163 HD
HETATM   36  H   UNK N   1       2.714  -6.022   1.396  0.00  0.00     0.163 HD
HETATM   37  H   UNK N   1       7.208  -2.487  -0.445  0.00  0.00     0.163 HD
HETATM   38  H   UNK N   1       2.265   0.800   1.810  0.00  0.00     0.165 HD
ENDROOT
BRANCH  20  39
HETATM   39  N   UNK N   1       7.007  -0.971  -1.885  0.00  0.00    -0.344 N 
HETATM   40  C   UNK N   1       8.212  -1.035  -1.235  0.00  0.00     0.252 C 
HETATM   41  O   UNK N   1       9.161  -1.529  -1.828  0.00  0.00    -0.268 OA
HETATM   42  H   UNK N   1       6.997  -1.183  -2.846  0.00  0.00     0.163 HD
BRANCH  40  43
HETATM   43  C   UNK N   1       8.453  -0.419   0.112  0.00  0.00     0.032 C 
HETATM   44  C   UNK N   1       7.617   0.648   0.462  0.00  0.00     0.018 C 
HETATM   45  C   UNK N   1       8.155   1.891   0.739  0.00  0.00     0.015 C 
HETATM   46  C   UNK N   1       9.529   2.000   0.813  0.00  0.00    -0.007 C 
HETATM   47  C   UNK N   1      10.319   0.827   0.855  0.00  0.00     0.015 C 
HETATM   48  C   UNK N   1       9.781  -0.386   0.503  0.00  0.00     0.018 C 
BRANCH  46  49
HETATM   49  C   UNK N   1      10.183   3.149   0.185  0.00  0.00     0.068 A 
HETATM   50  N   UNK N   1      10.691   4.156   0.910  0.00  0.00    -0.260 N 
HETATM   51  O   UNK N   1      11.879   4.405   0.437  0.00  0.00    -0.237 OA
ATOM     52  HN  UNK N   1      10.235   4.636   1.686  1.00  0.00     0.195 HD
HETATM   53  C   UNK N   1      12.169   3.587  -0.551  0.00  0.00     0.111 A 
HETATM   54  C   UNK N   1      11.087   2.810  -0.792  0.00  0.00     0.072 A 
BRANCH  53  55
HETATM   55  C   UNK N   1      13.492   2.943  -0.644  0.00  0.00    -0.000 A 
HETATM   56  C   UNK N   1      14.585   3.484   0.037  0.00  0.00     0.017 A 
HETATM   57  C   UNK N   1      15.691   2.678   0.338  0.00  0.00     0.037 A 
HETATM   58  C   UNK N   1      15.682   1.310   0.023  0.00  0.00     0.068 A 
HETATM   59  C   UNK N   1      14.604   0.779  -0.693  0.00  0.00     0.037 A 
HETATM   60  C   UNK N   1      13.528   1.586  -1.028  0.00  0.00     0.017 A 
BRANCH  58  61
HETATM   61  O   UNK N   1      16.688   0.517   0.468  0.00  0.00    -0.351 OA
BRANCH  61  62
HETATM   62  C   UNK N   1      16.533  -0.834   0.734  0.00  0.00     0.175 C 
BRANCH  62  63
HETATM   63  C   UNK N   1      16.342  -1.671  -0.523  0.00  0.00     0.027 C 
BRANCH  63  64
HETATM   64  C   UNK N   1      15.769  -3.030  -0.151  0.00  0.00     0.002 C 
BRANCH  64  65
HETATM   65  C   UNK N   1      14.251  -2.992  -0.181  0.00  0.00    -0.004 C 
HETATM   66  C   UNK N   1      13.695  -4.331   0.260  0.00  0.00     0.005 C 
ENDBRANCH  64  65
ENDBRANCH  63  64
ENDBRANCH  62  63
ENDBRANCH  61  62
ENDBRANCH  58  61
ENDBRANCH  53  55
ENDBRANCH  46  49
ENDBRANCH  40  43
ENDBRANCH  20  39
BRANCH  26  67
HETATM   67  O   UNK N   1       3.176   0.255  -1.370  0.00  0.00    -0.391 OA
HETATM   68  H   UNK N   1       2.278   0.417  -1.698  0.00  0.00     0.210 HD
ENDBRANCH  26  67
BRANCH   9  69
HETATM   69  C   UNK N   1       7.816  -4.097   1.188  0.00  0.00     0.146 C 
HETATM   70  C   UNK N   1       8.011  -5.214   2.191  0.00  0.00     0.042 C 
BRANCH  69  71
HETATM   71  O   UNK N   1       8.383  -4.399  -0.056  0.00  0.00    -0.393 OA
HETATM   72  H   UNK N   1       8.398  -4.844  -0.918  0.00  0.00     0.210 HD
ENDBRANCH  69  71
ENDBRANCH   9  69
BRANCH  21  73
HETATM   73  O   UNK N   1       4.176   2.873   0.897  0.00  0.00    -0.374 OA
HETATM   74  H   UNK N   1       5.096   3.100   1.106  0.00  0.00     0.212 HD
ENDBRANCH  21  73
BRANCH  33  75
HETATM   75  O   UNK N   1       6.444  -8.655   0.645  0.00  0.00    -0.394 OA
HETATM   76  H   UNK N   1       6.085  -9.211   1.354  0.00  0.00     0.210 HD
ENDBRANCH  33  75
BRANCH  19  77
HETATM   77  O   UNK N   1      -1.264   2.967   1.885  0.00  0.00    -0.393 OA
HETATM   78  H   UNK N   1      -0.988   3.293   2.756  0.00  0.00     0.210 HD
ENDBRANCH  19  77
BRANCH   6  79
HETATM   79  C   UNK N   1      -0.211  -6.227   0.251  0.00  0.00     0.183 C 
BRANCH  79  80
HETATM   80  C   UNK N   1      -0.560  -7.221   1.345  0.00  0.00     0.182 C 
BRANCH  80  81
HETATM   81  C   UNK N   1      -1.074  -8.483   0.765  0.00  0.00    -0.024 A 
HETATM   82  C   UNK N   1      -2.362  -8.569   0.232  0.00  0.00     0.051 A 
HETATM   83  C   UNK N   1      -2.754  -9.710  -0.486  0.00  0.00     0.124 A 
HETATM   84  C   UNK N   1      -1.824 -10.742  -0.684  0.00  0.00     0.100 A 
HETATM   85  C   UNK N   1      -0.543 -10.655  -0.137  0.00  0.00     0.040 A 
HETATM   86  C   UNK N   1      -0.169  -9.526   0.584  0.00  0.00     0.013 A 
BRANCH  83  87
HETATM   87  O   UNK N   1      -4.026  -9.864  -0.981  0.00  0.00    -0.218 OA
BRANCH  87  88
HETATM   88  S   UNK N   1      -5.550  -9.216  -0.445  0.00  0.00     0.245 S 
HETATM   89  O   UNK N   1      -5.395  -8.595   0.952  0.00  0.00    -0.579 OA
HETATM   90  O   UNK N   1      -4.750  -7.932  -0.703  0.00  0.00    -0.579 OA
BRANCH  88  91
HETATM   91  O   UNK N   1      -4.976 -10.371   0.697  0.00  0.00    -0.273 OA
HETATM   92  H   UNK N   1      -5.377 -10.976   1.340  0.00  0.00     0.234 HD
ENDBRANCH  88  91
ENDBRANCH  87  88
ENDBRANCH  83  87
BRANCH  84  93
HETATM   93  O   UNK N   1      -2.170 -11.837  -1.378  0.00  0.00    -0.358 OA
HETATM   94  H   UNK N   1      -2.953 -12.011  -1.863  0.00  0.00     0.217 HD
ENDBRANCH  84  93
ENDBRANCH  80  81
BRANCH  80  95
HETATM   95  O   UNK N   1      -1.477  -6.651   2.234  0.00  0.00    -0.388 OA
HETATM   96  H   UNK N   1      -1.453  -5.903   2.851  0.00  0.00     0.210 HD
ENDBRANCH  80  95
ENDBRANCH  79  80
BRANCH  79  97
HETATM   97  O   UNK N   1       0.250  -6.856  -0.913  0.00  0.00    -0.390 OA
HETATM   98  H   UNK N   1       0.032  -7.350  -1.719  0.00  0.00     0.210 HD
ENDBRANCH  79  97
ENDBRANCH   6  79
BRANCH   7  99
HETATM   99  C   UNK N   1      -1.958  -2.556  -0.479  0.00  0.00     0.158 C 
BRANCH  99 100
HETATM  100  C   UNK N   1      -3.098  -1.797  -1.129  0.00  0.00     0.137 C 
BRANCH 100 101
HETATM  101  C   UNK N   1      -4.230  -1.656  -0.158  0.00  0.00     0.217 C 
HETATM  102  O   UNK N   1      -4.670  -2.633   0.428  0.00  0.00    -0.274 OA
HETATM  103  N   UNK N   1      -4.764  -0.443   0.076  0.00  0.00    -0.370 N 
HETATM  104  H   UNK N   1      -4.191   0.339   0.246  0.00  0.00     0.159 HD
HETATM  105  H   UNK N   1      -5.743  -0.336   0.076  0.00  0.00     0.159 HD
ENDBRANCH 100 101
ENDBRANCH  99 100
BRANCH  99 106
HETATM  106  O   UNK N   1      -2.227  -3.914  -0.689  0.00  0.00    -0.393 OA
HETATM  107  H   UNK N   1      -3.135  -4.224  -0.833  0.00  0.00     0.210 HD
ENDBRANCH  99 106
ENDBRANCH   7  99
TORSDOF 28
