REMARK  5 active torsions:
REMARK  status: ('A' for Active; 'I' for Inactive)
REMARK    1  A    between atoms: C_12  and  C_11 
REMARK    2  A    between atoms: O_21  and  C_13 
REMARK    3  A    between atoms: O_20  and  C_14 
REMARK    4  A    between atoms: O_21  and  C_15 
REMARK    5  A    between atoms: O_19  and  C_16 
ROOT
HETATM    1  C   UNK N   1      -2.246   0.443   0.473  0.00  0.00     0.010 A 
HETATM    2  C   UNK N   1      -2.341  -0.938   0.326  0.00  0.00     0.040 A 
HETATM    3  C   UNK N   1       0.133   0.324   0.060  0.00  0.00     0.047 A 
HETATM    4  C   UNK N   1      -1.013   1.085   0.340  0.00  0.00    -0.049 A 
HETATM    5  C   UNK N   1      -1.199  -1.714   0.062  0.00  0.00     0.101 A 
HETATM    6  C   UNK N   1       0.059  -1.070  -0.068  0.00  0.00     0.103 A 
ENDROOT
BRANCH   4   7
HETATM    7  C   UNK N   1      -0.944   2.571   0.569  0.00  0.00     0.044 C 
HETATM    8  C   UNK N   1       0.447   3.214   0.506  0.00  0.00     0.094 C 
HETATM    9  C   UNK N   1       0.119   4.498  -0.155  0.00  0.00     0.111 C 
HETATM   10  N   UNK N   1      -1.066   4.578  -0.610  0.00  0.00    -0.374 N 
HETATM   11  C   UNK N   1      -1.832   3.390  -0.376  0.00  0.00     0.131 C 
ATOM     12  HN  UNK N   1      -1.432   5.400  -1.090  1.00  0.00     0.161 HD
BRANCH   9  13
HETATM   13  O   UNK N   1       1.000   5.507  -0.287  0.00  0.00    -0.350 OA
HETATM   14  H   UNK N   1       1.915   5.327  -0.378  0.00  0.00     0.219 HD
ENDBRANCH   9  13
ENDBRANCH   4   7
BRANCH   6  15
HETATM   15  O   UNK N   1       1.209  -1.754  -0.317  0.00  0.00    -0.343 OA
BRANCH  15  16
HETATM   16  C   UNK N   1       1.457  -3.035   0.127  0.00  0.00     0.129 C 
HETATM   17  C   UNK N   1       1.286  -4.064  -0.961  0.00  0.00     0.032 C 
HETATM   18  C   UNK N   1       2.068  -5.250  -0.439  0.00  0.00     0.002 C 
HETATM   19  C   UNK N   1       3.208  -4.660   0.378  0.00  0.00     0.002 C 
HETATM   20  C   UNK N   1       2.908  -3.178   0.525  0.00  0.00     0.032 C 
ENDBRANCH  15  16
ENDBRANCH   6  15
BRANCH   5  21
HETATM   21  O   UNK N   1      -1.301  -3.057  -0.085  0.00  0.00    -0.353 OA
HETATM   22  C   UNK N   1      -2.493  -3.743  -0.012  0.00  0.00     0.210 C 
ENDBRANCH   5  21
TORSDOF 5
