REMARK  4 active torsions:
REMARK  status: ('A' for Active; 'I' for Inactive)
REMARK    1  A    between atoms: C_18  and  C_21 
REMARK       I    between atoms: C_21  and  N_23 
REMARK    2  A    between atoms: N_23  and  C_24 
REMARK    3  A    between atoms: C_26  and  C_34 
REMARK    4  A    between atoms: C_29  and  C_30 
ROOT
HETATM    1  C   UNK N   1       3.272  -6.236  -0.665  0.00  0.00     0.071 C 
HETATM    2  C   UNK N   1       3.113  -7.572  -0.037  0.00  0.00     0.241 C 
HETATM    3  N   UNK N   1       4.201  -8.200   0.484  0.00  0.00    -0.352 N 
HETATM    4  C   UNK N   1       4.425  -5.563  -0.505  0.00  0.00    -0.009 C 
HETATM    5  C   UNK N   1       5.525  -6.122   0.383  0.00  0.00    -0.002 C 
HETATM    6  C   UNK N   1       5.518  -7.667   0.219  0.00  0.00     0.097 C 
HETATM    7  C   UNK N   1       6.590  -8.331   1.076  0.00  0.00     0.026 C 
HETATM    8  C   UNK N   1       7.957  -7.846   0.594  0.00  0.00     0.007 C 
HETATM    9  C   UNK N   1       6.905  -5.609  -0.068  0.00  0.00     0.004 C 
HETATM   10  C   UNK N   1       8.077  -6.318   0.682  0.00  0.00    -0.004 C 
HETATM   11  C   UNK N   1       8.361  -3.542   0.526  0.00  0.00     0.011 C 
HETATM   12  O   UNK N   1       2.015  -8.088   0.035  0.00  0.00    -0.269 OA
HETATM   13  C   UNK N   1       7.037  -4.073  -0.048  0.00  0.00     0.007 C 
HETATM   14  C   UNK N   1       9.657  -4.361   0.260  0.00  0.00    -0.028 C 
HETATM   15  C   UNK N   1       9.391  -5.861   0.027  0.00  0.00    -0.001 C 
HETATM   16  C   UNK N   1       9.347  -6.026  -1.515  0.00  0.00     0.007 C 
HETATM   17  C   UNK N   1       9.445  -4.605  -2.082  0.00  0.00     0.015 C 
HETATM   18  C   UNK N   1      10.348  -3.965  -1.061  0.00  0.00     0.086 C 
HETATM   19  C   UNK N   1      10.508  -4.143   1.503  0.00  0.00     0.016 C 
HETATM   20  C   UNK N   1       5.236  -5.722   1.831  0.00  0.00     0.022 C 
HETATM   21  H   UNK N   1       4.093  -9.008   1.036  0.00  0.00     0.163 HD
ENDROOT
BRANCH  18  22
HETATM   22  C   UNK N   1      10.654  -2.484  -1.198  0.00  0.00     0.227 C 
HETATM   23  O   UNK N   1       9.875  -1.779  -1.821  0.00  0.00    -0.273 OA
HETATM   24  N   UNK N   1      11.771  -1.905  -0.645  0.00  0.00    -0.326 N 
HETATM   25  H   UNK N   1      11.816  -0.923  -0.702  0.00  0.00     0.169 HD
BRANCH  24  26
HETATM   26  C   UNK N   1      12.883  -2.546   0.008  0.00  0.00     0.050 A 
HETATM   27  C   UNK N   1      13.018  -3.934   0.024  0.00  0.00     0.046 A 
HETATM   28  C   UNK N   1      14.077  -4.589   0.623  0.00  0.00     0.050 A 
HETATM   29  C   UNK N   1      15.083  -3.831   1.224  0.00  0.00     0.017 A 
HETATM   30  C   UNK N   1      14.991  -2.431   1.222  0.00  0.00     0.019 A 
HETATM   31  C   UNK N   1      13.894  -1.778   0.623  0.00  0.00     0.074 A 
BRANCH  28  32
HETATM   32  C   UNK N   1      14.081  -6.092   0.615  0.00  0.00     0.417 C 
HETATM   33  F   UNK N   1      12.963  -6.554   1.290  0.00  0.00    -0.166 F 
HETATM   34  F   UNK N   1      15.212  -6.599   1.226  0.00  0.00    -0.166 F 
HETATM   35  F   UNK N   1      14.029  -6.552  -0.690  0.00  0.00    -0.166 F 
ENDBRANCH  28  32
BRANCH  31  36
HETATM   36  C   UNK N   1      13.808  -0.276   0.653  0.00  0.00     0.419 C 
HETATM   37  F   UNK N   1      14.908   0.272   1.292  0.00  0.00    -0.166 F 
HETATM   38  F   UNK N   1      12.667   0.104   1.336  0.00  0.00    -0.166 F 
HETATM   39  F   UNK N   1      13.754   0.218  -0.637  0.00  0.00    -0.166 F 
ENDBRANCH  31  36
ENDBRANCH  24  26
ENDBRANCH  18  22
TORSDOF 4
