REMARK  13 active torsions:
REMARK  status: ('A' for Active; 'I' for Inactive)
REMARK    1  A    between atoms: C_35  and  C_3 
REMARK    2  A    between atoms: C_27  and  C_20 
REMARK    3  A    between atoms: O_53  and  C_20 
REMARK    4  A    between atoms: C_37  and  C_22 
REMARK    5  A    between atoms: N_48  and  C_22 
REMARK    6  A    between atoms: C_35  and  C_26 
REMARK    7  A    between atoms: C_26  and  O_51 
REMARK    8  A    between atoms: N_46  and  C_29 
REMARK    9  A    between atoms: N_47  and  C_30 
REMARK   10  A    between atoms: N_49  and  C_31 
REMARK   11  A    between atoms: O_53  and  C_32 
REMARK   12  A    between atoms: C_37  and  C_33 
REMARK   13  A    between atoms: C_35  and  N_50 
ROOT
HETATM    1  C   UNK N   1       4.833   1.843  -0.326  0.00  0.00     0.032 A 
HETATM    2  C   UNK N   1       5.448   0.566   1.625  0.00  0.00     0.032 A 
HETATM    3  C   UNK N   1       3.992   0.831  -0.764  0.00  0.00     0.039 A 
HETATM    4  C   UNK N   1       4.572  -0.404   1.226  0.00  0.00     0.039 A 
HETATM    5  C   UNK N   1       5.607   1.685   0.862  0.00  0.00     0.030 A 
HETATM    6  C   UNK N   1       3.866  -0.303   0.025  0.00  0.00     0.068 A 
ENDROOT
BRANCH   5   7
HETATM    7  N   UNK N   1       6.157   2.791   1.537  0.00  0.00    -0.378 N 
HETATM    8  C   UNK N   1       5.238   3.827   1.850  0.00  0.00     0.143 C 
HETATM    9  C   UNK N   1       4.868   4.427   0.535  0.00  0.00     0.143 C 
HETATM   10  N   UNK N   1       6.012   4.560  -0.407  0.00  0.00    -0.378 N 
HETATM   11  C   UNK N   1       7.330   3.961  -0.154  0.00  0.00     0.143 C 
HETATM   12  C   UNK N   1       7.453   3.252   1.171  0.00  0.00     0.143 C 
BRANCH  10  13
HETATM   13  C   UNK N   1       5.983   5.699  -1.232  0.00  0.00     0.030 C 
HETATM   14  C   UNK N   1       7.211   6.388  -1.297  0.00  0.00     0.031 C 
HETATM   15  C   UNK N   1       7.291   7.663  -0.766  0.00  0.00     0.032 C 
HETATM   16  C   UNK N   1       6.131   8.212  -0.239  0.00  0.00     0.045 C 
HETATM   17  C   UNK N   1       4.902   7.604  -0.486  0.00  0.00     0.032 C 
HETATM   18  C   UNK N   1       4.814   6.415  -1.090  0.00  0.00     0.031 C 
BRANCH  16  19
HETATM   19  N   UNK N   1       6.099   9.543   0.205  0.00  0.00    -0.258 N 
HETATM   20  C   UNK N   1       7.036  10.397   0.656  0.00  0.00     0.210 A 
HETATM   21  N   UNK N   1       6.506  11.652   0.694  0.00  0.00    -0.289 N 
HETATM   22  N   UNK N   1       5.263  11.554   0.246  0.00  0.00    -0.234 N 
ATOM     23  HN  UNK N   1       6.976  12.502   1.006  1.00  0.00     0.188 HD
HETATM   24  C   UNK N   1       5.017  10.295  -0.037  0.00  0.00     0.349 A 
HETATM   25  O   UNK N   1       4.000   9.909  -0.570  0.00  0.00    -0.244 OA
BRANCH  22  26
HETATM   26  C   UNK N   1       4.289  12.593  -0.075  0.00  0.00     0.141 C 
BRANCH  26  27
HETATM   27  C   UNK N   1       3.028  12.442   0.803  0.00  0.00     0.025 C 
HETATM   28  C   UNK N   1       2.033  11.381   0.333  0.00  0.00     0.007 C 
ENDBRANCH  26  27
BRANCH  26  29
HETATM   29  C   UNK N   1       4.900  13.960   0.107  0.00  0.00     0.139 C 
HETATM   30  C   UNK N   1       6.057  14.160  -0.862  0.00  0.00     0.041 C 
BRANCH  29  31
HETATM   31  O   UNK N   1       3.930  14.927  -0.148  0.00  0.00    -0.394 OA
HETATM   32  H   UNK N   1       4.175  15.849  -0.325  0.00  0.00     0.210 HD
ENDBRANCH  29  31
ENDBRANCH  26  29
ENDBRANCH  22  26
ENDBRANCH  16  19
ENDBRANCH  10  13
ENDBRANCH   5   7
BRANCH   6  33
HETATM   33  O   UNK N   1       3.274  -1.402  -0.473  0.00  0.00    -0.351 OA
BRANCH  33  34
HETATM   34  C   UNK N   1       4.053  -2.425  -1.022  0.00  0.00     0.182 C 
BRANCH  34  35
HETATM   35  C   UNK N   1       5.543  -2.383  -0.573  0.00  0.00     0.037 C 
HETATM   36  C   UNK N   1       6.491  -3.285  -1.280  0.00  0.00     0.054 C 
HETATM   37  C   UNK N   1       7.319  -3.862  -0.131  0.00  0.00     0.109 C 
HETATM   38  O   UNK N   1       6.978  -3.225   1.073  0.00  0.00    -0.373 OA
HETATM   39  C   UNK N   1       5.669  -2.821   0.875  0.00  0.00     0.176 C 
BRANCH  37  40
HETATM   40  C   UNK N   1       8.841  -3.649  -0.370  0.00  0.00     0.193 C 
BRANCH  40  41
HETATM   41  N   UNK N   1       9.396  -2.291  -0.220  0.00  0.00    -0.284 N 
HETATM   42  C   UNK N   1       8.766  -1.123   0.007  0.00  0.00     0.201 A 
HETATM   43  N   UNK N   1       9.671  -0.122   0.091  0.00  0.00    -0.346 N 
HETATM   44  C   UNK N   1      10.864  -0.730  -0.090  0.00  0.00     0.198 A 
ATOM     45  HN  UNK N   1       9.493   0.869   0.254  1.00  0.00     0.167 HD
HETATM   46  N   UNK N   1      10.693  -2.052  -0.279  0.00  0.00    -0.293 N 
ATOM     47  HN  UNK N   1      11.429  -2.740  -0.438  1.00  0.00     0.188 HD
ENDBRANCH  40  41
ENDBRANCH  37  40
BRANCH  37  48
HETATM   48  C   UNK N   1       6.949  -5.345  -0.049  0.00  0.00     0.017 A 
HETATM   49  C   UNK N   1       7.968  -6.305  -0.084  0.00  0.00     0.016 A 
HETATM   50  C   UNK N   1       7.668  -7.665  -0.068  0.00  0.00     0.043 A 
HETATM   51  C   UNK N   1       6.341  -8.088  -0.022  0.00  0.00     0.119 A 
HETATM   52  C   UNK N   1       5.313  -7.160   0.026  0.00  0.00     0.085 A 
HETATM   53  F   UNK N   1       6.045  -9.405  -0.045  0.00  0.00    -0.206 F 
HETATM   54  C   UNK N   1       5.593  -5.801   0.021  0.00  0.00     0.128 A 
HETATM   55  F   UNK N   1       4.527  -4.970   0.031  0.00  0.00    -0.205 F 
ENDBRANCH  37  48
ENDBRANCH  34  35
ENDBRANCH  33  34
ENDBRANCH   6  33
TORSDOF 13
