REMARK  7 active torsions:
REMARK  status: ('A' for Active; 'I' for Inactive)
REMARK    1  A    between atoms: N_1  and  C_14 
REMARK       I    between atoms: C_9  and  N_13 
REMARK    2  A    between atoms: C_14  and  O_15 
REMARK    3  A    between atoms: O_15  and  C_16 
REMARK    4  A    between atoms: C_16  and  C_17 
REMARK    5  A    between atoms: C_16  and  C_18 
REMARK    6  A    between atoms: C_17  and  O_20 
REMARK    7  A    between atoms: C_18  and  O_19 
ROOT
HETATM    1  N   UNK N   1       2.701  -1.171   0.229  0.00  0.00    -0.305 N 
HETATM    2  C   UNK N   1       1.451  -0.711   0.113  0.00  0.00     0.158 A 
HETATM    3  C   UNK N   1       1.477   0.634   0.027  0.00  0.00     0.147 A 
HETATM    4  N   UNK N   1       2.748   1.072   0.082  0.00  0.00    -0.345 N 
ATOM      5  HN  UNK N   1       3.082   2.034   0.036  1.00  0.00     0.167 HD
HETATM    6  C   UNK N   1       3.487  -0.063   0.214  0.00  0.00     0.187 A 
HETATM    7  N   UNK N   1       0.294  -1.420   0.098  0.00  0.00    -0.174 N 
ATOM      8  HN  UNK N   1       0.301  -2.438   0.166  1.00  0.00     0.186 HD
HETATM    9  C   UNK N   1      -0.884  -0.727  -0.010  0.00  0.00     0.680 A 
HETATM   10  N   UNK N   1      -0.881   0.644  -0.099  0.00  0.00    -0.154 N 
HETATM   11  C   UNK N   1       0.302   1.351  -0.083  0.00  0.00     0.290 A 
HETATM   12  O   UNK N   1       0.303   2.566  -0.154  0.00  0.00    -0.265 OA
HETATM   13  N   UNK N   1      -2.108  -1.425  -0.021  0.00  0.00    -0.234 N 
HETATM   14  H   UNK N   1      -1.735   1.128  -0.176  0.00  0.00     0.187 HD
HETATM   15  H   UNK N   1      -2.958  -0.927  -0.028  0.00  0.00     0.174 HD
HETATM   16  H   UNK N   1      -2.114  -2.409  -0.021  0.00  0.00     0.174 HD
ENDROOT
BRANCH   1  17
HETATM   17  C   UNK N   1       3.148  -2.552   0.384  0.00  0.00     0.301 C 
BRANCH  17  18
HETATM   18  O   UNK N   1       4.085  -2.884  -0.606  0.00  0.00    -0.362 OA
BRANCH  18  19
HETATM   19  C   UNK N   1       5.340  -2.655  -0.025  0.00  0.00     0.170 C 
BRANCH  19  20
HETATM   20  C   UNK N   1       6.193  -3.913  -0.099  0.00  0.00     0.198 C 
BRANCH  20  21
HETATM   21  O   UNK N   1       7.446  -3.687   0.476  0.00  0.00    -0.398 OA
HETATM   22  H   UNK N   1       8.017  -4.362   0.875  0.00  0.00     0.209 HD
ENDBRANCH  20  21
ENDBRANCH  19  20
BRANCH  19  23
HETATM   23  C   UNK N   1       6.026  -1.500  -0.736  0.00  0.00     0.198 C 
BRANCH  23  24
HETATM   24  O   UNK N   1       6.530  -0.607   0.209  0.00  0.00    -0.398 OA
HETATM   25  H   UNK N   1       7.243  -0.600   0.867  0.00  0.00     0.209 HD
ENDBRANCH  23  24
ENDBRANCH  19  23
ENDBRANCH  18  19
ENDBRANCH  17  18
ENDBRANCH   1  17
TORSDOF 7
