REMARK  17 active torsions:
REMARK  status: ('A' for Active; 'I' for Inactive)
REMARK    1  A    between atoms: C_24  and  C_19 
REMARK    2  A    between atoms: C_30  and  C_19 
REMARK    3  A    between atoms: C_31  and  C_21 
REMARK    4  A    between atoms: C_34  and  C_21 
REMARK    5  A    between atoms: C_33  and  C_23 
REMARK    6  A    between atoms: N_48  and  C_23 
REMARK    7  A    between atoms: C_35  and  C_29 
REMARK    8  A    between atoms: C_33  and  C_30 
REMARK    9  A    between atoms: C_30  and  N_43 
REMARK   10  A    between atoms: C_36  and  C_31 
REMARK   11  A    between atoms: C_31  and  N_45 
REMARK   12  A    between atoms: C_32  and  C_37 
REMARK   13  A    between atoms: C_33  and  O_49 
REMARK   14  A    between atoms: O_50  and  C_34 
REMARK       I    between atoms: N_45  and  C_35 
REMARK   15  A    between atoms: C_36  and  O_52 
REMARK   16  A    between atoms: O_53  and  C_37 
REMARK   17  A    between atoms: N_46  and  C_38 
ROOT
HETATM    1  C   UNK N   1       5.004   6.134   0.275  0.00  0.00     0.118 C 
ENDROOT
BRANCH   1   2
HETATM    2  C   UNK N   1       6.102   7.035  -0.329  0.00  0.00     0.066 C 
BRANCH   2   3
HETATM    3  C   UNK N   1       6.115   8.518  -0.128  0.00  0.00    -0.056 A 
HETATM    4  C   UNK N   1       5.377   9.347  -0.984  0.00  0.00     0.007 A 
HETATM    5  C   UNK N   1       5.516  10.736  -0.918  0.00  0.00     0.001 A 
HETATM    6  C   UNK N   1       6.418  11.303  -0.016  0.00  0.00     0.000 A 
HETATM    7  C   UNK N   1       7.178  10.481   0.821  0.00  0.00     0.001 A 
HETATM    8  C   UNK N   1       7.038   9.090   0.755  0.00  0.00     0.007 A 
ENDBRANCH   2   3
ENDBRANCH   1   2
BRANCH   1   9
HETATM    9  C   UNK N   1       3.549   6.518  -0.087  0.00  0.00     0.158 C 
BRANCH   9  10
HETATM   10  C   UNK N   1       2.649   7.025   1.040  0.00  0.00     0.151 C 
BRANCH  10  11
HETATM   11  N   UNK N   1       1.413   7.524   0.436  0.00  0.00    -0.398 N 
HETATM   12  C   UNK N   1       1.037   8.788   1.047  0.00  0.00     0.122 C 
HETATM   13  C   UNK N   1       0.338   9.571  -0.037  0.00  0.00     0.007 C 
HETATM   14  C   UNK N   1       0.035  10.996   0.405  0.00  0.00     0.006 C 
HETATM   15  C   UNK N   1      -0.963   8.836  -0.415  0.00  0.00    -0.006 C 
HETATM   16  C   UNK N   1      -0.612  11.745  -0.760  0.00  0.00     0.000 C 
HETATM   17  C   UNK N   1      -1.893  11.038  -1.208  0.00  0.00     0.000 C 
HETATM   18  C   UNK N   1      -1.624   9.576  -1.577  0.00  0.00     0.005 C 
HETATM   19  C   UNK N   1      -0.672   7.389  -0.830  0.00  0.00     0.038 C 
HETATM   20  C   UNK N   1       0.240   6.645   0.167  0.00  0.00     0.154 C 
BRANCH  20  21
HETATM   21  C   UNK N   1       0.642   5.349  -0.535  0.00  0.00     0.135 C 
HETATM   22  N   UNK N   1       0.492   4.160  -0.031  0.00  0.00    -0.365 N 
ATOM     23  HN  UNK N   1       0.871   3.393  -0.587  1.00  0.00     0.162 HD
BRANCH  22  24
HETATM   24  C   UNK N   1      -0.144   3.780   1.218  0.00  0.00     0.021 C 
HETATM   25  C   UNK N   1       0.136   2.319   1.474  0.00  0.00     0.037 C 
HETATM   26  C   UNK N   1      -1.648   3.958   1.104  0.00  0.00     0.037 C 
HETATM   27  C   UNK N   1       0.412   4.521   2.420  0.00  0.00     0.037 C 
ENDBRANCH  22  24
BRANCH  21  28
HETATM   28  O   UNK N   1       1.207   5.449  -1.758  0.00  0.00    -0.348 OA
HETATM   29  H   UNK N   1       1.463   5.144  -2.606  0.00  0.00     0.219 HD
ENDBRANCH  21  28
ENDBRANCH  20  21
ENDBRANCH  10  11
ENDBRANCH   9  10
BRANCH   9  30
HETATM   30  O   UNK N   1       3.483   7.338  -1.215  0.00  0.00    -0.392 OA
HETATM   31  H   UNK N   1       3.953   7.662  -1.999  0.00  0.00     0.210 HD
ENDBRANCH   9  30
ENDBRANCH   1   9
BRANCH   1  32
HETATM   32  N   UNK N   1       5.255   4.827  -0.307  0.00  0.00    -0.365 N 
HETATM   33  C   UNK N   1       4.711   3.733   0.117  0.00  0.00     0.135 C 
ATOM     34  HN  UNK N   1       5.898   4.768  -1.097  1.00  0.00     0.161 HD
BRANCH  33  35
HETATM   35  C   UNK N   1       5.017   2.437  -0.576  0.00  0.00     0.166 C 
BRANCH  35  36
HETATM   36  C   UNK N   1       6.015   1.682   0.318  0.00  0.00     0.117 C 
BRANCH  36  37
HETATM   37  C   UNK N   1       7.378   2.308   0.374  0.00  0.00     0.111 C 
HETATM   38  N   UNK N   1       7.550   3.460   0.908  0.00  0.00    -0.384 N 
HETATM   39  H   UNK N   1       8.382   3.789   1.318  0.00  0.00     0.157 HD
ATOM     40  HN  UNK N   1       6.751   4.095   0.908  1.00  0.00     0.157 HD
BRANCH  37  41
HETATM   41  O   UNK N   1       8.435   1.630  -0.104  0.00  0.00    -0.350 OA
HETATM   42  H   UNK N   1       8.395   0.755  -0.437  0.00  0.00     0.219 HD
ENDBRANCH  37  41
ENDBRANCH  36  37
ENDBRANCH  35  36
BRANCH  35  43
HETATM   43  N   UNK N   1       3.762   1.707  -0.775  0.00  0.00    -0.343 N 
HETATM   44  C   UNK N   1       3.603   0.357  -0.611  0.00  0.00     0.268 C 
HETATM   45  O   UNK N   1       4.569  -0.369  -0.452  0.00  0.00    -0.266 OA
HETATM   46  H   UNK N   1       2.972   2.227  -1.048  0.00  0.00     0.163 HD
BRANCH  44  47
HETATM   47  C   UNK N   1       2.248  -0.220  -0.492  0.00  0.00     0.101 A 
HETATM   48  C   UNK N   1       2.112  -1.493   0.086  0.00  0.00     0.036 A 
HETATM   49  C   UNK N   1       0.845  -1.990   0.380  0.00  0.00     0.016 A 
HETATM   50  C   UNK N   1      -0.276  -1.226   0.082  0.00  0.00    -0.009 A 
HETATM   51  C   UNK N   1      -1.553  -1.686   0.411  0.00  0.00     0.013 A 
HETATM   52  C   UNK N   1      -0.115   0.028  -0.549  0.00  0.00     0.043 A 
HETATM   53  C   UNK N   1      -2.673  -0.905   0.111  0.00  0.00     0.001 A 
HETATM   54  C   UNK N   1      -2.519   0.327  -0.535  0.00  0.00     0.002 A 
HETATM   55  C   UNK N   1      -1.241   0.794  -0.864  0.00  0.00     0.030 A 
HETATM   56  N   UNK N   1       1.139   0.505  -0.802  0.00  0.00    -0.351 N 
ATOM     57  HN  UNK N   1       1.246   1.423  -1.233  1.00  0.00     0.166 HD
ENDBRANCH  44  47
ENDBRANCH  35  43
ENDBRANCH  33  35
BRANCH  33  58
HETATM   58  O   UNK N   1       3.916   3.735   1.212  0.00  0.00    -0.348 OA
HETATM   59  H   UNK N   1       3.642   4.212   1.970  0.00  0.00     0.219 HD
ENDBRANCH  33  58
ENDBRANCH   1  32
TORSDOF 17
