REMARK  6 active torsions:
REMARK  status: ('A' for Active; 'I' for Inactive)
REMARK    1  A    between atoms: O_2  and  C_16 
REMARK       I    between atoms: N_4  and  C_11 
REMARK    2  A    between atoms: C_11  and  C_14 
REMARK    3  A    between atoms: C_14  and  C_15 
REMARK    4  A    between atoms: C_15  and  C_16 
REMARK    5  A    between atoms: C_15  and  C_17 
REMARK    6  A    between atoms: C_17  and  C_18 
ROOT
HETATM    1  C   UNK N   1      -0.109  -0.927   0.742  0.00  0.00     0.118 C 
ENDROOT
BRANCH   1   2
HETATM    2  C   UNK N   1      -0.632  -0.088  -0.424  0.00  0.00     0.220 C 
HETATM    3  O   UNK N   1       0.054   0.085  -1.418  0.00  0.00    -0.273 OA
HETATM    4  N   UNK N   1      -1.844   0.520  -0.346  0.00  0.00    -0.351 N 
HETATM    5  C   UNK N   1      -2.288   1.461  -1.352  0.00  0.00     0.130 C 
HETATM    6  C   UNK N   1      -2.796   0.316   0.721  0.00  0.00     0.130 C 
HETATM    7  C   UNK N   1      -3.472   2.099  -0.662  0.00  0.00     0.009 C 
HETATM    8  C   UNK N   1      -4.047   0.920   0.099  0.00  0.00     0.009 C 
HETATM    9  C   UNK N   1      -4.523   2.730  -1.562  0.00  0.00     0.007 C 
HETATM   10  C   UNK N   1      -5.166   1.381   1.022  0.00  0.00     0.007 C 
HETATM   11  C   UNK N   1      -6.259   2.040   0.163  0.00  0.00     0.000 C 
HETATM   12  C   UNK N   1      -5.697   3.193  -0.689  0.00  0.00     0.000 C 
ENDBRANCH   1   2
BRANCH   1  13
HETATM   13  C   UNK N   1       1.317  -1.546   0.647  0.00  0.00     0.096 C 
BRANCH  13  14
HETATM   14  C   UNK N   1       1.263  -2.972   0.139  0.00  0.00     0.144 C 
HETATM   15  O   UNK N   1       0.203  -3.470  -0.208  0.00  0.00    -0.650 OA
BRANCH  14  16
HETATM   16  O   UNK N   1       2.377  -3.727   0.123  0.00  0.00    -0.776 OA
HETATM   17  H   UNK N   1       2.309  -4.661   0.112  0.00  0.00     0.167 HD
ENDBRANCH  14  16
ENDBRANCH  13  14
BRANCH  13  18
HETATM   18  C   UNK N   1       2.234  -0.642  -0.199  0.00  0.00     0.054 C 
BRANCH  18  19
HETATM   19  C   UNK N   1       3.718  -0.726  -0.089  0.00  0.00    -0.057 A 
HETATM   20  C   UNK N   1       4.422   0.435   0.243  0.00  0.00     0.007 A 
HETATM   21  C   UNK N   1       5.819   0.433   0.258  0.00  0.00     0.001 A 
HETATM   22  C   UNK N   1       6.517  -0.732  -0.069  0.00  0.00     0.000 A 
HETATM   23  C   UNK N   1       5.817  -1.893  -0.412  0.00  0.00     0.001 A 
HETATM   24  C   UNK N   1       4.419  -1.887  -0.434  0.00  0.00     0.007 A 
ENDBRANCH  18  19
ENDBRANCH  13  18
ENDBRANCH   1  13
TORSDOF 6
