REMARK  13 active torsions:
REMARK  status: ('A' for Active; 'I' for Inactive)
REMARK    1  A    between atoms: C_1  and  O_16 
REMARK    2  A    between atoms: C_1  and  C_11 
REMARK    3  A    between atoms: C_7  and  C_19 
REMARK    4  A    between atoms: C_11  and  C_12 
REMARK    5  A    between atoms: C_12  and  C_15 
REMARK    6  A    between atoms: C_15  and  C_17 
REMARK    7  A    between atoms: C_19  and  C_20 
REMARK    8  A    between atoms: C_20  and  C_21 
REMARK    9  A    between atoms: C_21  and  C_22 
REMARK   10  A    between atoms: C_22  and  C_23 
REMARK   11  A    between atoms: C_23  and  C_24 
REMARK   12  A    between atoms: C_24  and  C_25 
REMARK   13  A    between atoms: C_25  and  O_27 
ROOT
HETATM    1  C   UNK N   1      -3.060   1.995  -0.525  0.00  0.00     0.229 C 
HETATM    2  C   UNK N   1      -3.183   0.689   0.290  0.00  0.00     0.075 C 
HETATM    3  C   UNK N   1      -1.966  -0.204   0.125  0.00  0.00     0.013 C 
HETATM    4  O   UNK N   1      -1.784   2.168  -1.136  0.00  0.00    -0.344 OA
HETATM    5  C   UNK N   1      -0.663   1.914  -0.302  0.00  0.00     0.137 C 
HETATM    6  C   UNK N   1      -0.754   0.617   0.546  0.00  0.00     0.026 C 
HETATM    7  C   UNK N   1       0.611  -0.105   0.456  0.00  0.00     0.062 C 
HETATM    8  C   UNK N   1       1.396   0.853  -0.356  0.00  0.00     0.134 C 
HETATM    9  C   UNK N   1       0.556   1.733  -1.186  0.00  0.00     0.111 C 
HETATM   10  O   UNK N   1       2.546   1.148  -0.079  0.00  0.00    -0.297 OA
ENDROOT
BRANCH   7  11
HETATM   11  C   UNK N   1       0.546  -1.432  -0.304  0.00  0.00     0.013 C 
BRANCH  11  12
HETATM   12  C   UNK N   1       1.440  -2.477   0.345  0.00  0.00     0.001 C 
BRANCH  12  13
HETATM   13  C   UNK N   1       2.761  -2.613  -0.392  0.00  0.00     0.000 C 
BRANCH  13  14
HETATM   14  C   UNK N   1       3.745  -1.568   0.095  0.00  0.00     0.001 C 
BRANCH  14  15
HETATM   15  C   UNK N   1       5.101  -1.773  -0.553  0.00  0.00     0.010 C 
BRANCH  15  16
HETATM   16  C   UNK N   1       6.023  -2.541   0.383  0.00  0.00     0.110 C 
BRANCH  16  17
HETATM   17  C   UNK N   1       5.994  -4.009   0.102  0.00  0.00     0.139 C 
HETATM   18  O   UNK N   1       4.964  -4.646   0.245  0.00  0.00    -0.650 OA
BRANCH  17  19
HETATM   19  O   UNK N   1       7.121  -4.635  -0.284  0.00  0.00    -0.776 OA
HETATM   20  H   UNK N   1       7.135  -5.533  -0.552  0.00  0.00     0.167 HD
ENDBRANCH  17  19
ENDBRANCH  16  17
ENDBRANCH  15  16
ENDBRANCH  14  15
ENDBRANCH  13  14
ENDBRANCH  12  13
ENDBRANCH  11  12
ENDBRANCH   7  11
BRANCH   1  21
HETATM   21  O   UNK N   1      -3.984   1.898  -1.566  0.00  0.00    -0.361 OA
HETATM   22  H   UNK N   1      -4.363   2.420  -2.290  0.00  0.00     0.213 HD
ENDBRANCH   1  21
BRANCH   1  23
HETATM   23  C   UNK N   1      -3.416   3.226   0.350  0.00  0.00     0.298 C 
HETATM   24  F   UNK N   1      -2.561   3.292   1.435  0.00  0.00    -0.200 F 
HETATM   25  F   UNK N   1      -3.260   4.386  -0.392  0.00  0.00    -0.200 F 
BRANCH  23  26
HETATM   26  C   UNK N   1      -4.843   3.171   0.908  0.00  0.00     0.085 C 
BRANCH  26  27
HETATM   27  C   UNK N   1      -5.901   3.461  -0.146  0.00  0.00     0.006 C 
BRANCH  27  28
HETATM   28  C   UNK N   1      -7.268   3.129   0.410  0.00  0.00    -0.004 C 
HETATM   29  C   UNK N   1      -8.332   3.811  -0.424  0.00  0.00     0.005 C 
ENDBRANCH  27  28
ENDBRANCH  26  27
ENDBRANCH  23  26
ENDBRANCH   1  23
TORSDOF 13
