REMARK  7 active torsions:
REMARK  status: ('A' for Active; 'I' for Inactive)
REMARK    1  A    between atoms: C_2  and  N_1 
REMARK    2  A    between atoms: C_2  and  C_3 
REMARK    3  A    between atoms: C_2  and  C_11 
REMARK    4  A    between atoms: C_3  and  C_4 
REMARK    5  A    between atoms: C_4  and  N_5 
REMARK       I    between atoms: N_5  and  C_6 
REMARK       I    between atoms: C_6  and  N_9 
REMARK    6  A    between atoms: N_9  and  O_10 
REMARK    7  A    between atoms: C_11  and  O_12 
ROOT
HETATM    1  C   UNK N   1       5.843   1.417  -0.000  0.00  0.00     0.140 C 
ENDROOT
BRANCH   1   2
HETATM    2  C   UNK N   1       6.398   2.839   0.000  0.00  0.00     0.056 C 
BRANCH   2   3
HETATM    3  C   UNK N   1       7.937   2.895  -0.000  0.00  0.00     0.174 C 
BRANCH   3   4
HETATM    4  N   UNK N   1       8.532   4.221   0.000  0.00  0.00    -0.418 N 
HETATM    5  H   UNK N   1       9.547   4.325   0.000  0.00  0.00     0.150 HD
HETATM    6  H   UNK N   1       7.935   5.048   0.000  0.00  0.00     0.150 HD
ENDBRANCH   3   4
BRANCH   3   7
HETATM    7  C   UNK N   1       8.897   1.729   0.000  0.00  0.00     0.163 C 
HETATM    8  O   UNK N   1       8.484   0.581   0.000  0.00  0.00    -0.648 OA
BRANCH   7   9
HETATM    9  O   UNK N   1      10.225   1.952   0.000  0.00  0.00    -0.775 OA
HETATM   10  H   UNK N   1      10.822   1.229   0.000  0.00  0.00     0.167 HD
ENDBRANCH   7   9
ENDBRANCH   3   7
ENDBRANCH   2   3
ENDBRANCH   1   2
BRANCH   1  11
HETATM   11  N   UNK N   1       4.393   1.277  -0.000  0.00  0.00    -0.225 N 
HETATM   12  C   UNK N   1       3.391   2.291   0.000  0.00  0.00     0.691 C 
HETATM   13  N   UNK N   1       3.704   3.538  -0.000  0.00  0.00    -0.233 N 
HETATM   14  N   UNK N   1       2.026   1.908   0.000  0.00  0.00    -0.099 N 
HETATM   15  H   UNK N   1       4.650   3.808  -0.000  0.00  0.00     0.174 HD
ATOM     16  HN  UNK N   1       2.971   4.247  -0.000  1.00  0.00     0.174 HD
HETATM   17  H   UNK N   1       1.793   0.951   0.000  0.00  0.00     0.213 HD
HETATM   18  H   UNK N   1       4.057   0.351   0.000  0.00  0.00     0.177 HD
BRANCH  14  19
HETATM   19  O   UNK N   1       1.048   2.823   0.000  0.00  0.00    -0.276 OA
HETATM   20  H   UNK N   1       1.268   3.768  -0.000  0.00  0.00     0.245 HD
ENDBRANCH  14  19
ENDBRANCH   1  11
TORSDOF 7
