REMARK  9 active torsions:
REMARK  status: ('A' for Active; 'I' for Inactive)
REMARK    1  A    between atoms: O_3  and  N_5 
REMARK       I    between atoms: N_4  and  C_12 
REMARK    2  A    between atoms: N_4  and  C_14 
REMARK       I    between atoms: N_5  and  C_13 
REMARK    3  A    between atoms: C_6  and  C_7 
REMARK    4  A    between atoms: C_6  and  C_8 
REMARK    5  A    between atoms: C_7  and  C_9 
REMARK    6  A    between atoms: C_8  and  C_10 
REMARK    7  A    between atoms: C_9  and  C_11 
REMARK    8  A    between atoms: C_10  and  C_12 
REMARK    9  A    between atoms: C_11  and  C_13 
ROOT
HETATM    1  C   UNK N   1       3.560   0.875  -1.430  0.00  0.00     0.009 C 
ENDROOT
BRANCH   1   2
HETATM    2  C   UNK N   1       4.005   1.839  -0.351  0.00  0.00     0.000 C 
BRANCH   2   3
HETATM    3  C   UNK N   1       4.672   1.099   0.795  0.00  0.00     0.000 C 
BRANCH   3   4
HETATM    4  C   UNK N   1       5.321   2.079   1.757  0.00  0.00     0.009 C 
BRANCH   4   5
HETATM    5  C   UNK N   1       6.631   2.612   1.182  0.00  0.00     0.105 C 
BRANCH   5   6
HETATM    6  C   UNK N   1       6.469   3.884   0.395  0.00  0.00     0.240 C 
HETATM    7  O   UNK N   1       5.376   4.417   0.282  0.00  0.00    -0.271 OA
HETATM    8  N   UNK N   1       7.557   4.441  -0.180  0.00  0.00    -0.237 N 
HETATM    9  H   UNK N   1       8.435   4.005  -0.084  0.00  0.00     0.197 HD
BRANCH   8  10
HETATM   10  O   UNK N   1       7.455   5.579  -0.881  0.00  0.00    -0.287 OA
HETATM   11  H   UNK N   1       8.131   6.055  -1.388  0.00  0.00     0.244 HD
ENDBRANCH   8  10
ENDBRANCH   5   6
ENDBRANCH   4   5
ENDBRANCH   3   4
ENDBRANCH   2   3
ENDBRANCH   1   2
BRANCH   1  12
HETATM   12  C   UNK N   1       2.341   0.080  -0.981  0.00  0.00     0.103 C 
BRANCH  12  13
HETATM   13  C   UNK N   1       2.672  -1.337  -0.614  0.00  0.00     0.222 C 
HETATM   14  O   UNK N   1       3.837  -1.696  -0.514  0.00  0.00    -0.273 OA
HETATM   15  N   UNK N   1       1.650  -2.220  -0.465  0.00  0.00    -0.327 N 
HETATM   16  H   UNK N   1       0.736  -1.864  -0.551  0.00  0.00     0.169 HD
BRANCH  15  17
HETATM   17  C   UNK N   1       1.777  -3.613  -0.197  0.00  0.00     0.034 A 
HETATM   18  C   UNK N   1       3.010  -4.206   0.127  0.00  0.00     0.029 A 
HETATM   19  C   UNK N   1       3.098  -5.586   0.333  0.00  0.00     0.002 A 
HETATM   20  C   UNK N   1       1.958  -6.383   0.209  0.00  0.00     0.000 A 
HETATM   21  C   UNK N   1       0.728  -5.800  -0.109  0.00  0.00     0.002 A 
HETATM   22  C   UNK N   1       0.640  -4.420  -0.308  0.00  0.00     0.029 A 
ENDBRANCH  15  17
ENDBRANCH  12  13
ENDBRANCH   1  12
TORSDOF 9
