REMARK  5 active torsions:
REMARK  status: ('A' for Active; 'I' for Inactive)
REMARK    1  A    between atoms: N_1  and  C_2 
REMARK    2  A    between atoms: C_2  and  C_3 
REMARK    3  A    between atoms: C_3  and  C_4 
REMARK    4  A    between atoms: C_4  and  C_5 
REMARK    5  A    between atoms: C_5  and  O_6 
ROOT
HETATM    1  C   UNK N   1       0.816   0.625   0.000  0.00  0.00     0.029 C 
ENDROOT
BRANCH   1   2
HETATM    2  C   UNK N   1      -0.461   1.434  -0.000  0.00  0.00     0.111 C 
BRANCH   2   3
HETATM    3  N   UNK N   1      -1.591   0.522  -0.000  0.00  0.00    -0.430 N 
HETATM    4  H   UNK N   1      -2.542   0.890  -0.000  0.00  0.00     0.149 HD
HETATM    5  H   UNK N   1      -1.433  -0.485  -0.000  0.00  0.00     0.149 HD
ENDBRANCH   2   3
ENDBRANCH   1   2
BRANCH   1   6
HETATM    6  C   UNK N   1       2.036   1.532   0.000  0.00  0.00     0.111 C 
BRANCH   6   7
HETATM    7  C   UNK N   1       3.312   0.739  -0.000  0.00  0.00     0.139 C 
HETATM    8  O   UNK N   1       3.291  -0.484   0.000  0.00  0.00    -0.650 OA
BRANCH   7   9
HETATM    9  O   UNK N   1       4.494   1.381  -0.000  0.00  0.00    -0.776 OA
HETATM   10  H   UNK N   1       5.293   0.891  -0.000  0.00  0.00     0.167 HD
ENDBRANCH   7   9
ENDBRANCH   6   7
ENDBRANCH   1   6
TORSDOF 5
