REMARK  6 active torsions:
REMARK  status: ('A' for Active; 'I' for Inactive)
REMARK    1  A    between atoms: C_14  and  C_19 
REMARK    2  A    between atoms: C_20  and  C_15 
REMARK    3  A    between atoms: O_25  and  C_16 
REMARK    4  A    between atoms: O_24  and  C_17 
REMARK    5  A    between atoms: O_25  and  C_18 
REMARK    6  A    between atoms: O_23  and  C_19 
ROOT
HETATM    1  C   UNK N   1       4.917   7.526  -1.939  0.00  0.00     0.017 C 
HETATM    2  C   UNK N   1       5.865   7.068   0.296  0.00  0.00     0.017 C 
HETATM    3  C   UNK N   1       4.088   6.232  -1.707  0.00  0.00     0.030 C 
HETATM    4  C   UNK N   1       4.602   6.455   0.850  0.00  0.00     0.030 C 
HETATM    5  C   UNK N   1       2.305   6.387  -0.025  0.00  0.00     0.074 C 
HETATM    6  C   UNK N   1       5.394   8.162  -0.630  0.00  0.00     0.084 C 
HETATM    7  C   UNK N   1       3.676   5.893  -0.241  0.00  0.00     0.076 C 
HETATM    8  N   UNK N   1       1.229   6.766   0.168  0.00  0.00    -0.196 NA
ENDROOT
BRANCH   7   9
HETATM    9  C   UNK N   1       3.755   4.412  -0.016  0.00  0.00    -0.033 A 
HETATM   10  C   UNK N   1       2.689   3.680   0.518  0.00  0.00     0.012 A 
HETATM   11  C   UNK N   1       2.826   2.319   0.739  0.00  0.00     0.040 A 
HETATM   12  C   UNK N   1       4.027   1.654   0.428  0.00  0.00     0.101 A 
HETATM   13  C   UNK N   1       5.123   2.407  -0.091  0.00  0.00     0.103 A 
HETATM   14  C   UNK N   1       4.960   3.768  -0.280  0.00  0.00     0.048 A 
BRANCH  12  15
HETATM   15  O   UNK N   1       4.113   0.324   0.638  0.00  0.00    -0.353 OA
HETATM   16  C   UNK N   1       3.010  -0.457   0.919  0.00  0.00     0.210 C 
ENDBRANCH  12  15
BRANCH  13  17
HETATM   17  O   UNK N   1       6.352   1.926  -0.418  0.00  0.00    -0.343 OA
BRANCH  17  18
HETATM   18  C   UNK N   1       6.793   0.739  -0.971  0.00  0.00     0.129 C 
HETATM   19  C   UNK N   1       5.740  -0.230  -1.455  0.00  0.00     0.032 C 
HETATM   20  C   UNK N   1       5.882  -1.473  -0.594  0.00  0.00     0.002 C 
HETATM   21  C   UNK N   1       7.009  -1.234   0.396  0.00  0.00     0.002 C 
HETATM   22  C   UNK N   1       7.730   0.020  -0.036  0.00  0.00     0.032 C 
ENDBRANCH  17  18
ENDBRANCH  13  17
ENDBRANCH   7   9
BRANCH   6  23
HETATM   23  C   UNK N   1       6.466   9.205  -0.722  0.00  0.00     0.143 C 
HETATM   24  O   UNK N   1       6.236  10.334  -0.317  0.00  0.00    -0.650 OA
BRANCH  23  25
HETATM   25  O   UNK N   1       7.710   8.886  -1.128  0.00  0.00    -0.776 OA
HETATM   26  H   UNK N   1       7.951   8.026  -1.411  0.00  0.00     0.167 HD
ENDBRANCH  23  25
ENDBRANCH   6  23
TORSDOF 6
