REMARK  3 active torsions:
REMARK  status: ('A' for Active; 'I' for Inactive)
REMARK    1  A    between atoms: O_1  and  C_2 
REMARK    2  A    between atoms: C_2  and  C_3 
REMARK    3  A    between atoms: C_3  and  O_4 
ROOT
HETATM    1  C   UNK N   1       1.084  -0.090   0.000  0.00  0.00     0.164 C 
HETATM    2  O   UNK N   1      -0.132   0.028  -0.000  0.00  0.00    -0.648 OA
ENDROOT
BRANCH   1   3
HETATM    3  C   UNK N   1       1.975   1.116  -0.000  0.00  0.00     0.273 C 
BRANCH   3   4
HETATM    4  O   UNK N   1       1.237   2.301  -0.000  0.00  0.00    -0.391 OA
HETATM    5  H   UNK N   1       1.693   3.157  -0.000  0.00  0.00     0.210 HD
ENDBRANCH   3   4
ENDBRANCH   1   3
BRANCH   1   6
HETATM    6  O   UNK N   1       1.634  -1.318   0.000  0.00  0.00    -0.775 OA
HETATM    7  H   UNK N   1       1.085  -2.077  -0.000  0.00  0.00     0.167 HD
ENDBRANCH   1   6
TORSDOF 3
