REMARK  6 active torsions:
REMARK  status: ('A' for Active; 'I' for Inactive)
REMARK    1  A    between atoms: C_2  and  O_1 
REMARK    2  A    between atoms: C_3  and  O_4 
REMARK    3  A    between atoms: C_5  and  O_6 
REMARK    4  A    between atoms: C_7  and  O_8 
REMARK    5  A    between atoms: C_9  and  O_10 
REMARK    6  A    between atoms: C_11  and  O_12 
ROOT
HETATM    1  C   UNK N   1       1.978   1.174  -0.000  0.00  0.00     0.180 A 
HETATM    2  C   UNK N   1       1.978  -0.349   0.000  0.00  0.00     0.180 A 
HETATM    3  C   UNK N   1       0.658  -1.110  -0.000  0.00  0.00     0.180 A 
HETATM    4  C   UNK N   1      -0.661  -0.349   0.000  0.00  0.00     0.180 A 
HETATM    5  C   UNK N   1      -0.661   1.174  -0.000  0.00  0.00     0.180 A 
HETATM    6  C   UNK N   1       0.658   1.935   0.000  0.00  0.00     0.180 A 
ENDROOT
BRANCH   1   7
HETATM    7  O   UNK N   1       3.185   1.873   0.000  0.00  0.00    -0.390 OA
HETATM    8  H   UNK N   1       4.025   1.390   0.000  0.00  0.00     0.210 HD
ENDBRANCH   1   7
BRANCH   2   9
HETATM    9  O   UNK N   1       3.185  -1.048  -0.000  0.00  0.00    -0.390 OA
HETATM   10  H   UNK N   1       3.183  -2.018  -0.000  0.00  0.00     0.210 HD
ENDBRANCH   2   9
BRANCH   6  11
HETATM   11  O   UNK N   1       0.657   3.331  -0.000  0.00  0.00    -0.390 OA
HETATM   12  H   UNK N   1       1.497   3.816  -0.000  0.00  0.00     0.210 HD
ENDBRANCH   6  11
BRANCH   3  13
HETATM   13  O   UNK N   1       0.657  -2.506   0.000  0.00  0.00    -0.390 OA
HETATM   14  H   UNK N   1      -0.183  -2.991   0.000  0.00  0.00     0.210 HD
ENDBRANCH   3  13
BRANCH   5  15
HETATM   15  O   UNK N   1      -1.868   1.872   0.000  0.00  0.00    -0.390 OA
HETATM   16  H   UNK N   1      -1.867   2.842   0.000  0.00  0.00     0.210 HD
ENDBRANCH   5  15
BRANCH   4  17
HETATM   17  O   UNK N   1      -1.868  -1.047  -0.000  0.00  0.00    -0.390 OA
HETATM   18  H   UNK N   1      -2.708  -0.563  -0.000  0.00  0.00     0.210 HD
ENDBRANCH   4  17
TORSDOF 6
