REMARK  1 active torsions:
REMARK  status: ('A' for Active; 'I' for Inactive)
REMARK    1  A    between atoms: O_20  and  C_15 
ROOT
HETATM    1  C   UNK N   1      -1.944  -0.550   1.940  0.00  0.00     0.043 C 
HETATM    2  C   UNK N   1       4.193   0.511  -0.245  0.00  0.00     0.020 C 
HETATM    3  C   UNK N   1       2.957   0.323  -1.110  0.00  0.00     0.010 C 
HETATM    4  C   UNK N   1       1.946  -3.263   1.294  0.00  0.00     0.016 A 
HETATM    5  C   UNK N   1       1.715  -4.577   0.893  0.00  0.00     0.056 A 
HETATM    6  C   UNK N   1       4.244  -0.620   0.772  0.00  0.00     0.115 C 
HETATM    7  C   UNK N   1      -0.770  -0.221  -0.181  0.00  0.00    -0.019 C 
HETATM    8  C   UNK N   1       0.699  -1.400  -1.794  0.00  0.00     0.066 C 
HETATM    9  C   UNK N   1       0.643  -0.509   1.869  0.00  0.00     0.069 C 
HETATM   10  C   UNK N   1      -0.690  -0.406   1.152  0.00  0.00    -0.084 C 
HETATM   11  C   UNK N   1       0.456  -0.071  -1.063  0.00  0.00     0.021 C 
HETATM   12  C   UNK N   1       1.699   0.285  -0.232  0.00  0.00     0.026 C 
HETATM   13  C   UNK N   1       1.673  -2.200   0.422  0.00  0.00    -0.007 A 
HETATM   14  C   UNK N   1       1.134  -2.496  -0.855  0.00  0.00     0.020 A 
HETATM   15  C   UNK N   1       1.191  -4.824  -0.376  0.00  0.00     0.140 A 
HETATM   16  C   UNK N   1       1.820  -0.759   0.910  0.00  0.00     0.063 C 
HETATM   17  N   UNK N   1       3.076  -0.560   1.654  0.00  0.00    -0.408 N 
HETATM   18  N   UNK N   1       0.914  -3.789  -1.214  0.00  0.00    -0.340 N 
ATOM     19  HN  UNK N   1       0.531  -3.988  -2.138  1.00  0.00     0.167 HD
HETATM   20  H   UNK N   1       3.126  -0.399   2.660  0.00  0.00     0.154 HD
ENDROOT
BRANCH  15  21
HETATM   21  O   UNK N   1       0.940  -6.084  -0.763  0.00  0.00    -0.346 OA
HETATM   22  H   UNK N   1       0.090  -6.372  -1.033  0.00  0.00     0.219 HD
ENDBRANCH  15  21
TORSDOF 1
