REMARK  10 active torsions:
REMARK  status: ('A' for Active; 'I' for Inactive)
REMARK    1  A    between atoms: O_1  and  C_16 
REMARK    2  A    between atoms: O_1  and  C_18 
REMARK    3  A    between atoms: O_3  and  C_17 
REMARK    4  A    between atoms: O_5  and  C_32 
REMARK    5  A    between atoms: N_8  and  C_31 
REMARK       I    between atoms: N_9  and  C_32 
REMARK    6  A    between atoms: C_11  and  C_15 
REMARK    7  A    between atoms: C_12  and  C_16 
REMARK    8  A    between atoms: C_15  and  C_17 
REMARK    9  A    between atoms: C_21  and  C_25 
REMARK   10  A    between atoms: C_28  and  C_31 
ROOT
HETATM    1  C   UNK N   1       5.433  -2.309  -0.795  0.00  0.00     0.068 C 
HETATM    2  C   UNK N   1       4.749  -1.997   0.401  0.00  0.00     0.037 C 
HETATM    3  C   UNK N   1       6.503  -1.540  -1.206  0.00  0.00     0.037 C 
HETATM    4  C   UNK N   1       6.057   0.027   0.571  0.00  0.00    -0.026 C 
HETATM    5  C   UNK N   1       5.059  -0.811   1.085  0.00  0.00     0.015 C 
HETATM    6  C   UNK N   1       6.809  -0.384  -0.539  0.00  0.00     0.015 C 
ENDROOT
BRANCH   4   7
HETATM    7  C   UNK N   1       5.926   1.470   0.755  0.00  0.00    -0.026 C 
HETATM    8  C   UNK N   1       5.407   2.104   1.901  0.00  0.00     0.013 C 
HETATM    9  C   UNK N   1       5.093   3.480   1.841  0.00  0.00     0.016 C 
HETATM   10  C   UNK N   1       5.144   4.142   0.597  0.00  0.00     0.008 C 
HETATM   11  C   UNK N   1       5.646   3.488  -0.511  0.00  0.00     0.016 C 
HETATM   12  C   UNK N   1       6.040   2.193  -0.430  0.00  0.00     0.013 C 
BRANCH  10  13
HETATM   13  C   UNK N   1       5.071   5.568   0.403  0.00  0.00     0.113 C 
HETATM   14  N   UNK N   1       6.112   6.179   0.852  0.00  0.00    -0.288 N 
HETATM   15  C   UNK N   1       6.798   7.154   0.206  0.00  0.00     0.365 C 
ATOM     16  HN  UNK N   1       6.449   5.907   1.775  1.00  0.00     0.172 HD
HETATM   17  O   UNK N   1       6.565   7.410  -0.974  0.00  0.00    -0.238 OA
BRANCH  13  18
HETATM   18  N   UNK N   1       4.440   6.011  -0.795  0.00  0.00    -0.385 N 
HETATM   19  H   UNK N   1       4.488   6.541  -1.623  0.00  0.00     0.157 HD
HETATM   20  H   UNK N   1       3.547   5.596  -0.795  0.00  0.00     0.157 HD
ENDBRANCH  13  18
BRANCH  15  21
HETATM   21  O   UNK N   1       7.901   7.656   0.797  0.00  0.00    -0.309 OA
HETATM   22  C   UNK N   1       8.886   8.294   0.084  0.00  0.00     0.215 C 
ENDBRANCH  15  21
ENDBRANCH  10  13
ENDBRANCH   4   7
BRANCH   1  23
HETATM   23  O   UNK N   1       5.052  -3.290  -1.624  0.00  0.00    -0.349 OA
BRANCH  23  24
HETATM   24  C   UNK N   1       4.153  -4.267  -1.332  0.00  0.00     0.200 C 
BRANCH  24  25
HETATM   25  C   UNK N   1       4.859  -5.565  -1.647  0.00  0.00     0.109 C 
HETATM   26  N   UNK N   1       5.997  -5.677  -0.784  0.00  0.00    -0.354 N 
HETATM   27  C   UNK N   1       5.779  -6.548   0.196  0.00  0.00     0.222 C 
HETATM   28  H   UNK N   1       6.835  -5.174  -0.903  0.00  0.00     0.162 HD
HETATM   29  O   UNK N   1       6.595  -6.740   1.083  0.00  0.00    -0.273 OA
HETATM   30  C   UNK N   1       4.441  -7.184   0.145  0.00  0.00     0.089 C 
HETATM   31  C   UNK N   1       3.963  -6.728  -1.246  0.00  0.00     0.041 C 
BRANCH  30  32
HETATM   32  C   UNK N   1       3.581  -6.588   1.265  0.00  0.00     0.125 C 
BRANCH  32  33
HETATM   33  C   UNK N   1       2.127  -6.532   0.907  0.00  0.00     0.259 C 
HETATM   34  O   UNK N   1       1.556  -5.451   0.897  0.00  0.00    -0.265 OA
BRANCH  33  35
HETATM   35  O   UNK N   1       1.479  -7.664   0.539  0.00  0.00    -0.326 OA
HETATM   36  C   UNK N   1       0.175  -7.653   0.104  0.00  0.00     0.213 C 
ENDBRANCH  33  35
ENDBRANCH  32  33
ENDBRANCH  30  32
ENDBRANCH  24  25
ENDBRANCH  23  24
ENDBRANCH   1  23
TORSDOF 10
