REMARK  5 active torsions:
REMARK  status: ('A' for Active; 'I' for Inactive)
REMARK    1  A    between atoms: C_7  and  C_3 
REMARK    2  A    between atoms: O_14  and  C_3 
REMARK    3  A    between atoms: N_9  and  C_5 
REMARK    4  A    between atoms: C_6  and  N_13 
REMARK    5  A    between atoms: O_15  and  C_8 
ROOT
HETATM    1  C   UNK N   1       1.100   3.132   0.057  0.00  0.00     0.065 A 
HETATM    2  C   UNK N   1       1.356   1.770  -0.080  0.00  0.00     0.101 A 
HETATM    3  C   UNK N   1       2.177   4.002   0.175  0.00  0.00     0.102 A 
HETATM    4  C   UNK N   1       3.683   2.183   0.036  0.00  0.00     0.227 A 
HETATM    5  N   UNK N   1       3.443   3.515   0.167  0.00  0.00    -0.308 N 
ATOM      6  HN  UNK N   1       4.229   4.159   0.260  1.00  0.00     0.171 HD
HETATM    7  N   UNK N   1       2.639   1.302  -0.092  0.00  0.00    -0.294 N 
ENDROOT
BRANCH   7   8
HETATM    8  C   UNK N   1       2.898  -0.133  -0.299  0.00  0.00     0.258 C 
HETATM    9  C   UNK N   1       3.541  -0.780   0.888  0.00  0.00     0.225 C 
HETATM   10  O   UNK N   1       3.219  -2.136   0.772  0.00  0.00    -0.355 OA
HETATM   11  C   UNK N   1       2.152  -2.179  -0.154  0.00  0.00     0.286 C 
HETATM   12  O   UNK N   1       1.731  -0.873  -0.470  0.00  0.00    -0.332 OA
BRANCH  11  13
HETATM   13  C   UNK N   1       0.988  -2.964   0.427  0.00  0.00     0.224 C 
BRANCH  13  14
HETATM   14  O   UNK N   1       1.345  -4.305   0.576  0.00  0.00    -0.396 OA
HETATM   15  H   UNK N   1       0.662  -4.986   0.680  0.00  0.00     0.209 HD
ENDBRANCH  13  14
ENDBRANCH  11  13
ENDBRANCH   7   8
BRANCH   4  16
HETATM   16  O   UNK N   1       4.955   1.745   0.012  0.00  0.00    -0.332 OA
HETATM   17  H   UNK N   1       5.134   0.825  -0.005  0.00  0.00     0.221 HD
ENDBRANCH   4  16
BRANCH   3  18
HETATM   18  N   UNK N   1       1.976   5.260   0.281  0.00  0.00    -0.385 N 
HETATM   19  H   UNK N   1       2.738   5.878   0.363  0.00  0.00     0.157 HD
ATOM     20  HN  UNK N   1       1.024   5.624   0.281  1.00  0.00     0.157 HD
ENDBRANCH   3  18
TORSDOF 5
