REMARK  2 active torsions:
REMARK  status: ('A' for Active; 'I' for Inactive)
REMARK       I    between atoms: N_4  and  C_19 
REMARK    1  A    between atoms: N_7  and  C_26 
REMARK    2  A    between atoms: C_12  and  C_18 
ROOT
HETATM    1  O   UNK N   1      -0.205  -2.590  -0.053  0.00  0.00    -0.323 OA
HETATM    2  O   UNK N   1       1.608  -3.852  -0.182  0.00  0.00    -0.323 OA
HETATM    3  O   UNK N   1       4.481   4.586  -0.262  0.00  0.00    -0.272 OA
HETATM    4  N   UNK N   1       4.437   2.316  -0.247  0.00  0.00    -0.256 N 
HETATM    5  N   UNK N   1       5.194   1.181   0.002  0.00  0.00    -0.294 N 
ATOM      6  HN  UNK N   1       6.186   1.363   0.154  1.00  0.00     0.187 HD
HETATM    7  C   UNK N   1       3.080   2.188  -0.764  0.00  0.00     0.111 C 
HETATM    8  C   UNK N   1       2.246   1.622   0.326  0.00  0.00     0.066 C 
HETATM    9  C   UNK N   1       2.226   0.164   0.152  0.00  0.00    -0.041 A 
HETATM   10  C   UNK N   1       3.422  -0.632   0.044  0.00  0.00     0.002 A 
HETATM   11  C   UNK N   1       4.860  -0.081   0.076  0.00  0.00     0.069 C 
HETATM   12  C   UNK N   1       2.409   3.440  -1.318  0.00  0.00     0.034 C 
HETATM   13  C   UNK N   1       0.951  -0.439   0.116  0.00  0.00     0.047 A 
HETATM   14  C   UNK N   1       3.242  -2.034  -0.066  0.00  0.00     0.054 A 
HETATM   15  C   UNK N   1       0.878  -1.816  -0.006  0.00  0.00     0.105 A 
HETATM   16  C   UNK N   1       1.965  -2.573  -0.086  0.00  0.00     0.105 A 
HETATM   17  C   UNK N   1       5.057   3.530  -0.054  0.00  0.00     0.234 C 
HETATM   18  C   UNK N   1       0.211  -3.921  -0.166  0.00  0.00     0.352 A 
HETATM   19  C   UNK N   1       6.469   3.588   0.440  0.00  0.00     0.119 C 
ENDROOT
BRANCH  11  20
HETATM   20  C   UNK N   1       6.046  -1.019   0.166  0.00  0.00    -0.007 A 
HETATM   21  C   UNK N   1       7.333  -0.474   0.350  0.00  0.00     0.016 A 
HETATM   22  C   UNK N   1       8.466  -1.291   0.381  0.00  0.00     0.030 A 
HETATM   23  C   UNK N   1       8.336  -2.670   0.214  0.00  0.00     0.025 A 
HETATM   24  C   UNK N   1       7.073  -3.232   0.033  0.00  0.00     0.030 A 
HETATM   25  C   UNK N   1       5.941  -2.413   0.013  0.00  0.00     0.016 A 
BRANCH  23  26
HETATM   26  N   UNK N   1       9.479  -3.492   0.220  0.00  0.00    -0.399 N 
HETATM   27  H   UNK N   1       9.380  -4.472   0.225  0.00  0.00     0.156 HD
HETATM   28  H   UNK N   1      10.376  -3.088   0.220  0.00  0.00     0.156 HD
ENDBRANCH  23  26
ENDBRANCH  11  20
TORSDOF 2
