REMARK  9 active torsions:
REMARK  status: ('A' for Active; 'I' for Inactive)
REMARK    1  A    between atoms: C_3  and  N_13 
REMARK    2  A    between atoms: C_5  and  C_11 
REMARK    3  A    between atoms: C_22  and  C_8 
REMARK    4  A    between atoms: C_20  and  C_9 
REMARK    5  A    between atoms: C_11  and  C_16 
REMARK    6  A    between atoms: C_30  and  N_12 
REMARK       I    between atoms: C_16  and  N_13 
REMARK    7  A    between atoms: N_34  and  C_19 
REMARK    8  A    between atoms: O_35  and  C_22 
REMARK    9  A    between atoms: O_36  and  N_25 
ROOT
HETATM    1  N   UNK N   1       0.667   1.104  -0.195  0.00  0.00    -0.293 N 
HETATM    2  C   UNK N   1       1.939   1.140  -0.416  0.00  0.00     0.251 A 
HETATM    3  C   UNK N   1       2.080  -0.278  -0.852  0.00  0.00     0.211 A 
HETATM    4  C   UNK N   1       0.515  -0.279  -0.510  0.00  0.00     0.187 A 
HETATM    5  C   UNK N   1      -0.388   1.989   0.109  0.00  0.00     0.119 C 
HETATM    6  C   UNK N   1      -1.541   1.398   0.480  0.00  0.00    -0.014 C 
HETATM    7  S   UNK N   1      -0.060  -1.043   1.014  0.00  0.00    -0.136 SA
HETATM    8  C   UNK N   1      -1.620  -0.096   0.849  0.00  0.00     0.117 C 
HETATM    9  O   UNK N   1       2.695   2.096  -0.354  0.00  0.00    -0.271 OA
ENDROOT
BRANCH   3  10
HETATM   10  N   UNK N   1       2.844  -1.172  -0.025  0.00  0.00    -0.339 N 
HETATM   11  C   UNK N   1       4.138  -0.940   0.258  0.00  0.00     0.274 C 
HETATM   12  O   UNK N   1       4.617   0.161   0.028  0.00  0.00    -0.266 OA
HETATM   13  H   UNK N   1       2.409  -1.974   0.344  0.00  0.00     0.163 HD
BRANCH  11  14
HETATM   14  C   UNK N   1       5.036  -2.064   0.647  0.00  0.00     0.166 C 
HETATM   15  N   UNK N   1       4.616  -3.282   0.785  0.00  0.00    -0.260 N 
ATOM     16  HN  UNK N   1       5.299  -4.017   0.966  1.00  0.00     0.194 HD
BRANCH  14  17
HETATM   17  C   UNK N   1       6.486  -1.806   0.653  0.00  0.00     0.148 A 
HETATM   18  N   UNK N   1       7.391  -2.801   0.310  0.00  0.00    -0.320 N 
HETATM   19  C   UNK N   1       8.646  -2.305   0.214  0.00  0.00     0.160 A 
ATOM     20  HN  UNK N   1       7.143  -3.778   0.151  1.00  0.00     0.169 HD
HETATM   21  S   UNK N   1       8.595  -0.719   0.548  0.00  0.00     0.024 SA
HETATM   22  N   UNK N   1       6.995  -0.540   0.828  0.00  0.00    -0.307 N 
ATOM     23  HN  UNK N   1       6.491   0.312   1.075  1.00  0.00     0.176 HD
BRANCH  19  24
HETATM   24  N   UNK N   1       9.763  -3.031  -0.238  0.00  0.00    -0.379 N 
HETATM   25  H   UNK N   1       9.714  -3.962  -0.555  0.00  0.00     0.158 HD
HETATM   26  H   UNK N   1      10.641  -2.584  -0.238  0.00  0.00     0.158 HD
ENDBRANCH  19  24
ENDBRANCH  14  17
BRANCH  15  27
HETATM   27  O   UNK N   1       3.342  -3.610   0.702  0.00  0.00    -0.289 OA
HETATM   28  H   UNK N   1       2.688  -2.942   0.642  0.00  0.00     0.244 HD
ENDBRANCH  15  27
ENDBRANCH  11  14
ENDBRANCH   3  10
BRANCH   5  29
HETATM   29  C   UNK N   1      -0.265   3.455  -0.166  0.00  0.00     0.194 C 
HETATM   30  O   UNK N   1       0.758   3.904  -0.655  0.00  0.00    -0.645 OA
BRANCH  29  31
HETATM   31  O   UNK N   1      -1.264   4.306   0.143  0.00  0.00    -0.772 OA
HETATM   32  H   UNK N   1      -1.099   5.203   0.358  0.00  0.00     0.167 HD
ENDBRANCH  29  31
ENDBRANCH   5  29
BRANCH   6  33
HETATM   33  C   UNK N   1      -2.823   2.082   0.365  0.00  0.00     0.023 C 
HETATM   34  C   UNK N   1      -3.721   1.526  -0.468  0.00  0.00     0.012 C 
HETATM   35  C   UNK N   1      -5.108   1.737  -0.315  0.00  0.00     0.250 C 
HETATM   36  C   UNK N   1      -3.508   0.257  -1.252  0.00  0.00     0.064 C 
HETATM   37  N   UNK N   1      -5.784   0.644  -0.701  0.00  0.00    -0.342 N 
HETATM   38  O   UNK N   1      -5.598   2.645   0.335  0.00  0.00    -0.268 OA
HETATM   39  C   UNK N   1      -4.920  -0.351  -1.304  0.00  0.00     0.131 C 
BRANCH  37  40
HETATM   40  C   UNK N   1      -7.007   0.274  -0.027  0.00  0.00     0.106 C 
HETATM   41  C   UNK N   1      -7.685  -0.944  -0.577  0.00  0.00     0.046 C 
HETATM   42  C   UNK N   1      -9.059  -0.821   0.053  0.00  0.00     0.116 C 
HETATM   43  N   UNK N   1      -9.299   0.599   0.332  0.00  0.00    -0.419 N 
HETATM   44  C   UNK N   1      -8.099   1.298  -0.107  0.00  0.00     0.139 C 
HETATM   45  H   UNK N   1     -10.135   1.012   0.747  0.00  0.00     0.153 HD
ENDBRANCH  37  40
ENDBRANCH   6  33
TORSDOF 9
