REMARK  3 active torsions:
REMARK  status: ('A' for Active; 'I' for Inactive)
REMARK    1  A    between atoms: O_1  and  C_17 
REMARK    2  A    between atoms: O_1  and  C_19 
REMARK       I    between atoms: N_5  and  C_19 
REMARK    3  A    between atoms: N_5  and  C_20 
ROOT
HETATM    1  N   UNK N   1      11.303  -1.706  -0.148  0.00  0.00     0.108 N 
HETATM    2  N   UNK N   1       9.489  -0.002  -0.551  0.00  0.00    -0.354 N 
HETATM    3  C   UNK N   1       9.011  -2.238  -0.074  0.00  0.00     0.036 C 
HETATM    4  C   UNK N   1      10.022  -1.118   0.179  0.00  0.00     0.336 C 
HETATM    5  C   UNK N   1       9.639  -3.227   0.873  0.00  0.00     0.048 C 
HETATM    6  C   UNK N   1       7.769  -1.401  -0.004  0.00  0.00    -0.017 A 
HETATM    7  C   UNK N   1      11.162  -2.995   0.574  0.00  0.00     0.276 C 
HETATM    8  C   UNK N   1       8.101  -0.119  -0.399  0.00  0.00     0.039 A 
HETATM    9  C   UNK N   1       9.076  -2.801  -1.503  0.00  0.00     0.025 C 
HETATM   10  C   UNK N   1      12.376  -0.943   0.474  0.00  0.00     0.312 C 
HETATM   11  C   UNK N   1       6.445  -1.767   0.249  0.00  0.00     0.047 A 
HETATM   12  C   UNK N   1      10.154   1.273  -0.648  0.00  0.00     0.152 C 
HETATM   13  C   UNK N   1       7.152   0.882  -0.525  0.00  0.00     0.033 A 
HETATM   14  C   UNK N   1       5.459  -0.768   0.163  0.00  0.00     0.081 A 
HETATM   15  C   UNK N   1       5.827   0.549  -0.241  0.00  0.00     0.040 A 
ENDROOT
BRANCH  14  16
HETATM   16  O   UNK N   1       4.161  -1.061   0.442  0.00  0.00    -0.261 OA
BRANCH  16  17
HETATM   17  C   UNK N   1       3.267  -0.074   0.698  0.00  0.00     0.370 C 
HETATM   18  O   UNK N   1       3.611   0.893   1.372  0.00  0.00    -0.238 OA
HETATM   19  N   UNK N   1       2.049  -0.098   0.105  0.00  0.00    -0.302 N 
HETATM   20  H   UNK N   1       1.707  -0.958  -0.231  0.00  0.00     0.171 HD
BRANCH  19  21
HETATM   21  C   UNK N   1       1.239   1.063  -0.056  0.00  0.00     0.036 A 
HETATM   22  C   UNK N   1      -0.097   0.928  -0.440  0.00  0.00     0.029 A 
HETATM   23  C   UNK N   1      -0.867   2.065  -0.716  0.00  0.00     0.002 A 
HETATM   24  C   UNK N   1      -0.296   3.339  -0.634  0.00  0.00     0.000 A 
HETATM   25  C   UNK N   1       1.042   3.483  -0.266  0.00  0.00     0.002 A 
HETATM   26  C   UNK N   1       1.805   2.352   0.015  0.00  0.00     0.029 A 
ENDBRANCH  19  21
ENDBRANCH  16  17
ENDBRANCH  14  16
TORSDOF 3
