REMARK  4 active torsions:
REMARK  status: ('A' for Active; 'I' for Inactive)
REMARK    1  A    between atoms: O_1  and  C_10 
REMARK    2  A    between atoms: O_1  and  C_14 
REMARK    3  A    between atoms: O_2  and  C_18 
REMARK       I    between atoms: N_7  and  C_13 
REMARK       I    between atoms: N_7  and  C_18 
REMARK    4  A    between atoms: C_14  and  C_16 
ROOT
HETATM    1  O   UNK N   1       9.638  -1.965  -0.122  0.00  0.00    -0.238 OA
HETATM    2  N   UNK N   1       7.202   1.368   0.086  0.00  0.00    -0.189 N 
HETATM    3  N   UNK N   1       7.197  -0.896   0.198  0.00  0.00    -0.189 N 
ATOM      4  HN  UNK N   1       7.517  -1.863   0.256  1.00  0.00     0.184 HD
HETATM    5  N   UNK N   1       9.368   0.252   0.119  0.00  0.00    -0.135 N 
HETATM    6  C   UNK N   1       5.939   0.916   0.073  0.00  0.00     0.079 A 
HETATM    7  C   UNK N   1       5.937  -0.443   0.143  0.00  0.00     0.076 A 
HETATM    8  C   UNK N   1       3.549   0.943  -0.111  0.00  0.00     0.071 A 
HETATM    9  C   UNK N   1       4.766   1.653  -0.048  0.00  0.00     0.069 A 
HETATM   10  C   UNK N   1       4.764  -1.185   0.117  0.00  0.00     0.035 A 
HETATM   11  C   UNK N   1       7.947   0.236   0.158  0.00  0.00     0.687 A 
HETATM   12  C   UNK N   1       3.555  -0.478  -0.017  0.00  0.00     0.039 A 
HETATM   13  C   UNK N   1      10.144  -0.855  -0.012  0.00  0.00     0.378 C 
HETATM   14  H   UNK N   1       7.514   2.301   0.053  0.00  0.00     0.184 HD
HETATM   15  H   UNK N   1       9.819   1.124   0.194  0.00  0.00     0.189 HD
ENDROOT
BRANCH  13  16
HETATM   16  O   UNK N   1      11.491  -0.712  -0.048  0.00  0.00    -0.308 OA
HETATM   17  C   UNK N   1      12.342  -1.781  -0.213  0.00  0.00     0.215 C 
ENDBRANCH  13  16
BRANCH   8  18
HETATM   18  O   UNK N   1       2.398   1.630  -0.303  0.00  0.00    -0.351 OA
BRANCH  18  19
HETATM   19  C   UNK N   1       1.215   1.011  -0.643  0.00  0.00     0.175 C 
BRANCH  19  20
HETATM   20  C   UNK N   1       0.168   1.268   0.415  0.00  0.00     0.022 C 
HETATM   21  C   UNK N   1      -0.426  -0.055   0.847  0.00  0.00     0.007 C 
ENDBRANCH  19  20
ENDBRANCH  18  19
ENDBRANCH   8  18
TORSDOF 4
