REMARK  5 active torsions:
REMARK  status: ('A' for Active; 'I' for Inactive)
REMARK    1  A    between atoms: C_9  and  N_5 
REMARK    2  A    between atoms: C_9  and  C_10 
REMARK    3  A    between atoms: C_9  and  C_11 
REMARK    4  A    between atoms: C_9  and  C_12 
REMARK    5  A    between atoms: C_17  and  C_25 
ROOT
HETATM    1  O   UNK N   1      10.216   1.907  -0.445  0.00  0.00    -0.268 OA
HETATM    2  N   UNK N   1       7.990   2.237  -0.342  0.00  0.00    -0.318 N 
HETATM    3  C   UNK N   1       4.127   0.664   0.213  0.00  0.00    -0.019 A 
HETATM    4  C   UNK N   1       6.555   0.299  -0.018  0.00  0.00     0.003 A 
HETATM    5  C   UNK N   1       5.243  -0.202   0.200  0.00  0.00     0.025 A 
HETATM    6  C   UNK N   1       6.737   1.703  -0.188  0.00  0.00     0.048 A 
HETATM    7  C   UNK N   1       4.362   2.036   0.013  0.00  0.00     0.013 A 
HETATM    8  C   UNK N   1       7.706  -0.541  -0.032  0.00  0.00    -0.008 A 
HETATM    9  C   UNK N   1       5.627   2.543  -0.187  0.00  0.00     0.031 A 
HETATM   10  C   UNK N   1       8.964   0.059  -0.170  0.00  0.00     0.087 A 
HETATM   11  C   UNK N   1       9.101   1.430  -0.323  0.00  0.00     0.248 A 
HETATM   12  C   UNK N   1       8.165   3.682  -0.511  0.00  0.00     0.159 C 
ENDROOT
BRANCH   3  13
HETATM   13  C   UNK N   1       2.696   0.222   0.603  0.00  0.00     0.124 C 
BRANCH  13  14
HETATM   14  N   UNK N   1       2.670   0.069   2.053  0.00  0.00    -0.409 N 
HETATM   15  H   UNK N   1       2.569   0.032   3.068  0.00  0.00     0.151 HD
HETATM   16  H   UNK N   1       3.455  -0.582   2.053  0.00  0.00     0.151 HD
ENDBRANCH  13  14
BRANCH  13  17
HETATM   17  C   UNK N   1       2.235  -1.110   0.008  0.00  0.00     0.065 A 
HETATM   18  N   UNK N   1       2.728  -2.322   0.329  0.00  0.00    -0.347 N 
HETATM   19  C   UNK N   1       2.000  -3.227  -0.347  0.00  0.00     0.182 A 
HETATM   20  C   UNK N   1       3.773  -2.645   1.284  0.00  0.00     0.157 C 
HETATM   21  N   UNK N   1       1.052  -2.625  -1.095  0.00  0.00    -0.360 N 
HETATM   22  C   UNK N   1       1.183  -1.300  -0.872  0.00  0.00     0.117 A 
ATOM     23  HN  UNK N   1       0.373  -3.080  -1.706  1.00  0.00     0.166 HD
ENDBRANCH  13  17
BRANCH  13  24
HETATM   24  C   UNK N   1       1.740   1.355   0.196  0.00  0.00    -0.020 A 
HETATM   25  C   UNK N   1       1.606   1.696  -1.165  0.00  0.00     0.012 A 
HETATM   26  C   UNK N   1       0.886   2.828  -1.547  0.00  0.00     0.024 A 
HETATM   27  C   UNK N   1       0.299   3.641  -0.577  0.00  0.00     0.034 A 
HETATM   28 Cl   UNK N   1      -0.541   5.098  -1.057  0.00  0.00    -0.084 Cl
HETATM   29  C   UNK N   1       0.404   3.304   0.776  0.00  0.00     0.024 A 
HETATM   30  C   UNK N   1       1.121   2.168   1.162  0.00  0.00     0.012 A 
ENDBRANCH  13  24
ENDBRANCH   3  13
BRANCH   8  31
HETATM   31  C   UNK N   1       7.678  -2.033   0.055  0.00  0.00    -0.023 A 
HETATM   32  C   UNK N   1       6.522  -2.773  -0.234  0.00  0.00     0.036 A 
HETATM   33  C   UNK N   1       6.554  -4.173  -0.230  0.00  0.00     0.034 A 
HETATM   34 Cl   UNK N   1       5.124  -5.087  -0.656  0.00  0.00    -0.084 Cl
HETATM   35  C   UNK N   1       7.737  -4.846   0.076  0.00  0.00     0.024 A 
HETATM   36  C   UNK N   1       8.893  -4.125   0.369  0.00  0.00     0.003 A 
HETATM   37  C   UNK N   1       8.868  -2.730   0.340  0.00  0.00     0.012 A 
ENDBRANCH   8  31
TORSDOF 5
