REMARK  8 active torsions:
REMARK  status: ('A' for Active; 'I' for Inactive)
REMARK    1  A    between atoms: N_5  and  C_6 
REMARK    2  A    between atoms: C_6  and  C_7 
REMARK    3  A    between atoms: C_7  and  C_8 
REMARK    4  A    between atoms: C_8  and  O_9 
REMARK    5  A    between atoms: O_9  and  C_10 
REMARK    6  A    between atoms: C_13  and  O_22 
REMARK    7  A    between atoms: C_21  and  O_24 
REMARK    8  A    between atoms: O_24  and  C_25 
ROOT
HETATM    1  C   UNK N   1      -1.508  -2.225   0.453  0.00  0.00     0.104 A 
HETATM    2  C   UNK N   1       0.876  -0.753   0.498  0.00  0.00     0.045 A 
HETATM    3  C   UNK N   1      -0.350  -0.091   0.388  0.00  0.00     0.057 A 
HETATM    4  C   UNK N   1      -1.552  -0.823   0.387  0.00  0.00     0.102 A 
HETATM    5  C   UNK N   1      -0.280  -2.887   0.572  0.00  0.00     0.070 A 
HETATM    6  C   UNK N   1       0.907  -2.159   0.618  0.00  0.00     0.050 A 
HETATM    7  N   UNK N   1       2.089  -2.804   0.769  0.00  0.00    -0.351 N 
ATOM      8  HN  UNK N   1       2.102  -3.821   0.846  1.00  0.00     0.166 HD
HETATM    9  C   UNK N   1       3.254  -2.112   0.817  0.00  0.00     0.182 A 
HETATM   10  N   UNK N   1       3.248  -0.761   0.682  0.00  0.00    -0.332 N 
ATOM     11  HN  UNK N   1       4.133  -0.256   0.720  1.00  0.00     0.168 HD
HETATM   12  C   UNK N   1       2.094  -0.062   0.497  0.00  0.00     0.161 A 
ENDROOT
BRANCH  12  13
HETATM   13  O   UNK N   1       2.121   1.294   0.339  0.00  0.00    -0.290 OA
BRANCH  13  14
HETATM   14  C   UNK N   1       3.261   2.019   0.169  0.00  0.00     0.117 A 
HETATM   15  C   UNK N   1       3.367   3.269   0.824  0.00  0.00     0.043 A 
HETATM   16  C   UNK N   1       4.563   4.009   0.778  0.00  0.00     0.033 A 
HETATM   17  C   UNK N   1       5.633   3.469   0.071  0.00  0.00     0.045 A 
HETATM   18  C   UNK N   1       5.530   2.288  -0.604  0.00  0.00     0.034 A 
HETATM   19  N   UNK N   1       6.869   3.979  -0.040  0.00  0.00    -0.359 N 
HETATM   20  C   UNK N   1       4.359   1.544  -0.606  0.00  0.00     0.162 A 
HETATM   21  C   UNK N   1       6.748   2.022  -1.185  0.00  0.00     0.041 A 
HETATM   22  F   UNK N   1       4.302   0.388  -1.315  0.00  0.00    -0.202 F 
HETATM   23  C   UNK N   1       7.550   3.090  -0.802  0.00  0.00     0.006 A 
HETATM   24  C   UNK N   1       8.990   3.233  -1.142  0.00  0.00     0.068 C 
HETATM   25  H   UNK N   1       7.208   4.817   0.349  0.00  0.00     0.166 HD
ENDBRANCH  13  14
ENDBRANCH  12  13
BRANCH   4  26
HETATM   26  O   UNK N   1      -2.754  -0.206   0.299  0.00  0.00    -0.353 OA
HETATM   27  C   UNK N   1      -2.903   1.161   0.245  0.00  0.00     0.210 C 
ENDBRANCH   4  26
BRANCH   1  28
HETATM   28  O   UNK N   1      -2.656  -2.927   0.391  0.00  0.00    -0.348 OA
BRANCH  28  29
HETATM   29  C   UNK N   1      -2.851  -3.875  -0.589  0.00  0.00     0.177 C 
BRANCH  29  30
HETATM   30  C   UNK N   1      -4.141  -3.584  -1.361  0.00  0.00     0.057 C 
BRANCH  30  31
HETATM   31  C   UNK N   1      -4.502  -2.093  -1.345  0.00  0.00     0.274 C 
BRANCH  31  32
HETATM   32  N   UNK N   1      -5.927  -1.874  -1.110  0.00  0.00     0.088 N 
HETATM   33  C   UNK N   1      -6.105  -0.451  -0.855  0.00  0.00     0.272 C 
HETATM   34  C   UNK N   1      -7.199  -0.300   0.188  0.00  0.00     0.032 C 
HETATM   35  C   UNK N   1      -7.472  -1.697   0.690  0.00  0.00     0.032 C 
HETATM   36  C   UNK N   1      -6.338  -2.518   0.131  0.00  0.00     0.272 C 
ENDBRANCH  31  32
ENDBRANCH  30  31
ENDBRANCH  29  30
ENDBRANCH  28  29
ENDBRANCH   1  28
TORSDOF 8
