REMARK  7 active torsions:
REMARK  status: ('A' for Active; 'I' for Inactive)
REMARK    1  A    between atoms: C_5  and  O_21 
REMARK    2  A    between atoms: C_9  and  O_20 
REMARK    3  A    between atoms: C_10  and  C_13 
REMARK       I    between atoms: C_13  and  N_15 
REMARK    4  A    between atoms: N_15  and  C_16 
REMARK    5  A    between atoms: C_16  and  C_17 
REMARK    6  A    between atoms: C_17  and  O_19 
REMARK    7  A    between atoms: O_21  and  C_22 
ROOT
HETATM    1  C   UNK N   1       1.557  -5.514   0.001  0.00  0.00     0.069 C 
HETATM    2  C   UNK N   1       1.413  -4.028   0.001  0.00  0.00     0.017 A 
HETATM    3  C   UNK N   1       0.144  -3.418  -0.000  0.00  0.00     0.002 A 
HETATM    4  C   UNK N   1      -1.051  -4.169   0.000  0.00  0.00     0.051 A 
HETATM    5  C   UNK N   1      -2.300  -3.522  -0.000  0.00  0.00     0.077 A 
HETATM    6  C   UNK N   1      -2.333  -2.121  -0.001  0.00  0.00     0.038 A 
HETATM    7  C   UNK N   1      -1.165  -1.375  -0.001  0.00  0.00     0.018 A 
HETATM    8  C   UNK N   1       0.075  -2.010  -0.001  0.00  0.00     0.012 A 
HETATM    9  C   UNK N   1       1.243  -1.246  -0.001  0.00  0.00     0.109 A 
HETATM   10  C   UNK N   1       2.498  -1.889  -0.000  0.00  0.00     0.135 A 
HETATM   11  N   UNK N   1       2.537  -3.256   0.001  0.00  0.00    -0.352 N 
ATOM     12  HN  UNK N   1       3.446  -3.718   0.001  1.00  0.00     0.166 HD
ENDROOT
BRANCH  10  13
HETATM   13  C   UNK N   1       3.770  -1.084   0.000  0.00  0.00     0.271 C 
HETATM   14  O   UNK N   1       3.699   0.136  -0.000  0.00  0.00    -0.266 OA
HETATM   15  N   UNK N   1       5.008  -1.640   0.000  0.00  0.00    -0.346 N 
HETATM   16  H   UNK N   1       5.777  -1.025   0.000  0.00  0.00     0.163 HD
BRANCH  15  17
HETATM   17  C   UNK N   1       5.294  -3.053   0.000  0.00  0.00     0.232 C 
BRANCH  17  18
HETATM   18  C   UNK N   1       6.775  -3.289   0.000  0.00  0.00     0.158 C 
HETATM   19  O   UNK N   1       7.560  -2.352   0.000  0.00  0.00    -0.649 OA
BRANCH  18  20
HETATM   20  O   UNK N   1       7.245  -4.549   0.000  0.00  0.00    -0.775 OA
HETATM   21  H   UNK N   1       6.648  -5.271  -0.000  0.00  0.00     0.167 HD
ENDBRANCH  18  20
ENDBRANCH  17  18
ENDBRANCH  15  17
ENDBRANCH  10  13
BRANCH   9  22
HETATM   22  O   UNK N   1       1.152   0.099  -0.001  0.00  0.00    -0.357 OA
HETATM   23  H   UNK N   1       1.930   0.621  -0.002  0.00  0.00     0.217 HD
ENDBRANCH   9  22
BRANCH   5  24
HETATM   24  O   UNK N   1      -3.445  -4.265  -0.000  0.00  0.00    -0.311 OA
BRANCH  24  25
HETATM   25  C   UNK N   1      -4.739  -3.819   0.000  0.00  0.00     0.076 A 
HETATM   26  C   UNK N   1      -5.778  -4.758  -0.001  0.00  0.00     0.037 A 
HETATM   27  C   UNK N   1      -7.114  -4.340  -0.001  0.00  0.00     0.003 A 
HETATM   28  C   UNK N   1      -7.425  -2.977   0.001  0.00  0.00     0.000 A 
HETATM   29  C   UNK N   1      -6.401  -2.031   0.002  0.00  0.00     0.003 A 
HETATM   30  C   UNK N   1      -5.071  -2.449   0.002  0.00  0.00     0.037 A 
ENDBRANCH  24  25
ENDBRANCH   5  24
TORSDOF 7
