REMARK  10 active torsions:
REMARK  status: ('A' for Active; 'I' for Inactive)
REMARK    1  A    between atoms: O_1  and  C_11 
REMARK    2  A    between atoms: C_12  and  O_2 
REMARK    3  A    between atoms: O_2  and  C_27 
REMARK    4  A    between atoms: O_3  and  C_19 
REMARK    5  A    between atoms: O_5  and  C_28 
REMARK    6  A    between atoms: O_6  and  C_29 
REMARK    7  A    between atoms: C_11  and  C_12 
REMARK    8  A    between atoms: C_11  and  C_13 
REMARK    9  A    between atoms: C_11  and  C_14 
REMARK   10  A    between atoms: C_12  and  C_19 
ROOT
HETATM    1  C   UNK N   1       4.244   0.456  -0.834  0.00  0.00     0.273 C 
ENDROOT
BRANCH   1   2
HETATM    2  O   UNK N   1       5.526   0.127  -1.242  0.00  0.00    -0.302 OA
BRANCH   2   3
HETATM    3  C   UNK N   1       6.716   0.524  -0.740  0.00  0.00     0.228 A 
HETATM    4  N   UNK N   1       6.945   1.812  -0.364  0.00  0.00    -0.302 N 
HETATM    5  C   UNK N   1       8.169   2.197   0.100  0.00  0.00     0.148 A 
ATOM      6  HN  UNK N   1       6.193   2.498  -0.430  1.00  0.00     0.171 HD
HETATM    7  C   UNK N   1       9.191   1.256   0.219  0.00  0.00     0.112 A 
HETATM    8  C   UNK N   1       8.939  -0.066  -0.167  0.00  0.00     0.148 A 
HETATM    9  N   UNK N   1       7.718  -0.390  -0.652  0.00  0.00    -0.302 N 
ATOM     10  HN  UNK N   1       7.545  -1.346  -0.961  1.00  0.00     0.171 HD
BRANCH   5  11
HETATM   11  O   UNK N   1       8.417   3.483   0.434  0.00  0.00    -0.341 OA
HETATM   12  C   UNK N   1       7.486   4.481   0.269  0.00  0.00     0.211 C 
ENDBRANCH   5  11
BRANCH   8  13
HETATM   13  O   UNK N   1       9.883  -1.032  -0.066  0.00  0.00    -0.341 OA
HETATM   14  C   UNK N   1      11.140  -0.812   0.447  0.00  0.00     0.211 C 
ENDBRANCH   8  13
ENDBRANCH   2   3
ENDBRANCH   1   2
BRANCH   1  15
HETATM   15  C   UNK N   1       3.595  -0.505   0.250  0.00  0.00     0.151 C 
BRANCH  15  16
HETATM   16  O   UNK N   1       3.694   0.069   1.555  0.00  0.00    -0.372 OA
HETATM   17  C   UNK N   1       2.781   1.118   1.768  0.00  0.00     0.203 C 
ENDBRANCH  15  16
BRANCH  15  18
HETATM   18  C   UNK N   1       2.175  -0.881  -0.219  0.00  0.00    -0.016 A 
HETATM   19  C   UNK N   1       1.041  -0.767   0.605  0.00  0.00     0.011 A 
HETATM   20  C   UNK N   1      -0.209  -1.215   0.162  0.00  0.00     0.001 A 
HETATM   21  C   UNK N   1      -0.341  -1.792  -1.103  0.00  0.00     0.000 A 
HETATM   22  C   UNK N   1       0.775  -1.917  -1.931  0.00  0.00     0.001 A 
HETATM   23  C   UNK N   1       2.022  -1.471  -1.490  0.00  0.00     0.011 A 
ENDBRANCH  15  18
BRANCH  15  24
HETATM   24  C   UNK N   1       4.268  -1.885   0.386  0.00  0.00    -0.016 A 
HETATM   25  C   UNK N   1       3.806  -2.758   1.392  0.00  0.00     0.011 A 
HETATM   26  C   UNK N   1       4.371  -4.024   1.560  0.00  0.00     0.001 A 
HETATM   27  C   UNK N   1       5.404  -4.444   0.722  0.00  0.00     0.000 A 
HETATM   28  C   UNK N   1       5.868  -3.600  -0.286  0.00  0.00     0.001 A 
HETATM   29  C   UNK N   1       5.302  -2.335  -0.452  0.00  0.00     0.011 A 
ENDBRANCH  15  24
ENDBRANCH   1  15
BRANCH   1  30
HETATM   30  C   UNK N   1       3.928   1.933  -0.814  0.00  0.00     0.174 C 
HETATM   31  O   UNK N   1       3.198   2.407  -1.667  0.00  0.00    -0.648 OA
BRANCH  30  32
HETATM   32  O   UNK N   1       4.441   2.735   0.141  0.00  0.00    -0.774 OA
HETATM   33  H   UNK N   1       5.102   2.705   0.804  0.00  0.00     0.167 HD
ENDBRANCH  30  32
ENDBRANCH   1  30
TORSDOF 10
