REMARK  7 active torsions:
REMARK  status: ('A' for Active; 'I' for Inactive)
REMARK    1  A    between atoms: C_15  and  O_2 
REMARK    2  A    between atoms: C_16  and  O_3 
REMARK    3  A    between atoms: O_5  and  C_18 
REMARK    4  A    between atoms: C_14  and  N_6 
REMARK    5  A    between atoms: C_19  and  N_7 
REMARK    6  A    between atoms: N_7  and  C_25 
REMARK    7  A    between atoms: C_17  and  C_18 
ROOT
HETATM    1  N   UNK N   1       5.904   0.509  -0.109  0.00  0.00    -0.297 N 
HETATM    2  N   UNK N   1       5.986  -1.681   0.425  0.00  0.00    -0.346 N 
ATOM      3  HN  UNK N   1       6.327  -2.595   0.725  1.00  0.00     0.167 HD
HETATM    4  N   UNK N   1       3.580   0.576  -0.723  0.00  0.00    -0.336 N 
ATOM      5  HN  UNK N   1       3.589   1.568  -0.960  1.00  0.00     0.168 HD
HETATM    6  N   UNK N   1       2.450  -1.490  -0.545  0.00  0.00    -0.337 N 
ATOM      7  HN  UNK N   1       1.590  -2.029  -0.655  1.00  0.00     0.168 HD
HETATM    8  C   UNK N   1       4.698  -0.040  -0.283  0.00  0.00     0.142 A 
HETATM    9  C   UNK N   1       4.738  -1.352   0.035  0.00  0.00     0.122 A 
HETATM   10  C   UNK N   1       6.692  -0.511   0.327  0.00  0.00     0.188 A 
HETATM   11  C   UNK N   1       3.579  -2.123  -0.102  0.00  0.00     0.133 A 
HETATM   12  C   UNK N   1       2.440  -0.158  -0.844  0.00  0.00     0.183 A 
ENDROOT
BRANCH   1  13
HETATM   13  C   UNK N   1       6.259   1.907  -0.400  0.00  0.00     0.262 C 
HETATM   14  O   UNK N   1       7.617   2.194  -0.132  0.00  0.00    -0.353 OA
HETATM   15  C   UNK N   1       7.625   3.534   0.336  0.00  0.00     0.179 C 
HETATM   16  C   UNK N   1       6.247   4.101   0.121  0.00  0.00     0.182 C 
HETATM   17  C   UNK N   1       5.433   2.901   0.393  0.00  0.00     0.198 C 
BRANCH  15  18
HETATM   18  C   UNK N   1       8.629   4.385  -0.422  0.00  0.00     0.198 C 
BRANCH  18  19
HETATM   19  O   UNK N   1       9.926   4.020  -0.068  0.00  0.00    -0.398 OA
HETATM   20  H   UNK N   1      10.157   3.111   0.178  0.00  0.00     0.209 HD
ENDBRANCH  18  19
ENDBRANCH  15  18
BRANCH  16  21
HETATM   21  O   UNK N   1       5.958   5.133   1.014  0.00  0.00    -0.390 OA
HETATM   22  H   UNK N   1       6.479   5.666   1.635  0.00  0.00     0.210 HD
ENDBRANCH  16  21
BRANCH  17  23
HETATM   23  O   UNK N   1       4.156   3.077  -0.135  0.00  0.00    -0.388 OA
HETATM   24  H   UNK N   1       3.817   3.909  -0.502  0.00  0.00     0.210 HD
ENDBRANCH  17  23
ENDBRANCH   1  13
BRANCH  11  25
HETATM   25  N   UNK N   1       3.544  -3.516   0.169  0.00  0.00    -0.368 N 
HETATM   26  H   UNK N   1       4.291  -3.949   0.642  0.00  0.00     0.161 HD
BRANCH  25  27
HETATM   27  C   UNK N   1       2.397  -4.296  -0.257  0.00  0.00     0.109 C 
HETATM   28  C   UNK N   1       2.453  -5.716   0.179  0.00  0.00     0.053 C 
HETATM   29  C   UNK N   1       0.974  -6.079   0.203  0.00  0.00     0.169 C 
HETATM   30  O   UNK N   1       0.200  -4.899   0.184  0.00  0.00    -0.389 OA
HETATM   31  C   UNK N   1       1.111  -3.857   0.388  0.00  0.00     0.192 C 
ENDBRANCH  25  27
ENDBRANCH  11  25
TORSDOF 7
