REMARK  7 active torsions:
REMARK  status: ('A' for Active; 'I' for Inactive)
REMARK    1  A    between atoms: O_1  and  C_2 
REMARK    2  A    between atoms: C_2  and  C_3 
REMARK    3  A    between atoms: C_3  and  C_5 
REMARK    4  A    between atoms: C_5  and  O_6 
REMARK    5  A    between atoms: O_6  and  P_7 
REMARK    6  A    between atoms: P_7  and  O_8 
REMARK    7  A    between atoms: P_7  and  O_9 
ROOT
HETATM    1  O   UNK N   1       4.846  -1.674   0.309  0.00  0.00    -0.290 OA
ENDROOT
BRANCH   1   2
HETATM    2  C   UNK N   1       3.706  -1.020  -0.181  0.00  0.00     0.261 C 
BRANCH   2   3
HETATM    3  C   UNK N   1       2.473  -1.851  -0.021  0.00  0.00     0.174 C 
HETATM    4  O   UNK N   1       2.552  -3.024   0.322  0.00  0.00    -0.293 OA
BRANCH   3   5
HETATM    5  C   UNK N   1       1.139  -1.215  -0.264  0.00  0.00     0.244 C 
BRANCH   5   6
HETATM    6  O   UNK N   1       0.096  -2.106  -0.004  0.00  0.00    -0.394 OA
HETATM    7  H   UNK N   1      -0.802  -1.787   0.176  0.00  0.00     0.209 HD
ENDBRANCH   5   6
ENDBRANCH   3   5
ENDBRANCH   2   3
ENDBRANCH   1   2
BRANCH   1   8
HETATM    8  P   UNK N   1       6.179  -1.051  -0.624  0.00  0.00     0.391 P 
HETATM    9  O   UNK N   1       6.179  -0.052   0.568  0.00  0.00    -0.632 OA
BRANCH   8  10
HETATM   10  O   UNK N   1       7.816  -1.131  -0.052  0.00  0.00    -0.307 OA
HETATM   11  H   UNK N   1       8.235  -1.946   0.267  0.00  0.00     0.222 HD
ENDBRANCH   8  10
BRANCH   8  12
HETATM   12  O   UNK N   1       6.562  -2.631  -0.015  0.00  0.00    -0.307 OA
HETATM   13  H   UNK N   1       5.904  -3.258   0.325  0.00  0.00     0.222 HD
ENDBRANCH   8  12
ENDBRANCH   1   8
TORSDOF 7
