REMARK  9 active torsions:
REMARK  status: ('A' for Active; 'I' for Inactive)
REMARK    1  A    between atoms: O_1  and  C_9 
REMARK    2  A    between atoms: O_1  and  C_11 
REMARK    3  A    between atoms: O_2  and  C_22 
REMARK    4  A    between atoms: O_3  and  C_23 
REMARK    5  A    between atoms: N_5  and  C_7 
REMARK    6  A    between atoms: N_6  and  C_10 
REMARK       I    between atoms: N_6  and  C_17 
REMARK    7  A    between atoms: C_7  and  C_9 
REMARK    8  A    between atoms: C_8  and  C_10 
REMARK    9  A    between atoms: C_16  and  C_17 
ROOT
HETATM    1  O   UNK N   1       1.190  -0.061   0.570  0.00  0.00    -0.268 OA
HETATM    2  N   UNK N   1       3.209   0.513  -0.165  0.00  0.00    -0.353 N 
HETATM    3  C   UNK N   1       2.290  -0.432   0.197  0.00  0.00     0.252 C 
HETATM    4  H   UNK N   1       3.020   1.459   0.032  0.00  0.00     0.163 HD
ENDROOT
BRANCH   2   5
HETATM    5  C   UNK N   1       4.445   0.174  -0.826  0.00  0.00     0.161 C 
BRANCH   5   6
HETATM    6  C   UNK N   1       5.631   0.947  -0.374  0.00  0.00    -0.040 A 
HETATM    7  C   UNK N   1       5.776   2.287  -0.743  0.00  0.00     0.011 A 
HETATM    8  C   UNK N   1       6.991   2.940  -0.523  0.00  0.00     0.037 A 
HETATM    9  C   UNK N   1       8.072   2.254   0.064  0.00  0.00     0.068 A 
HETATM   10  C   UNK N   1       7.903   0.927   0.470  0.00  0.00     0.037 A 
HETATM   11  C   UNK N   1       6.692   0.270   0.235  0.00  0.00     0.011 A 
BRANCH   9  12
HETATM   12  O   UNK N   1       9.286   2.838   0.203  0.00  0.00    -0.349 OA
BRANCH  12  13
HETATM   13  C   UNK N   1       9.627   3.981  -0.484  0.00  0.00     0.206 C 
BRANCH  13  14
HETATM   14  C   UNK N   1       9.874   5.124   0.476  0.00  0.00     0.297 C 
BRANCH  14  15
HETATM   15  N   UNK N   1       9.467   6.369  -0.152  0.00  0.00     0.082 N 
HETATM   16  C   UNK N   1       8.059   6.567   0.148  0.00  0.00     0.309 C 
HETATM   17  C   UNK N   1      10.194   7.440   0.502  0.00  0.00     0.309 C 
ENDBRANCH  14  15
ENDBRANCH  13  14
ENDBRANCH  12  13
ENDBRANCH   9  12
ENDBRANCH   5   6
ENDBRANCH   2   5
BRANCH   3  18
HETATM   18  C   UNK N   1       2.569  -1.905   0.118  0.00  0.00     0.034 A 
HETATM   19  C   UNK N   1       1.512  -2.826   0.177  0.00  0.00     0.056 A 
HETATM   20  C   UNK N   1       1.743  -4.209   0.106  0.00  0.00     0.102 A 
HETATM   21  C   UNK N   1       3.080  -4.684   0.007  0.00  0.00     0.101 A 
HETATM   22  C   UNK N   1       4.131  -3.758  -0.038  0.00  0.00     0.040 A 
HETATM   23  C   UNK N   1       3.875  -2.394   0.010  0.00  0.00     0.020 A 
BRANCH  20  24
HETATM   24  O   UNK N   1       0.659  -5.030   0.135  0.00  0.00    -0.353 OA
HETATM   25  C   UNK N   1       0.692  -6.401   0.018  0.00  0.00     0.210 C 
ENDBRANCH  20  24
BRANCH  21  26
HETATM   26  O   UNK N   1       3.344  -6.014  -0.039  0.00  0.00    -0.353 OA
HETATM   27  C   UNK N   1       4.620  -6.533  -0.091  0.00  0.00     0.210 C 
ENDBRANCH  21  26
ENDBRANCH   3  18
TORSDOF 9
