REMARK  4 active torsions:
REMARK  status: ('A' for Active; 'I' for Inactive)
REMARK    1  A    between atoms: N_2  and  C_13 
REMARK    2  A    between atoms: N_2  and  C_19 
REMARK    3  A    between atoms: C_11  and  C_12 
REMARK    4  A    between atoms: C_12  and  C_15 
ROOT
HETATM    1  N   UNK N   1       3.906   0.829   0.103  0.00  0.00    -0.302 N 
ATOM      2  HN  UNK N   1       3.041   1.370   0.108  1.00  0.00     0.186 HD
HETATM    3  N   UNK N   1       3.833  -0.497   0.082  0.00  0.00    -0.285 N 
ATOM      4  HN  UNK N   1       2.915  -0.940   0.076  1.00  0.00     0.188 HD
HETATM    5  C   UNK N   1       6.283   0.743   0.100  0.00  0.00     0.002 A 
HETATM    6  C   UNK N   1       6.204  -0.671   0.075  0.00  0.00     0.021 A 
HETATM    7  C   UNK N   1       5.093   1.489   0.117  0.00  0.00     0.041 A 
HETATM    8  C   UNK N   1       4.939  -1.282   0.068  0.00  0.00     0.131 A 
HETATM    9  C   UNK N   1       7.539   1.366   0.108  0.00  0.00     0.014 A 
HETATM   10  C   UNK N   1       7.381  -1.432   0.060  0.00  0.00     0.016 A 
HETATM   11  C   UNK N   1       8.706   0.597   0.091  0.00  0.00     0.001 A 
HETATM   12  C   UNK N   1       8.627  -0.799   0.067  0.00  0.00     0.001 A 
ENDROOT
BRANCH   8  13
HETATM   13  N   UNK N   1       4.807  -2.703   0.056  0.00  0.00    -0.341 N 
HETATM   14  H   UNK N   1       5.631  -3.240   0.092  0.00  0.00     0.167 HD
BRANCH  13  15
HETATM   15  C   UNK N   1       3.561  -3.401  -0.004  0.00  0.00     0.033 A 
HETATM   16  C   UNK N   1       3.552  -4.797   0.102  0.00  0.00     0.031 A 
HETATM   17  C   UNK N   1       2.341  -5.501   0.050  0.00  0.00     0.026 A 
HETATM   18  C   UNK N   1       1.134  -4.813  -0.112  0.00  0.00     0.034 A 
HETATM   19 Cl   UNK N   1      -0.381  -5.686  -0.177  0.00  0.00    -0.084 Cl
HETATM   20  C   UNK N   1       1.135  -3.424  -0.223  0.00  0.00     0.026 A 
HETATM   21  C   UNK N   1       2.340  -2.725  -0.169  0.00  0.00     0.031 A 
ENDBRANCH  13  15
ENDBRANCH   8  13
BRANCH   7  22
HETATM   22  C   UNK N   1       5.095   3.000   0.150  0.00  0.00     0.098 C 
BRANCH  22  23
HETATM   23  C   UNK N   1       3.700   3.555   0.196  0.00  0.00    -0.050 A 
HETATM   24  C   UNK N   1       2.879   3.317   1.305  0.00  0.00     0.024 A 
HETATM   25  C   UNK N   1       1.562   3.779   1.295  0.00  0.00     0.088 A 
HETATM   26  N   UNK N   1       1.084   4.454   0.215  0.00  0.00    -0.375 N 
HETATM   27  C   UNK N   1       1.868   4.704  -0.869  0.00  0.00     0.088 A 
ATOM     28  HN  UNK N   1       0.118   4.781   0.219  1.00  0.00     0.164 HD
HETATM   29  C   UNK N   1       3.191   4.255  -0.899  0.00  0.00     0.024 A 
ENDBRANCH  22  23
ENDBRANCH   7  22
TORSDOF 4
