REMARK  4 active torsions:
REMARK  status: ('A' for Active; 'I' for Inactive)
REMARK    1  A    between atoms: C_11  and  C_17 
REMARK    2  A    between atoms: C_12  and  C_16 
REMARK    3  A    between atoms: C_13  and  O_27 
REMARK    4  A    between atoms: C_18  and  O_26 
ROOT
HETATM    1  O   UNK N   1       1.314   3.083   1.133  0.00  0.00    -0.369 OA
HETATM    2  C   UNK N   1       1.156   3.508  -0.190  0.00  0.00     0.084 A 
HETATM    3  C   UNK N   1       0.802   2.120   0.236  0.00  0.00     0.159 A 
HETATM    4  C   UNK N   1       4.327  -2.226  -0.376  0.00  0.00     0.143 C 
HETATM    5  C   UNK N   1       2.809  -2.256  -0.587  0.00  0.00     0.040 C 
HETATM    6  C   UNK N   1       4.984  -1.437   0.754  0.00  0.00     0.081 C 
HETATM    7  N   UNK N   1      -0.130  -0.633   0.492  0.00  0.00    -0.353 N 
HETATM    8  C   UNK N   1      -0.439  -1.947   0.341  0.00  0.00     0.220 C 
HETATM    9  C   UNK N   1      -1.086   0.433   0.229  0.00  0.00     0.115 C 
HETATM   10  C   UNK N   1       2.074  -2.645   0.728  0.00  0.00     0.142 C 
HETATM   11  C   UNK N   1      -0.590   1.788   0.727  0.00  0.00     0.064 C 
HETATM   12  C   UNK N   1       0.590  -3.026   0.548  0.00  0.00     0.135 C 
HETATM   13  C   UNK N   1       5.172   0.065   0.494  0.00  0.00     0.132 C 
HETATM   14  O   UNK N   1       5.037  -2.936  -1.079  0.00  0.00    -0.297 OA
HETATM   15  O   UNK N   1      -1.574  -2.280   0.041  0.00  0.00    -0.274 OA
HETATM   16  C   UNK N   1       3.930   0.890   0.811  0.00  0.00     0.011 C 
HETATM   17  C   UNK N   1       2.527   3.839  -0.806  0.00  0.00     0.040 C 
HETATM   18  C   UNK N   1       0.067   4.564  -0.266  0.00  0.00     0.049 C 
HETATM   19  C   UNK N   1       2.348  -0.904  -1.082  0.00  0.00     0.026 C 
HETATM   20  C   UNK N   1       2.463  -3.263  -1.688  0.00  0.00     0.026 C 
HETATM   21  C   UNK N   1       6.336  -2.031   1.126  0.00  0.00     0.020 C 
HETATM   22  C   UNK N   1       3.526   2.679  -0.878  0.00  0.00     0.004 C 
HETATM   23  C   UNK N   1       4.118   2.368   0.491  0.00  0.00     0.007 C 
HETATM   24  C   UNK N   1       3.572   0.754   2.280  0.00  0.00     0.012 C 
HETATM   25  H   UNK N   1       0.776  -0.392   0.791  0.00  0.00     0.163 HD
ENDROOT
BRANCH   9  26
HETATM   26  C   UNK N   1      -1.532   0.452  -1.218  0.00  0.00    -0.059 C 
HETATM   27  C   UNK N   1      -2.836   0.487  -1.534  0.00  0.00     0.034 C 
HETATM   28  C   UNK N   1      -0.533   0.271  -2.313  0.00  0.00     0.045 C 
BRANCH  27  29
HETATM   29  C   UNK N   1      -3.901   0.753  -0.547  0.00  0.00     0.039 A 
HETATM   30  N   UNK N   1      -5.097   0.068  -0.568  0.00  0.00    -0.354 N 
HETATM   31  C   UNK N   1      -5.927   0.475   0.422  0.00  0.00     0.047 A 
ATOM     32  HN  UNK N   1      -5.329  -0.657  -1.247  1.00  0.00     0.166 HD
HETATM   33  C   UNK N   1      -7.266  -0.107   0.691  0.00  0.00     0.076 C 
HETATM   34  S   UNK N   1      -5.207   1.675   1.288  0.00  0.00    -0.087 SA
HETATM   35  C   UNK N   1      -3.779   1.737   0.457  0.00  0.00     0.081 A 
ENDBRANCH  27  29
ENDBRANCH   9  26
BRANCH  10  36
HETATM   36  O   UNK N   1       2.705  -3.750   1.306  0.00  0.00    -0.394 OA
HETATM   37  H   UNK N   1       2.259  -4.513   1.707  0.00  0.00     0.210 HD
ENDBRANCH  10  36
BRANCH  13  38
HETATM   38  O   UNK N   1       5.638   0.292  -0.804  0.00  0.00    -0.394 OA
HETATM   39  H   UNK N   1       5.936   0.092  -1.705  0.00  0.00     0.210 HD
ENDBRANCH  13  38
TORSDOF 4
