REMARK  13 active torsions:
REMARK  status: ('A' for Active; 'I' for Inactive)
REMARK    1  A    between atoms: O_3  and  C_25 
REMARK    2  A    between atoms: O_3  and  C_30 
REMARK    3  A    between atoms: O_5  and  N_10 
REMARK       I    between atoms: N_6  and  C_22 
REMARK    4  A    between atoms: C_13  and  N_7 
REMARK    5  A    between atoms: N_7  and  C_24 
REMARK       I    between atoms: N_8  and  C_23 
REMARK    6  A    between atoms: N_8  and  C_26 
REMARK    7  A    between atoms: N_9  and  C_35 
REMARK    8  A    between atoms: C_12  and  C_13 
REMARK    9  A    between atoms: C_13  and  C_22 
REMARK   10  A    between atoms: C_18  and  C_23 
REMARK   11  A    between atoms: C_24  and  C_25 
REMARK   12  A    between atoms: C_26  and  C_27 
REMARK   13  A    between atoms: C_33  and  C_35 
ROOT
HETATM    1  O   UNK N   1       6.677  -3.108   1.279  0.00  0.00    -0.271 OA
HETATM    2  N   UNK N   1       5.336  -2.013  -0.123  0.00  0.00    -0.337 N 
HETATM    3  C   UNK N   1       5.884  -0.713  -0.028  0.00  0.00     0.180 A 
HETATM    4  C   UNK N   1       4.315  -1.767  -1.067  0.00  0.00     0.129 A 
HETATM    5  C   UNK N   1       4.821  -0.292  -1.083  0.00  0.00     0.055 A 
HETATM    6  C   UNK N   1       5.726  -3.153   0.516  0.00  0.00     0.243 C 
ENDROOT
BRANCH   3   7
HETATM    7  C   UNK N   1       7.295  -0.649  -0.571  0.00  0.00     0.240 C 
HETATM    8  O   UNK N   1       7.600  -1.295  -1.562  0.00  0.00    -0.271 OA
HETATM    9  N   UNK N   1       8.225   0.138   0.021  0.00  0.00    -0.355 N 
HETATM   10  H   UNK N   1       9.135   0.172  -0.353  0.00  0.00     0.162 HD
BRANCH   9  11
HETATM   11  C   UNK N   1       7.912   0.928   1.187  0.00  0.00     0.161 C 
BRANCH  11  12
HETATM   12  C   UNK N   1       7.685   2.347   0.794  0.00  0.00    -0.040 A 
HETATM   13  C   UNK N   1       6.393   2.873   0.841  0.00  0.00     0.010 A 
HETATM   14  C   UNK N   1       6.163   4.201   0.473  0.00  0.00     0.016 A 
HETATM   15  C   UNK N   1       7.223   5.025   0.062  0.00  0.00     0.009 A 
HETATM   16  C   UNK N   1       8.520   4.485   0.023  0.00  0.00     0.016 A 
HETATM   17  C   UNK N   1       8.751   3.153   0.382  0.00  0.00     0.010 A 
BRANCH  15  18
HETATM   18  C   UNK N   1       7.018   6.456  -0.327  0.00  0.00     0.129 C 
HETATM   19  N   UNK N   1       5.857   7.026  -0.350  0.00  0.00    -0.253 N 
ATOM     20  HN  UNK N   1       5.803   8.008  -0.622  1.00  0.00     0.196 HD
BRANCH  18  21
HETATM   21  N   UNK N   1       8.148   7.228  -0.685  0.00  0.00    -0.383 N 
HETATM   22  H   UNK N   1       9.006   6.815  -0.935  0.00  0.00     0.157 HD
HETATM   23  H   UNK N   1       8.073   8.209  -0.685  0.00  0.00     0.157 HD
ENDBRANCH  18  21
BRANCH  19  24
HETATM   24  O   UNK N   1       4.743   6.397  -0.040  0.00  0.00    -0.288 OA
HETATM   25  H   UNK N   1       3.959   6.860   0.180  0.00  0.00     0.244 HD
ENDBRANCH  19  24
ENDBRANCH  15  18
ENDBRANCH  11  12
ENDBRANCH   9  11
ENDBRANCH   3   7
BRANCH   6  26
HETATM   26  C   UNK N   1       5.018  -4.492   0.335  0.00  0.00     0.174 C 
BRANCH  26  27
HETATM   27  N   UNK N   1       3.697  -4.391  -0.278  0.00  0.00    -0.400 N 
HETATM   28  H   UNK N   1       3.471  -4.633  -1.243  0.00  0.00     0.154 HD
BRANCH  27  29
HETATM   29  C   UNK N   1       2.756  -3.890   0.712  0.00  0.00     0.226 C 
BRANCH  29  30
HETATM   30  C   UNK N   1       1.366  -4.208   0.279  0.00  0.00     0.276 C 
HETATM   31  O   UNK N   1       0.590  -3.300   0.019  0.00  0.00    -0.263 OA
BRANCH  30  32
HETATM   32  O   UNK N   1       0.978  -5.503   0.191  0.00  0.00    -0.321 OA
BRANCH  32  33
HETATM   33  C   UNK N   1      -0.292  -5.872  -0.184  0.00  0.00     0.174 C 
HETATM   34  C   UNK N   1      -0.409  -7.381  -0.136  0.00  0.00     0.034 C 
ENDBRANCH  32  33
ENDBRANCH  30  32
ENDBRANCH  29  30
ENDBRANCH  27  29
ENDBRANCH  26  27
BRANCH  26  35
HETATM   35  C   UNK N   1       5.836  -5.546  -0.431  0.00  0.00     0.017 C 
HETATM   36  C   UNK N   1       5.338  -6.947  -0.040  0.00  0.00     0.007 C 
HETATM   37  C   UNK N   1       6.300  -8.028  -0.525  0.00  0.00     0.000 C 
HETATM   38  C   UNK N   1       7.706  -7.861   0.073  0.00  0.00     0.000 C 
HETATM   39  C   UNK N   1       7.997  -6.444   0.581  0.00  0.00     0.000 C 
HETATM   40  C   UNK N   1       7.369  -5.403  -0.336  0.00  0.00     0.007 C 
ENDBRANCH  26  35
ENDBRANCH   6  26
TORSDOF 13
