REMARK  10 active torsions:
REMARK  status: ('A' for Active; 'I' for Inactive)
REMARK    1  A    between atoms: C_7  and  O_1 
REMARK    2  A    between atoms: C_8  and  O_2 
REMARK    3  A    between atoms: C_9  and  O_3 
REMARK    4  A    between atoms: O_4  and  C_10 
REMARK    5  A    between atoms: O_6  and  C_12 
REMARK    6  A    between atoms: C_7  and  C_8 
REMARK    7  A    between atoms: C_7  and  C_9 
REMARK    8  A    between atoms: C_8  and  C_10 
REMARK    9  A    between atoms: C_9  and  C_11 
REMARK   10  A    between atoms: C_11  and  C_12 
ROOT
HETATM    1  C   UNK N   1       3.929  -0.170  -0.261  0.00  0.00     0.185 C 
ENDROOT
BRANCH   1   2
HETATM    2  O   UNK N   1       3.622  -1.493   0.069  0.00  0.00    -0.390 OA
HETATM    3  H   UNK N   1       2.721  -1.768   0.297  0.00  0.00     0.210 HD
ENDBRANCH   1   2
BRANCH   1   4
HETATM    4  C   UNK N   1       2.805   0.740   0.273  0.00  0.00     0.173 C 
BRANCH   4   5
HETATM    5  O   UNK N   1       3.062   2.078  -0.029  0.00  0.00    -0.391 OA
HETATM    6  H   UNK N   1       3.957   2.388  -0.239  0.00  0.00     0.210 HD
ENDBRANCH   4   5
BRANCH   4   7
HETATM    7  C   UNK N   1       1.446   0.377  -0.319  0.00  0.00     0.198 C 
BRANCH   7   8
HETATM    8  O   UNK N   1       1.010  -0.862   0.152  0.00  0.00    -0.398 OA
HETATM    9  H   UNK N   1       0.113  -1.030   0.480  0.00  0.00     0.209 HD
ENDBRANCH   7   8
ENDBRANCH   4   7
ENDBRANCH   1   4
BRANCH   1  10
HETATM   10  C   UNK N   1       5.307   0.210   0.327  0.00  0.00     0.221 C 
BRANCH  10  11
HETATM   11  O   UNK N   1       5.645   1.503  -0.080  0.00  0.00    -0.385 OA
HETATM   12  H   UNK N   1       6.540   1.749  -0.362  0.00  0.00     0.210 HD
ENDBRANCH  10  11
BRANCH  10  13
HETATM   13  C   UNK N   1       6.427  -0.778  -0.001  0.00  0.00     0.181 C 
HETATM   14  O   UNK N   1       6.173  -1.971  -0.045  0.00  0.00    -0.293 OA
BRANCH  13  15
HETATM   15  C   UNK N   1       7.875  -0.380  -0.168  0.00  0.00     0.245 C 
BRANCH  15  16
HETATM   16  O   UNK N   1       8.119   0.970   0.082  0.00  0.00    -0.393 OA
HETATM   17  H   UNK N   1       9.017   1.292   0.256  0.00  0.00     0.209 HD
ENDBRANCH  15  16
ENDBRANCH  13  15
ENDBRANCH  10  13
ENDBRANCH   1  10
TORSDOF 10
