REMARK  17 active torsions:
REMARK  status: ('A' for Active; 'I' for Inactive)
REMARK    1  A    between atoms: O_2  and  C_21 
REMARK    2  A    between atoms: O_2  and  C_22 
REMARK    3  A    between atoms: C_22  and  C_23 
REMARK    4  A    between atoms: C_23  and  C_24 
REMARK    5  A    between atoms: C_24  and  C_25 
REMARK    6  A    between atoms: C_25  and  C_26 
REMARK    7  A    between atoms: C_26  and  C_27 
REMARK    8  A    between atoms: C_27  and  C_28 
REMARK    9  A    between atoms: C_28  and  C_29 
REMARK   10  A    between atoms: C_29  and  C_35 
REMARK   11  A    between atoms: C_30  and  C_31 
REMARK   12  A    between atoms: C_30  and  C_32 
REMARK   13  A    between atoms: C_31  and  C_33 
REMARK   14  A    between atoms: C_32  and  C_34 
REMARK   15  A    between atoms: C_33  and  C_36 
REMARK   16  A    between atoms: C_34  and  C_37 
REMARK   17  A    between atoms: C_36  and  C_38 
ROOT
HETATM    1  O   UNK N   1      10.693  -0.641   0.226  0.00  0.00    -0.279 OA
ENDROOT
BRANCH   1   2
HETATM    2  C   UNK N   1      11.781   0.164   0.196  0.00  0.00     0.079 A 
HETATM    3  C   UNK N   1      13.032  -0.435   0.080  0.00  0.00     0.045 A 
HETATM    4  C   UNK N   1      14.173   0.340  -0.107  0.00  0.00    -0.049 A 
HETATM    5  C   UNK N   1      14.068   1.748  -0.156  0.00  0.00    -0.047 A 
HETATM    6  C   UNK N   1      15.491  -0.377  -0.231  0.00  0.00     0.039 C 
HETATM    7  C   UNK N   1      15.296   2.578  -0.451  0.00  0.00     0.024 C 
HETATM    8  C   UNK N   1      12.811   2.351   0.025  0.00  0.00     0.011 A 
HETATM    9  C   UNK N   1      16.534   1.914   0.201  0.00  0.00    -0.000 C 
HETATM   10  C   UNK N   1      15.142   4.067  -0.059  0.00  0.00     0.011 C 
HETATM   11  C   UNK N   1      17.762   2.778  -0.108  0.00  0.00     0.006 C 
HETATM   12  C   UNK N   1      16.712   0.525  -0.418  0.00  0.00     0.010 C 
HETATM   13  C   UNK N   1      17.595   4.202   0.413  0.00  0.00     0.021 C 
HETATM   14  C   UNK N   1      19.118   2.345   0.449  0.00  0.00     0.013 C 
HETATM   15  C   UNK N   1      16.433   4.868  -0.326  0.00  0.00     0.018 C 
HETATM   16  C   UNK N   1      18.972   4.690   0.156  0.00  0.00     0.135 C 
HETATM   17  C   UNK N   1      17.359   4.263   1.927  0.00  0.00     0.024 C 
HETATM   18  O   UNK N   1      19.219   5.777  -0.343  0.00  0.00    -0.297 OA
HETATM   19  C   UNK N   1      19.990   3.594   0.230  0.00  0.00     0.079 C 
HETATM   20  C   UNK N   1      11.670   1.561   0.191  0.00  0.00     0.038 A 
ENDBRANCH   1   2
BRANCH   1  21
HETATM   21  C   UNK N   1       9.645  -0.480  -0.631  0.00  0.00     0.264 C 
HETATM   22  O   UNK N   1       9.639   0.406  -1.461  0.00  0.00    -0.265 OA
BRANCH  21  23
HETATM   23  C   UNK N   1       8.558  -1.506  -0.651  0.00  0.00     0.111 C 
BRANCH  23  24
HETATM   24  C   UNK N   1       7.755  -1.490   0.632  0.00  0.00     0.010 C 
BRANCH  24  25
HETATM   25  C   UNK N   1       6.639  -0.463   0.543  0.00  0.00     0.000 C 
BRANCH  25  26
HETATM   26  C   UNK N   1       7.092   0.884   1.080  0.00  0.00     0.000 C 
BRANCH  26  27
HETATM   27  C   UNK N   1       7.423   1.834  -0.057  0.00  0.00     0.000 C 
BRANCH  27  28
HETATM   28  C   UNK N   1       6.584   3.091   0.057  0.00  0.00     0.004 C 
BRANCH  28  29
HETATM   29  C   UNK N   1       5.385   2.984  -0.865  0.00  0.00     0.027 C 
BRANCH  29  30
HETATM   30  C   UNK N   1       4.132   3.354  -0.133  0.00  0.00    -0.031 C 
HETATM   31  C   UNK N   1       3.386   2.445   0.506  0.00  0.00    -0.031 C 
BRANCH  31  32
HETATM   32  C   UNK N   1       3.765   0.999   0.550  0.00  0.00     0.027 C 
BRANCH  32  33
HETATM   33  C   UNK N   1       2.653   0.126   0.010  0.00  0.00     0.004 C 
BRANCH  33  34
HETATM   34  C   UNK N   1       3.142  -1.307   0.002  0.00  0.00     0.000 C 
BRANCH  34  35
HETATM   35  C   UNK N   1       1.979  -2.264  -0.152  0.00  0.00     0.000 C 
BRANCH  35  36
HETATM   36  C   UNK N   1       2.505  -3.680  -0.058  0.00  0.00     0.000 C 
BRANCH  36  37
HETATM   37  C   UNK N   1       1.356  -4.665  -0.078  0.00  0.00    -0.000 C 
BRANCH  37  38
HETATM   38  C   UNK N   1       1.908  -6.072   0.022  0.00  0.00    -0.005 C 
HETATM   39  C   UNK N   1       0.769  -7.068   0.007  0.00  0.00     0.005 C 
ENDBRANCH  37  38
ENDBRANCH  36  37
ENDBRANCH  35  36
ENDBRANCH  34  35
ENDBRANCH  33  34
ENDBRANCH  32  33
ENDBRANCH  31  32
ENDBRANCH  29  30
ENDBRANCH  28  29
ENDBRANCH  27  28
ENDBRANCH  26  27
ENDBRANCH  25  26
ENDBRANCH  24  25
ENDBRANCH  23  24
ENDBRANCH  21  23
ENDBRANCH   1  21
TORSDOF 17
