REMARK  22 active torsions:
REMARK  status: ('A' for Active; 'I' for Inactive)
REMARK    1  A    between atoms: P_1  and  O_10 
REMARK    2  A    between atoms: P_1  and  O_13 
REMARK    3  A    between atoms: P_1  and  O_16 
REMARK    4  A    between atoms: P_2  and  O_11 
REMARK    5  A    between atoms: P_2  and  O_15 
REMARK    6  A    between atoms: P_2  and  O_18 
REMARK    7  A    between atoms: P_3  and  O_13 
REMARK    8  A    between atoms: P_3  and  O_21 
REMARK    9  A    between atoms: P_3  and  O_22 
REMARK   10  A    between atoms: P_4  and  O_15 
REMARK   11  A    between atoms: P_4  and  O_21 
REMARK   12  A    between atoms: P_4  and  O_23 
REMARK   13  A    between atoms: C_32  and  O_7 
REMARK   14  A    between atoms: C_33  and  O_8 
REMARK   15  A    between atoms: C_36  and  O_9 
REMARK   16  A    between atoms: O_10  and  C_40 
REMARK   17  A    between atoms: O_11  and  C_41 
REMARK   18  A    between atoms: C_35  and  N_26 
REMARK   19  A    between atoms: C_39  and  N_27 
REMARK   20  A    between atoms: N_31  and  C_49 
REMARK   21  A    between atoms: C_34  and  C_40 
REMARK   22  A    between atoms: C_37  and  C_41 
ROOT
HETATM    1  O   UNK N   1      -1.032  -0.938  -0.491  0.00  0.00    -0.195 OA
ENDROOT
BRANCH   1   2
HETATM    2  P   UNK N   1      -2.710  -0.771  -0.928  0.00  0.00     0.410 P 
HETATM    3  O   UNK N   1      -2.734   0.146  -2.180  0.00  0.00    -0.631 OA
BRANCH   2   4
HETATM    4  O   UNK N   1      -3.623   0.072   0.305  0.00  0.00    -0.195 OA
BRANCH   4   5
HETATM    5  P   UNK N   1      -4.564  -1.094   1.214  0.00  0.00     0.401 P 
HETATM    6  O   UNK N   1      -3.659  -2.195   1.824  0.00  0.00    -0.631 OA
BRANCH   5   7
HETATM    7  O   UNK N   1      -5.732  -1.896   0.215  0.00  0.00    -0.294 OA
BRANCH   7   8
HETATM    8  C   UNK N   1      -6.929  -1.237   0.473  0.00  0.00     0.215 C 
BRANCH   8   9
HETATM    9  C   UNK N   1      -7.218  -0.208  -0.604  0.00  0.00     0.180 C 
HETATM   10  O   UNK N   1      -6.252   0.824  -0.618  0.00  0.00    -0.353 OA
HETATM   11  C   UNK N   1      -6.986   1.995  -0.882  0.00  0.00     0.263 C 
HETATM   12  C   UNK N   1      -8.296   1.855  -0.129  0.00  0.00     0.198 C 
HETATM   13  C   UNK N   1      -8.577   0.389  -0.310  0.00  0.00     0.182 C 
BRANCH  11  14
HETATM   14  N   UNK N   1      -6.230   3.226  -0.552  0.00  0.00    -0.280 N 
HETATM   15  C   UNK N   1      -6.841   4.469  -0.562  0.00  0.00     0.331 A 
HETATM   16  O   UNK N   1      -8.031   4.571  -0.818  0.00  0.00    -0.246 OA
HETATM   17  N   UNK N   1      -6.118   5.600  -0.276  0.00  0.00    -0.275 N 
HETATM   18  C   UNK N   1      -4.777   5.521  -0.000  0.00  0.00     0.250 A 
HETATM   19  H   UNK N   1      -6.592   6.532  -0.272  0.00  0.00     0.173 HD
HETATM   20  O   UNK N   1      -4.140   6.531   0.238  0.00  0.00    -0.268 OA
HETATM   21  C   UNK N   1      -4.146   4.284   0.004  0.00  0.00     0.092 A 
HETATM   22  C   UNK N   1      -4.895   3.141  -0.269  0.00  0.00     0.104 A 
ENDBRANCH  11  14
BRANCH  12  23
HETATM   23  O   UNK N   1      -8.099   2.118   1.227  0.00  0.00    -0.388 OA
HETATM   24  H   UNK N   1      -7.872   2.091   2.169  0.00  0.00     0.210 HD
ENDBRANCH  12  23
BRANCH  13  25
HETATM   25  O   UNK N   1      -9.394   0.180  -1.420  0.00  0.00    -0.390 OA
HETATM   26  H   UNK N   1      -9.804   0.600  -2.192  0.00  0.00     0.210 HD
ENDBRANCH  13  25
ENDBRANCH   8   9
ENDBRANCH   7   8
ENDBRANCH   5   7
BRANCH   5  27
HETATM   27  O   UNK N   1      -5.314  -0.311   2.572  0.00  0.00    -0.307 OA
HETATM   28  H   UNK N   1      -5.145   0.270   3.330  0.00  0.00     0.222 HD
ENDBRANCH   5  27
ENDBRANCH   4   5
ENDBRANCH   2   4
BRANCH   2  29
HETATM   29  O   UNK N   1      -3.408  -2.283  -1.427  0.00  0.00    -0.307 OA
HETATM   30  H   UNK N   1      -4.333  -2.368  -1.706  0.00  0.00     0.222 HD
ENDBRANCH   2  29
ENDBRANCH   1   2
BRANCH   1  31
HETATM   31  P   UNK N   1      -1.068  -1.055   1.235  0.00  0.00     0.410 P 
HETATM   32  O   UNK N   1       0.029  -1.551   2.194  0.00  0.00    -0.631 OA
BRANCH  31  33
HETATM   33  O   UNK N   1      -1.103  -2.809   0.866  0.00  0.00    -0.195 OA
BRANCH  33  34
HETATM   34  P   UNK N   1       0.073  -3.494  -0.293  0.00  0.00     0.401 P 
HETATM   35  O   UNK N   1      -0.223  -2.994  -1.734  0.00  0.00    -0.631 OA
BRANCH  34  36
HETATM   36  O   UNK N   1       1.793  -3.376  -0.039  0.00  0.00    -0.294 OA
BRANCH  36  37
HETATM   37  C   UNK N   1       1.997  -2.785   1.203  0.00  0.00     0.215 C 
BRANCH  37  38
HETATM   38  C   UNK N   1       3.124  -1.735   1.165  0.00  0.00     0.177 C 
HETATM   39  O   UNK N   1       4.345  -2.397   1.262  0.00  0.00    -0.356 OA
HETATM   40  C   UNK N   1       4.502  -2.816  -0.055  0.00  0.00     0.235 C 
HETATM   41  C   UNK N   1       4.283  -1.619  -0.937  0.00  0.00     0.088 C 
HETATM   42  C   UNK N   1       3.188  -0.923  -0.141  0.00  0.00     0.153 C 
BRANCH  40  43
HETATM   43  N   UNK N   1       5.690  -3.617  -0.230  0.00  0.00    -0.282 N 
HETATM   44  C   UNK N   1       5.494  -4.938  -0.469  0.00  0.00     0.102 A 
HETATM   45  C   UNK N   1       6.568  -5.810  -0.517  0.00  0.00     0.065 A 
HETATM   46  C   UNK N   1       7.848  -5.305  -0.315  0.00  0.00     0.103 A 
HETATM   47  N   UNK N   1       8.032  -3.974  -0.100  0.00  0.00    -0.295 N 
HETATM   48  C   UNK N   1       6.962  -3.120  -0.053  0.00  0.00     0.330 A 
ATOM     49  HN  UNK N   1       8.976  -3.608   0.026  1.00  0.00     0.172 HD
HETATM   50  O   UNK N   1       7.142  -1.935   0.173  0.00  0.00    -0.246 OA
BRANCH  46  51
HETATM   51  N   UNK N   1       8.950  -6.184  -0.299  0.00  0.00    -0.385 N 
HETATM   52  H   UNK N   1       9.897  -5.822  -0.125  0.00  0.00     0.157 HD
HETATM   53  H   UNK N   1       8.806  -7.198  -0.417  0.00  0.00     0.157 HD
ENDBRANCH  46  51
ENDBRANCH  40  43
BRANCH  42  54
HETATM   54  O   UNK N   1       3.604   0.377   0.145  0.00  0.00    -0.393 OA
HETATM   55  H   UNK N   1       4.532   0.579   0.344  0.00  0.00     0.210 HD
ENDBRANCH  42  54
ENDBRANCH  37  38
ENDBRANCH  36  37
ENDBRANCH  34  36
BRANCH  34  56
HETATM   56  O   UNK N   1      -0.279  -5.189  -0.408  0.00  0.00    -0.307 OA
HETATM   57  H   UNK N   1      -1.198  -5.493  -0.472  0.00  0.00     0.222 HD
ENDBRANCH  34  56
ENDBRANCH  33  34
ENDBRANCH  31  33
BRANCH  31  58
HETATM   58  O   UNK N   1       0.410  -0.325   0.702  0.00  0.00    -0.307 OA
HETATM   59  H   UNK N   1       1.177  -0.837   0.404  0.00  0.00     0.222 HD
ENDBRANCH  31  58
ENDBRANCH   1  31
TORSDOF 22
