REMARK  8 active torsions:
REMARK  status: ('A' for Active; 'I' for Inactive)
REMARK    1  A    between atoms: C_3  and  C_2 
REMARK    2  A    between atoms: C_10  and  C_2 
REMARK    3  A    between atoms: C_11  and  C_3 
REMARK    4  A    between atoms: N_28  and  C_10 
REMARK    5  A    between atoms: N_29  and  C_11 
REMARK    6  A    between atoms: C_20  and  C_16 
REMARK    7  A    between atoms: C_21  and  C_18 
REMARK    8  A    between atoms: N_25  and  N_30 
ROOT
HETATM    1  C   UNK N   1      -1.335   0.803   0.143  0.00  0.00     0.257 A 
HETATM    2  C   UNK N   1      -1.676  -0.513  -0.492  0.00  0.00     0.247 A 
HETATM    3  C   UNK N   1       0.375  -0.739   0.150  0.00  0.00     0.346 A 
HETATM    4  N   UNK N   1      -0.637  -1.356  -0.431  0.00  0.00    -0.267 N 
HETATM    5  N   UNK N   1       0.050   0.522   0.467  0.00  0.00    -0.234 N 
HETATM    6  O   UNK N   1      -2.739  -0.780  -1.027  0.00  0.00    -0.271 OA
HETATM    7  O   UNK N   1       1.486  -1.226   0.289  0.00  0.00    -0.245 OA
ENDROOT
BRANCH   5   8
HETATM    8  N   UNK N   1       0.962   1.531   0.569  0.00  0.00    -0.303 N 
HETATM    9  C   UNK N   1       2.171   1.426   0.147  0.00  0.00     0.144 C 
ATOM     10  HN  UNK N   1       0.670   2.408   1.001  1.00  0.00     0.186 HD
BRANCH   9  11
HETATM   11  C   UNK N   1       2.826   2.677  -0.079  0.00  0.00     0.093 A 
HETATM   12  C   UNK N   1       4.160   2.983  -0.241  0.00  0.00     0.041 A 
HETATM   13  C   UNK N   1       4.194   4.377  -0.314  0.00  0.00     0.041 A 
HETATM   14  C   UNK N   1       2.868   4.780  -0.214  0.00  0.00     0.086 A 
HETATM   15  O   UNK N   1       2.109   3.751  -0.088  0.00  0.00    -0.309 OA
BRANCH  14  16
HETATM   16  C   UNK N   1       2.283   6.107  -0.137  0.00  0.00    -0.002 A 
HETATM   17  C   UNK N   1       3.062   7.253   0.009  0.00  0.00     0.016 A 
HETATM   18  C   UNK N   1       2.436   8.496   0.149  0.00  0.00     0.024 A 
HETATM   19  C   UNK N   1       1.038   8.587   0.138  0.00  0.00     0.034 A 
HETATM   20  C   UNK N   1       0.261   7.440  -0.009  0.00  0.00     0.024 A 
HETATM   21 Cl   UNK N   1       0.256  10.140   0.295  0.00  0.00    -0.084 Cl
HETATM   22  C   UNK N   1       0.882   6.204  -0.135  0.00  0.00     0.016 A 
ENDBRANCH  14  16
ENDBRANCH   9  11
ENDBRANCH   5   8
BRANCH   4  23
HETATM   23  C   UNK N   1      -0.579  -2.673  -0.969  0.00  0.00     0.137 C 
BRANCH  23  24
HETATM   24  C   UNK N   1      -1.011  -3.570   0.128  0.00  0.00     0.022 C 
BRANCH  24  25
HETATM   25  C   UNK N   1      -2.500  -3.787   0.017  0.00  0.00     0.032 C 
BRANCH  25  26
HETATM   26  C   UNK N   1      -2.907  -4.780   1.090  0.00  0.00     0.272 C 
BRANCH  26  27
HETATM   27  N   UNK N   1      -2.475  -6.160   0.833  0.00  0.00     0.091 N 
HETATM   28  C   UNK N   1      -1.129  -6.292   0.267  0.00  0.00     0.302 C 
HETATM   29  C   UNK N   1      -0.728  -7.749   0.259  0.00  0.00     0.302 C 
HETATM   30  N   UNK N   1      -1.688  -8.538  -0.512  0.00  0.00     0.087 N 
HETATM   31  C   UNK N   1      -1.359  -9.922  -0.232  0.00  0.00     0.310 C 
HETATM   32  C   UNK N   1      -3.058  -8.328  -0.030  0.00  0.00     0.302 C 
HETATM   33  C   UNK N   1      -3.416  -6.843  -0.039  0.00  0.00     0.302 C 
ENDBRANCH  26  27
ENDBRANCH  25  26
ENDBRANCH  24  25
ENDBRANCH  23  24
ENDBRANCH   4  23
TORSDOF 8
