REMARK  8 active torsions:
REMARK  status: ('A' for Active; 'I' for Inactive)
REMARK    1  A    between atoms: O_1  and  C_18 
REMARK    2  A    between atoms: O_2  and  C_19 
REMARK    3  A    between atoms: O_3  and  C_37 
REMARK    4  A    between atoms: N_6  and  C_14 
REMARK    5  A    between atoms: N_7  and  C_23 
REMARK       I    between atoms: N_7  and  C_32 
REMARK    6  A    between atoms: C_14  and  C_15 
REMARK    7  A    between atoms: C_15  and  C_20 
REMARK    8  A    between atoms: C_28  and  C_32 
ROOT
HETATM    1  C   UNK N   1       6.452   0.580  -0.835  0.00  0.00    -0.056 A 
HETATM    2  C   UNK N   1       5.545  -0.017   0.043  0.00  0.00     0.009 A 
HETATM    3  C   UNK N   1       7.724   0.025  -1.010  0.00  0.00     0.009 A 
HETATM    4  C   UNK N   1       7.126  -1.816   0.436  0.00  0.00     0.035 A 
HETATM    5  C   UNK N   1       5.882  -1.199   0.679  0.00  0.00     0.030 A 
HETATM    6  C   UNK N   1       8.053  -1.185  -0.396  0.00  0.00     0.030 A 
ENDROOT
BRANCH   4   7
HETATM    7  N   UNK N   1       7.197  -3.225   0.579  0.00  0.00    -0.323 N 
HETATM    8  C   UNK N   1       6.232  -3.933  -0.076  0.00  0.00     0.258 C 
HETATM    9  O   UNK N   1       5.476  -3.344  -0.844  0.00  0.00    -0.267 OA
HETATM   10  H   UNK N   1       7.896  -3.664   1.115  0.00  0.00     0.169 HD
BRANCH   8  11
HETATM   11  C   UNK N   1       6.009  -5.373   0.104  0.00  0.00     0.059 A 
HETATM   12  C   UNK N   1       4.681  -5.834   0.039  0.00  0.00     0.062 A 
HETATM   13  N   UNK N   1       3.666  -4.933  -0.041  0.00  0.00    -0.352 N 
HETATM   14  C   UNK N   1       4.394  -7.206   0.106  0.00  0.00     0.043 A 
HETATM   15  C   UNK N   1       2.365  -5.287  -0.061  0.00  0.00     0.080 A 
HETATM   16  H   UNK N   1       3.891  -3.976  -0.086  0.00  0.00     0.166 HD
HETATM   17  C   UNK N   1       2.019  -6.652  -0.029  0.00  0.00     0.044 A 
HETATM   18  C   UNK N   1       1.377  -4.291  -0.093  0.00  0.00     0.095 A 
HETATM   19  C   UNK N   1       3.045  -7.622   0.049  0.00  0.00     0.197 A 
HETATM   20  C   UNK N   1       0.664  -7.011  -0.051  0.00  0.00     0.018 A 
HETATM   21  O   UNK N   1       2.768  -8.809   0.088  0.00  0.00    -0.286 OA
HETATM   22  C   UNK N   1      -0.326  -6.023  -0.092  0.00  0.00     0.004 A 
HETATM   23  C   UNK N   1       0.026  -4.670  -0.106  0.00  0.00     0.039 A 
HETATM   24  C   UNK N   1       5.454  -8.116   0.242  0.00  0.00     0.018 A 
HETATM   25  C   UNK N   1       6.776  -7.653   0.348  0.00  0.00     0.002 A 
HETATM   26  C   UNK N   1       7.055  -6.280   0.289  0.00  0.00     0.019 A 
BRANCH  18  27
HETATM   27  O   UNK N   1       1.747  -2.983  -0.093  0.00  0.00    -0.354 OA
HETATM   28  C   UNK N   1       0.852  -1.938  -0.069  0.00  0.00     0.210 C 
ENDBRANCH  18  27
ENDBRANCH   8  11
ENDBRANCH   4   7
BRANCH   1  29
HETATM   29  C   UNK N   1       6.054   1.775  -1.641  0.00  0.00     0.068 C 
BRANCH  29  30
HETATM   30  C   UNK N   1       5.256   2.817  -0.858  0.00  0.00     0.277 C 
BRANCH  30  31
HETATM   31  N   UNK N   1       5.625   2.862   0.560  0.00  0.00     0.093 N 
HETATM   32  C   UNK N   1       4.745   3.779   1.283  0.00  0.00     0.277 C 
HETATM   33  C   UNK N   1       4.865   5.219   0.775  0.00  0.00     0.069 C 
HETATM   34  C   UNK N   1       6.284   5.608   0.487  0.00  0.00    -0.046 A 
HETATM   35  C   UNK N   1       7.318   4.657   0.476  0.00  0.00    -0.021 A 
HETATM   36  C   UNK N   1       6.575   6.945   0.230  0.00  0.00     0.047 A 
HETATM   37  C   UNK N   1       7.038   3.213   0.744  0.00  0.00     0.311 C 
HETATM   38  C   UNK N   1       8.630   5.055   0.221  0.00  0.00     0.049 A 
HETATM   39  C   UNK N   1       8.929   6.404  -0.031  0.00  0.00     0.102 A 
HETATM   40  C   UNK N   1       7.895   7.354  -0.027  0.00  0.00     0.102 A 
BRANCH  39  41
HETATM   41  O   UNK N   1      10.201   6.806  -0.275  0.00  0.00    -0.353 OA
HETATM   42  C   UNK N   1      11.276   5.945  -0.289  0.00  0.00     0.210 C 
ENDBRANCH  39  41
BRANCH  40  43
HETATM   43  O   UNK N   1       8.187   8.656  -0.263  0.00  0.00    -0.353 OA
HETATM   44  C   UNK N   1       7.238   9.653  -0.254  0.00  0.00     0.210 C 
ENDBRANCH  40  43
ENDBRANCH  30  31
ENDBRANCH  29  30
ENDBRANCH   1  29
TORSDOF 8
