REMARK  6 active torsions:
REMARK  status: ('A' for Active; 'I' for Inactive)
REMARK    1  A    between atoms: C_25  and  O_5 
REMARK    2  A    between atoms: O_5  and  C_29 
REMARK       I    between atoms: N_10  and  C_21 
REMARK    3  A    between atoms: C_24  and  N_10 
REMARK    4  A    between atoms: C_18  and  N_11 
REMARK       I    between atoms: N_11  and  C_28 
REMARK    5  A    between atoms: C_14  and  C_21 
REMARK    6  A    between atoms: C_28  and  C_30 
ROOT
HETATM    1  O   UNK N   1       4.416  -0.469  -0.315  0.00  0.00    -0.269 OA
HETATM    2  O   UNK N   1      -0.567   1.395   0.274  0.00  0.00    -0.272 OA
HETATM    3  N   UNK N   1       2.205  -0.800  -0.001  0.00  0.00    -0.241 N 
HETATM    4  N   UNK N   1       0.934  -0.284   0.308  0.00  0.00    -0.256 N 
HETATM    5  C   UNK N   1       2.281  -2.156  -0.605  0.00  0.00     0.203 C 
HETATM    6  C   UNK N   1       1.103  -3.054  -0.224  0.00  0.00     0.039 C 
HETATM    7  C   UNK N   1      -0.203  -2.310  -0.334  0.00  0.00     0.024 C 
HETATM    8  C   UNK N   1      -0.127  -1.197   0.678  0.00  0.00     0.152 C 
HETATM    9  C   UNK N   1       3.440   1.207   0.994  0.00  0.00     0.179 C 
HETATM   10  C   UNK N   1       3.363  -0.057   0.157  0.00  0.00     0.262 C 
HETATM   11  C   UNK N   1       2.495   2.363   0.683  0.00  0.00     0.044 C 
HETATM   12  C   UNK N   1       1.546   2.030  -0.428  0.00  0.00     0.107 C 
HETATM   13  C   UNK N   1       0.586   1.028   0.091  0.00  0.00     0.238 C 
ENDROOT
BRANCH   9  14
HETATM   14  N   UNK N   1       4.832   1.626   1.076  0.00  0.00    -0.342 N 
HETATM   15  C   UNK N   1       5.395   2.632   0.355  0.00  0.00     0.269 C 
HETATM   16  O   UNK N   1       4.713   3.334  -0.378  0.00  0.00    -0.266 OA
HETATM   17  H   UNK N   1       5.413   1.142   1.706  0.00  0.00     0.163 HD
BRANCH  15  18
HETATM   18  C   UNK N   1       6.853   2.850   0.432  0.00  0.00     0.111 A 
HETATM   19  N   UNK N   1       7.654   1.801   0.775  0.00  0.00    -0.361 N 
HETATM   20  C   UNK N   1       9.008   1.915   0.831  0.00  0.00     0.089 A 
ATOM     21  HN  UNK N   1       7.225   0.903   0.997  1.00  0.00     0.165 HD
HETATM   22  C   UNK N   1       9.623   3.138   0.566  0.00  0.00     0.029 A 
HETATM   23  C   UNK N   1       8.837   4.242   0.245  0.00  0.00    -0.022 A 
HETATM   24  C   UNK N   1       7.435   4.107   0.162  0.00  0.00     0.006 A 
HETATM   25  C   UNK N   1       9.434   5.487   0.026  0.00  0.00     0.012 A 
HETATM   26  C   UNK N   1       6.655   5.236  -0.139  0.00  0.00     0.015 A 
HETATM   27  C   UNK N   1       7.256   6.477  -0.348  0.00  0.00     0.001 A 
HETATM   28  C   UNK N   1       8.644   6.602  -0.265  0.00  0.00     0.001 A 
ENDBRANCH  15  18
ENDBRANCH   9  14
BRANCH   5  29
HETATM   29  C   UNK N   1       3.546  -2.926  -0.301  0.00  0.00     0.243 C 
HETATM   30  O   UNK N   1       3.845  -3.191   0.856  0.00  0.00    -0.271 OA
HETATM   31  N   UNK N   1       4.348  -3.300  -1.332  0.00  0.00    -0.349 N 
HETATM   32  H   UNK N   1       4.051  -3.078  -2.244  0.00  0.00     0.163 HD
BRANCH  31  33
HETATM   33  C   UNK N   1       5.608  -4.001  -1.188  0.00  0.00     0.149 C 
HETATM   34  C   UNK N   1       6.694  -3.174  -0.482  0.00  0.00     0.292 C 
HETATM   35  O   UNK N   1       7.355  -4.077   0.313  0.00  0.00    -0.287 OA
HETATM   36  C   UNK N   1       6.734  -5.259   0.360  0.00  0.00     0.263 C 
HETATM   37  O   UNK N   1       7.144  -6.183   1.042  0.00  0.00    -0.265 OA
HETATM   38  C   UNK N   1       5.497  -5.331  -0.444  0.00  0.00     0.141 C 
BRANCH  34  39
HETATM   39  O   UNK N   1       7.569  -2.646  -1.437  0.00  0.00    -0.359 OA
BRANCH  39  40
HETATM   40  C   UNK N   1       7.860  -1.354  -0.996  0.00  0.00     0.166 C 
HETATM   41  C   UNK N   1       9.269  -1.313  -0.434  0.00  0.00     0.033 C 
ENDBRANCH  39  40
ENDBRANCH  34  39
ENDBRANCH  31  33
ENDBRANCH   5  29
TORSDOF 6
