REMARK  7 active torsions:
REMARK  status: ('A' for Active; 'I' for Inactive)
REMARK    1  A    between atoms: C_11  and  O_2 
REMARK    2  A    between atoms: C_13  and  O_3 
REMARK    3  A    between atoms: O_4  and  C_15 
REMARK    4  A    between atoms: C_12  and  N_6 
REMARK    5  A    between atoms: N_9  and  C_16 
REMARK       I    between atoms: N_10  and  C_19 
REMARK    6  A    between atoms: C_14  and  C_15 
REMARK    7  A    between atoms: C_18  and  C_19 
ROOT
HETATM    1  N   UNK N   1       3.133   0.041   0.165  0.00  0.00    -0.297 N 
HETATM    2  N   UNK N   1       2.516   2.136  -0.314  0.00  0.00    -0.345 N 
ATOM      3  HN  UNK N   1       1.942   2.947  -0.545  1.00  0.00     0.167 HD
HETATM    4  C   UNK N   1       4.225   0.820   0.172  0.00  0.00     0.137 A 
HETATM    5  C   UNK N   1       2.098   0.858  -0.134  0.00  0.00     0.188 A 
HETATM    6  C   UNK N   1       3.851   2.109  -0.122  0.00  0.00     0.145 A 
ENDROOT
BRANCH   1   7
HETATM    7  C   UNK N   1       3.077  -1.382   0.509  0.00  0.00     0.262 C 
HETATM    8  O   UNK N   1       4.084  -2.125  -0.107  0.00  0.00    -0.353 OA
HETATM    9  C   UNK N   1       3.714  -3.404   0.323  0.00  0.00     0.179 C 
HETATM   10  C   UNK N   1       2.200  -3.526   0.129  0.00  0.00     0.182 C 
HETATM   11  C   UNK N   1       1.784  -2.072   0.120  0.00  0.00     0.198 C 
BRANCH   9  12
HETATM   12  C   UNK N   1       4.540  -4.503  -0.326  0.00  0.00     0.198 C 
BRANCH  12  13
HETATM   13  O   UNK N   1       5.880  -4.356   0.037  0.00  0.00    -0.398 OA
HETATM   14  H   UNK N   1       6.433  -5.112   0.290  0.00  0.00     0.209 HD
ENDBRANCH  12  13
ENDBRANCH   9  12
BRANCH  10  15
HETATM   15  O   UNK N   1       1.893  -4.078  -1.117  0.00  0.00    -0.390 OA
HETATM   16  H   UNK N   1       1.454  -4.084  -1.982  0.00  0.00     0.210 HD
ENDBRANCH  10  15
BRANCH  11  17
HETATM   17  O   UNK N   1       0.779  -1.823   1.054  0.00  0.00    -0.388 OA
HETATM   18  H   UNK N   1       0.579  -1.131   1.704  0.00  0.00     0.210 HD
ENDBRANCH  11  17
ENDBRANCH   1   7
BRANCH   4  19
HETATM   19  N   UNK N   1       5.532   0.366   0.449  0.00  0.00    -0.383 N 
HETATM   20  H   UNK N   1       5.714  -0.582   0.642  0.00  0.00     0.157 HD
HETATM   21  H   UNK N   1       6.277   1.010   0.449  0.00  0.00     0.157 HD
ENDBRANCH   4  19
BRANCH   6  22
HETATM   22  C   UNK N   1       4.725   3.295  -0.205  0.00  0.00     0.269 C 
HETATM   23  O   UNK N   1       5.931   3.184  -0.058  0.00  0.00    -0.266 OA
HETATM   24  N   UNK N   1       4.191   4.511  -0.433  0.00  0.00    -0.365 N 
HETATM   25  H   UNK N   1       4.765   5.293  -0.600  0.00  0.00     0.159 HD
HETATM   26  H   UNK N   1       3.212   4.619  -0.433  0.00  0.00     0.159 HD
ENDBRANCH   6  22
TORSDOF 7
