REMARK  11 active torsions:
REMARK  status: ('A' for Active; 'I' for Inactive)
REMARK    1  A    between atoms: O_1  and  C_22 
REMARK    2  A    between atoms: N_2  and  C_9 
REMARK    3  A    between atoms: N_2  and  C_12 
REMARK    4  A    between atoms: N_2  and  C_13 
REMARK    5  A    between atoms: N_3  and  C_11 
REMARK    6  A    between atoms: N_3  and  C_14 
REMARK    7  A    between atoms: C_6  and  C_7 
REMARK    8  A    between atoms: C_6  and  C_8 
REMARK    9  A    between atoms: C_7  and  C_9 
REMARK   10  A    between atoms: C_8  and  C_10 
REMARK   11  A    between atoms: C_10  and  C_11 
ROOT
HETATM    1  N   UNK N   1       8.617   2.498  -0.235  0.00  0.00    -0.363 N 
ATOM      2  HN  UNK N   1       8.725   1.490  -0.343  1.00  0.00     0.165 HD
HETATM    3  C   UNK N   1       6.249   2.184  -0.221  0.00  0.00     0.058 A 
HETATM    4  C   UNK N   1       7.362   3.028  -0.165  0.00  0.00     0.069 A 
HETATM    5  C   UNK N   1       7.195   4.420  -0.018  0.00  0.00     0.002 A 
HETATM    6  C   UNK N   1       4.956   2.729  -0.135  0.00  0.00     0.068 A 
HETATM    7  C   UNK N   1       8.336   5.239   0.054  0.00  0.00    -0.048 A 
HETATM    8  C   UNK N   1       5.901   4.955   0.055  0.00  0.00     0.051 A 
HETATM    9  C   UNK N   1       4.776   4.114  -0.006  0.00  0.00     0.071 A 
HETATM   10  C   UNK N   1       9.604   4.659  -0.019  0.00  0.00     0.024 A 
HETATM   11  C   UNK N   1       8.229   6.718   0.214  0.00  0.00     0.049 C 
HETATM   12  C   UNK N   1       9.726   3.278  -0.166  0.00  0.00     0.089 A 
ENDROOT
BRANCH   3  13
HETATM   13  N   UNK N   1       6.461   0.792  -0.367  0.00  0.00    -0.388 N 
HETATM   14  H   UNK N   1       7.341   0.494  -0.693  0.00  0.00     0.159 HD
BRANCH  13  15
HETATM   15  C   UNK N   1       5.481  -0.213  -0.073  0.00  0.00     0.120 C 
BRANCH  15  16
HETATM   16  C   UNK N   1       6.171  -1.267   0.777  0.00  0.00     0.020 C 
BRANCH  16  17
HETATM   17  C   UNK N   1       5.330  -2.516   0.906  0.00  0.00     0.002 C 
BRANCH  17  18
HETATM   18  C   UNK N   1       5.270  -3.264  -0.417  0.00  0.00     0.002 C 
BRANCH  18  19
HETATM   19  C   UNK N   1       3.823  -3.496  -0.811  0.00  0.00     0.030 C 
BRANCH  19  20
HETATM   20  C   UNK N   1       3.154  -4.432   0.184  0.00  0.00     0.272 C 
BRANCH  20  21
HETATM   21  N   UNK N   1       1.744  -4.592  -0.132  0.00  0.00     0.087 N 
BRANCH  21  22
HETATM   22  C   UNK N   1       1.298  -5.785   0.569  0.00  0.00     0.268 C 
HETATM   23  C   UNK N   1       1.028  -6.891  -0.431  0.00  0.00     0.037 C 
ENDBRANCH  21  22
BRANCH  21  24
HETATM   24  C   UNK N   1       1.027  -3.457   0.436  0.00  0.00     0.268 C 
HETATM   25  C   UNK N   1      -0.348  -3.335  -0.198  0.00  0.00     0.037 C 
ENDBRANCH  21  24
ENDBRANCH  20  21
ENDBRANCH  19  20
ENDBRANCH  18  19
ENDBRANCH  17  18
ENDBRANCH  16  17
ENDBRANCH  15  16
ENDBRANCH  13  15
ENDBRANCH   3  13
BRANCH   9  26
HETATM   26  O   UNK N   1       3.518   4.615   0.051  0.00  0.00    -0.356 OA
HETATM   27  C   UNK N   1       3.249   5.963   0.147  0.00  0.00     0.210 C 
ENDBRANCH   9  26
TORSDOF 11
