REMARK  5 active torsions:
REMARK  status: ('A' for Active; 'I' for Inactive)
REMARK    1  A    between atoms: C_12  and  O_2 
REMARK    2  A    between atoms: C_14  and  O_3 
REMARK    3  A    between atoms: O_4  and  C_16 
REMARK    4  A    between atoms: C_13  and  N_6 
REMARK    5  A    between atoms: C_15  and  C_16 
ROOT
HETATM    1  O   UNK N   1       1.271  -4.506  -0.348  0.00  0.00    -0.266 OA
HETATM    2  N   UNK N   1       3.992  -1.027   0.304  0.00  0.00    -0.297 N 
HETATM    3  N   UNK N   1       1.621  -0.553   0.089  0.00  0.00    -0.336 N 
HETATM    4  N   UNK N   1       3.837  -3.258   0.048  0.00  0.00    -0.345 N 
ATOM      5  HN  UNK N   1       4.083  -4.244  -0.033  1.00  0.00     0.167 HD
HETATM    6  N   UNK N   1       0.268  -2.486  -0.249  0.00  0.00    -0.318 N 
ATOM      7  HN  UNK N   1      -0.655  -2.897  -0.383  1.00  0.00     0.169 HD
HETATM    8  C   UNK N   1       2.708  -1.365   0.106  0.00  0.00     0.144 A 
HETATM    9  C   UNK N   1       4.672  -2.204   0.274  0.00  0.00     0.188 A 
HETATM   10  C   UNK N   1       2.615  -2.701  -0.042  0.00  0.00     0.146 A 
HETATM   11  C   UNK N   1       1.380  -3.299  -0.225  0.00  0.00     0.277 A 
HETATM   12  C   UNK N   1       0.390  -1.126  -0.094  0.00  0.00     0.185 A 
HETATM   13  H   UNK N   1       1.715   0.420   0.204  0.00  0.00     0.168 HD
ENDROOT
BRANCH   2  14
HETATM   14  C   UNK N   1       4.568   0.294   0.583  0.00  0.00     0.262 C 
HETATM   15  O   UNK N   1       3.644   1.339   0.351  0.00  0.00    -0.353 OA
HETATM   16  C   UNK N   1       4.400   2.395  -0.206  0.00  0.00     0.179 C 
HETATM   17  C   UNK N   1       5.861   2.047  -0.021  0.00  0.00     0.182 C 
HETATM   18  C   UNK N   1       5.795   0.584  -0.247  0.00  0.00     0.198 C 
BRANCH  16  19
HETATM   19  C   UNK N   1       4.058   3.707   0.484  0.00  0.00     0.198 C 
BRANCH  19  20
HETATM   20  O   UNK N   1       4.721   4.770  -0.131  0.00  0.00    -0.398 OA
HETATM   21  H   UNK N   1       5.592   4.740  -0.558  0.00  0.00     0.209 HD
ENDBRANCH  19  20
ENDBRANCH  16  19
BRANCH  17  22
HETATM   22  O   UNK N   1       6.673   2.677  -0.964  0.00  0.00    -0.390 OA
HETATM   23  H   UNK N   1       7.335   2.406  -1.620  0.00  0.00     0.210 HD
ENDBRANCH  17  22
BRANCH  18  24
HETATM   24  O   UNK N   1       6.919  -0.049   0.287  0.00  0.00    -0.388 OA
HETATM   25  H   UNK N   1       6.928  -0.945   0.657  0.00  0.00     0.210 HD
ENDBRANCH  18  24
ENDBRANCH   2  14
TORSDOF 5
