REMARK  2 active torsions:
REMARK  status: ('A' for Active; 'I' for Inactive)
REMARK    1  A    between atoms: N_3  and  C_18 
REMARK    2  A    between atoms: C_7  and  C_18 
ROOT
HETATM    1  O   UNK N   1       0.798  -0.058  -0.007  0.00  0.00    -0.292 OA
HETATM    2  N   UNK N   1       4.658  -2.521  -0.066  0.00  0.00    -0.348 N 
HETATM    3  C   UNK N   1       4.188  -1.254  -0.070  0.00  0.00     0.027 A 
HETATM    4  C   UNK N   1       2.775   1.276  -0.243  0.00  0.00     0.079 C 
HETATM    5  C   UNK N   1       2.803  -1.265  -0.054  0.00  0.00     0.045 A 
HETATM    6  C   UNK N   1       4.999   0.008  -0.072  0.00  0.00     0.059 C 
HETATM    7  C   UNK N   1       3.584  -3.318  -0.031  0.00  0.00     0.052 A 
HETATM    8  C   UNK N   1       4.146   1.180   0.463  0.00  0.00     0.020 C 
HETATM    9  C   UNK N   1       2.425  -2.593  -0.017  0.00  0.00     0.007 A 
HETATM   10  C   UNK N   1       6.037  -3.002  -0.107  0.00  0.00     0.129 C 
HETATM   11  C   UNK N   1       2.017  -0.028  -0.082  0.00  0.00     0.168 C 
HETATM   12  C   UNK N   1       3.614  -4.694  -0.028  0.00  0.00    -0.030 A 
HETATM   13  C   UNK N   1       6.132  -4.493   0.302  0.00  0.00     0.025 C 
HETATM   14  C   UNK N   1       4.938  -5.399  -0.092  0.00  0.00     0.042 C 
HETATM   15  C   UNK N   1       1.182  -3.224   0.010  0.00  0.00     0.015 A 
HETATM   16  C   UNK N   1       2.382  -5.374  -0.008  0.00  0.00     0.009 A 
HETATM   17  C   UNK N   1       1.168  -4.638   0.020  0.00  0.00     0.002 A 
ENDROOT
BRANCH   4  18
HETATM   18  C   UNK N   1       1.926   2.469   0.220  0.00  0.00     0.142 C 
BRANCH  18  19
HETATM   19  N   UNK N   1       2.559   3.782   0.050  0.00  0.00    -0.345 N 
HETATM   20  C   UNK N   1       1.912   4.960   0.024  0.00  0.00     0.079 A 
HETATM   21  N   UNK N   1       2.762   5.995  -0.107  0.00  0.00    -0.355 N 
HETATM   22  C   UNK N   1       0.435   5.118   0.125  0.00  0.00     0.089 C 
HETATM   23  C   UNK N   1       3.992   5.444  -0.163  0.00  0.00     0.106 A 
ATOM     24  HN  UNK N   1       2.525   6.986  -0.153  1.00  0.00     0.166 HD
HETATM   25  C   UNK N   1       3.867   4.068  -0.066  0.00  0.00     0.109 A 
ENDBRANCH  18  19
ENDBRANCH   4  18
TORSDOF 2
