REMARK  3 active torsions:
REMARK  status: ('A' for Active; 'I' for Inactive)
REMARK    1  A    between atoms: S_1  and  C_14 
REMARK    2  A    between atoms: C_6  and  C_8 
REMARK    3  A    between atoms: C_8  and  C_9 
ROOT
HETATM    1  O   UNK N   1       1.322   2.284  -0.059  0.00  0.00    -0.285 OA
HETATM    2  C   UNK N   1       2.326   1.583  -0.046  0.00  0.00     0.210 C 
ENDROOT
BRANCH   2   3
HETATM    3  C   UNK N   1       3.644   2.311  -0.061  0.00  0.00     0.110 A 
HETATM    4  N   UNK N   1       3.650   3.662  -0.050  0.00  0.00    -0.303 N 
HETATM    5  C   UNK N   1       4.958   4.013  -0.048  0.00  0.00     0.325 A 
HETATM    6  H   UNK N   1       2.870   4.263  -0.044  0.00  0.00     0.171 HD
HETATM    7  O   UNK N   1       5.343   5.167  -0.032  0.00  0.00    -0.247 OA
HETATM    8  N   UNK N   1       5.794   2.951  -0.061  0.00  0.00    -0.310 N 
HETATM    9  C   UNK N   1       4.983   1.879  -0.069  0.00  0.00     0.040 A 
HETATM   10  H   UNK N   1       6.779   2.961  -0.064  0.00  0.00     0.170 HD
HETATM   11  C   UNK N   1       5.551   0.508  -0.085  0.00  0.00     0.071 C 
ENDBRANCH   2   3
BRANCH   2  12
HETATM   12  C   UNK N   1       2.111   0.103   0.028  0.00  0.00     0.016 A 
HETATM   13  C   UNK N   1       3.159  -0.818   0.014  0.00  0.00     0.017 A 
HETATM   14  C   UNK N   1       2.923  -2.189   0.137  0.00  0.00     0.019 A 
HETATM   15  C   UNK N   1       1.620  -2.664   0.282  0.00  0.00    -0.000 A 
HETATM   16  C   UNK N   1       0.554  -1.759   0.293  0.00  0.00     0.019 A 
HETATM   17  C   UNK N   1       0.798  -0.388   0.157  0.00  0.00     0.017 A 
BRANCH  15  18
HETATM   18  S   UNK N   1       1.345  -4.417   0.545  0.00  0.00    -0.134 SA
HETATM   19  C   UNK N   1       0.121  -4.586  -0.785  0.00  0.00     0.095 C 
ENDBRANCH  15  18
ENDBRANCH   2  12
TORSDOF 3
