REMARK  6 active torsions:
REMARK  status: ('A' for Active; 'I' for Inactive)
REMARK    1  A    between atoms: N_3  and  C_5 
REMARK    2  A    between atoms: N_3  and  C_9 
REMARK    3  A    between atoms: N_3  and  C_10 
REMARK    4  A    between atoms: N_4  and  C_6 
REMARK    5  A    between atoms: N_4  and  C_7 
REMARK    6  A    between atoms: C_5  and  C_6 
ROOT
HETATM    1  S   UNK N   1       3.292  -3.750   0.132  0.00  0.00    -0.088 SA
HETATM    2  O   UNK N   1       3.503   0.443  -0.241  0.00  0.00    -0.286 OA
HETATM    3  C   UNK N   1       6.004  -0.824  -0.145  0.00  0.00     0.043 A 
HETATM    4  C   UNK N   1       4.728  -1.494  -0.059  0.00  0.00     0.059 A 
HETATM    5  C   UNK N   1       4.754  -2.919   0.051  0.00  0.00     0.028 A 
HETATM    6  C   UNK N   1       5.967  -3.632   0.068  0.00  0.00    -0.044 A 
HETATM    7  C   UNK N   1       3.471  -0.768  -0.116  0.00  0.00     0.197 A 
HETATM    8  C   UNK N   1       7.184  -1.571  -0.139  0.00  0.00     0.031 A 
HETATM    9  C   UNK N   1       2.171  -1.368  -0.052  0.00  0.00     0.032 A 
HETATM   10  C   UNK N   1       7.170  -2.952  -0.026  0.00  0.00     0.010 A 
HETATM   11  C   UNK N   1       1.962  -2.756   0.064  0.00  0.00     0.019 A 
HETATM   12  C   UNK N   1       6.003  -5.122   0.164  0.00  0.00     0.049 C 
HETATM   13  C   UNK N   1       1.032  -0.539  -0.114  0.00  0.00     0.017 A 
HETATM   14  C   UNK N   1       0.674  -3.297   0.112  0.00  0.00     0.020 A 
HETATM   15  C   UNK N   1      -0.258  -1.077  -0.063  0.00  0.00     0.001 A 
HETATM   16  C   UNK N   1      -0.436  -2.456   0.048  0.00  0.00     0.001 A 
ENDROOT
BRANCH   3  17
HETATM   17  N   UNK N   1       6.158   0.577  -0.313  0.00  0.00    -0.387 N 
HETATM   18  H   UNK N   1       6.581   0.894  -1.143  0.00  0.00     0.159 HD
BRANCH  17  19
HETATM   19  C   UNK N   1       5.738   1.567   0.646  0.00  0.00     0.150 C 
BRANCH  19  20
HETATM   20  C   UNK N   1       5.977   2.952   0.049  0.00  0.00     0.292 C 
BRANCH  20  21
HETATM   21  N   UNK N   1       7.346   3.418   0.260  0.00  0.00     0.089 N 
BRANCH  21  22
HETATM   22  C   UNK N   1       8.256   2.622  -0.560  0.00  0.00     0.268 C 
HETATM   23  C   UNK N   1       9.582   2.447   0.158  0.00  0.00     0.037 C 
ENDBRANCH  21  22
BRANCH  21  24
HETATM   24  C   UNK N   1       7.387   4.785  -0.246  0.00  0.00     0.268 C 
HETATM   25  C   UNK N   1       8.577   5.538   0.324  0.00  0.00     0.037 C 
ENDBRANCH  21  24
ENDBRANCH  20  21
ENDBRANCH  19  20
ENDBRANCH  17  19
ENDBRANCH   3  17
TORSDOF 6
