REMARK WARNING: 32 MAX_TORS EXCEEDED!!!
REMARK  66 active torsions:
REMARK  status: ('A' for Active; 'I' for Inactive)
REMARK    1  A    between atoms: C_11  and  C_7 
REMARK    2  A    between atoms: C_12  and  C_8 
REMARK    3  A    between atoms: C_13  and  C_9 
REMARK    4  A    between atoms: C_14  and  C_10 
REMARK    5  A    between atoms: C_15  and  C_11 
REMARK    6  A    between atoms: C_16  and  C_12 
REMARK    7  A    between atoms: C_17  and  C_13 
REMARK    8  A    between atoms: C_18  and  C_14 
REMARK    9  A    between atoms: C_19  and  C_15 
REMARK   10  A    between atoms: C_20  and  C_16 
REMARK   11  A    between atoms: C_21  and  C_17 
REMARK   12  A    between atoms: C_36  and  C_18 
REMARK   13  A    between atoms: C_22  and  C_19 
REMARK   14  A    between atoms: C_23  and  C_20 
REMARK   15  A    between atoms: C_24  and  C_21 
REMARK   16  A    between atoms: C_25  and  C_22 
REMARK   17  A    between atoms: C_31  and  C_23 
REMARK   18  A    between atoms: C_35  and  C_24 
REMARK   19  A    between atoms: C_27  and  C_26 
REMARK   20  A    between atoms: C_28  and  C_27 
REMARK   21  A    between atoms: C_29  and  C_28 
REMARK   22  A    between atoms: C_30  and  C_29 
REMARK   23  A    between atoms: C_32  and  C_30 
REMARK   24  A    between atoms: C_33  and  C_31 
REMARK   25  A    between atoms: C_34  and  C_32 
REMARK   26  A    between atoms: C_37  and  C_33 
REMARK   27  A    between atoms: C_38  and  C_34 
REMARK   28  A    between atoms: C_39  and  C_35 
REMARK   29  A    between atoms: C_41  and  C_36 
REMARK   30  A    between atoms: C_40  and  C_37 
REMARK   31  A    between atoms: C_42  and  C_38 
REMARK   32  A    between atoms: C_43  and  C_39 
REMARK   33  A    between atoms: C_44  and  C_40 
REMARK   34  A    between atoms: C_45  and  C_41 
REMARK   35  A    between atoms: C_46  and  C_42 
REMARK   36  A    between atoms: C_48  and  C_43 
REMARK   37  A    between atoms: C_53  and  C_44 
REMARK   38  A    between atoms: C_54  and  C_45 
REMARK   39  A    between atoms: C_57  and  C_46 
REMARK   40  A    between atoms: C_49  and  C_47 
REMARK   41  A    between atoms: C_54  and  C_47 
REMARK   42  A    between atoms: O_83  and  C_48 
REMARK   43  A    between atoms: O_84  and  C_49 
REMARK   44  A    between atoms: C_53  and  C_50 
REMARK   45  A    between atoms: C_58  and  C_50 
REMARK   46  A    between atoms: C_56  and  C_51 
REMARK   47  A    between atoms: O_81  and  C_51 
REMARK   48  A    between atoms: C_55  and  C_52 
REMARK   49  A    between atoms: O_85  and  C_52 
REMARK   50  A    between atoms: C_54  and  O_82 
REMARK   51  A    between atoms: C_57  and  O_72 
REMARK   52  A    between atoms: C_58  and  O_73 
REMARK   53  A    between atoms: C_59  and  N_69 
REMARK   54  A    between atoms: C_60  and  N_67 
REMARK   55  A    between atoms: C_61  and  O_74 
REMARK   56  A    between atoms: C_62  and  O_88 
REMARK   57  A    between atoms: C_63  and  O_83 
REMARK   58  A    between atoms: C_64  and  O_84 
REMARK   59  A    between atoms: C_65  and  O_85 
REMARK   60  A    between atoms: C_66  and  O_89 
REMARK   61  A    between atoms: P_90  and  O_75 
REMARK   62  A    between atoms: P_90  and  O_76 
REMARK   63  A    between atoms: P_91  and  O_78 
REMARK   64  A    between atoms: P_91  and  O_79 
REMARK   65  A    between atoms: P_90  and  O_88 
REMARK   66  A    between atoms: P_91  and  O_89 
ROOT
HETATM    1  C   UNK N   1       8.242   9.673   0.069  0.00  0.00     0.180 C 
HETATM    2  C   UNK N   1       8.987  12.229   0.748  0.00  0.00     0.170 C 
HETATM    3  C   UNK N   1       9.743   9.720   0.372  0.00  0.00     0.196 C 
HETATM    4  C   UNK N   1      10.111  11.159   0.909  0.00  0.00     0.181 C 
HETATM    5  C   UNK N   1       7.654  11.595   1.283  0.00  0.00     0.285 C 
HETATM    6  O   UNK N   1       7.509  10.180   1.158  0.00  0.00    -0.349 OA
ENDROOT
BRANCH   5   7
HETATM    7  O   UNK N   1       6.521  12.261   0.799  0.00  0.00    -0.356 OA
BRANCH   7   8
HETATM    8  C   UNK N   1       6.234  11.796  -0.508  0.00  0.00     0.205 C 
BRANCH   8   9
HETATM    9  C   UNK N   1       4.775  11.870  -0.750  0.00  0.00     0.180 C 
HETATM   10  C   UNK N   1       4.168  10.998   0.366  0.00  0.00     0.180 C 
HETATM   11  C   UNK N   1       2.652  11.190   0.476  0.00  0.00     0.180 C 
HETATM   12  C   UNK N   1       2.487  12.752   0.651  0.00  0.00     0.170 C 
HETATM   13  C   UNK N   1       3.024  13.376  -0.655  0.00  0.00     0.297 C 
HETATM   14  O   UNK N   1       4.423  13.243  -0.697  0.00  0.00    -0.348 OA
BRANCH  10  15
HETATM   15  O   UNK N   1       4.558   9.678   0.137  0.00  0.00    -0.390 OA
HETATM   16  H   UNK N   1       3.898   8.985  -0.023  0.00  0.00     0.210 HD
ENDBRANCH  10  15
BRANCH  11  17
HETATM   17  O   UNK N   1       2.142  10.446   1.570  0.00  0.00    -0.381 OA
BRANCH  17  18
HETATM   18  C   UNK N   1       2.347   9.051   1.392  0.00  0.00     0.168 C 
BRANCH  18  19
HETATM   19  C   UNK N   1       1.520   8.414   0.265  0.00  0.00     0.026 C 
BRANCH  19  20
HETATM   20  C   UNK N   1       2.315   8.138  -1.020  0.00  0.00     0.002 C 
BRANCH  20  21
HETATM   21  C   UNK N   1       3.545   7.255  -0.812  0.00  0.00     0.000 C 
BRANCH  21  22
HETATM   22  C   UNK N   1       3.244   6.040   0.045  0.00  0.00     0.000 C 
BRANCH  22  23
HETATM   23  C   UNK N   1       4.543   5.352   0.394  0.00  0.00     0.000 C 
BRANCH  23  24
HETATM   24  C   UNK N   1       4.562   3.975  -0.238  0.00  0.00     0.000 C 
BRANCH  24  25
HETATM   25  C   UNK N   1       5.991   3.499  -0.423  0.00  0.00    -0.000 C 
BRANCH  25  26
HETATM   26  C   UNK N   1       6.608   3.107   0.906  0.00  0.00    -0.005 C 
HETATM   27  C   UNK N   1       8.108   2.978   0.741  0.00  0.00     0.005 C 
ENDBRANCH  25  26
ENDBRANCH  24  25
ENDBRANCH  23  24
ENDBRANCH  22  23
ENDBRANCH  21  22
ENDBRANCH  20  21
ENDBRANCH  19  20
ENDBRANCH  18  19
ENDBRANCH  17  18
ENDBRANCH  11  17
BRANCH  12  28
HETATM   28  N   UNK N   1       1.208  13.367   0.990  0.00  0.00    -0.362 N 
HETATM   29  C   UNK N   1       0.073  12.916   1.350  0.00  0.00     0.118 C 
ATOM     30  HN  UNK N   1       1.227  14.385   0.925  1.00  0.00     0.162 HD
BRANCH  29  31
HETATM   31  C   UNK N   1      -0.265  11.461   1.475  0.00  0.00     0.162 C 
BRANCH  31  32
HETATM   32  C   UNK N   1      -0.537  10.794   0.157  0.00  0.00     0.134 C 
HETATM   33  O   UNK N   1      -1.007   9.667   0.154  0.00  0.00    -0.298 OA
BRANCH  32  34
HETATM   34  C   UNK N   1      -0.326  11.508  -1.146  0.00  0.00     0.079 C 
BRANCH  34  35
HETATM   35  C   UNK N   1      -1.656  11.844  -1.801  0.00  0.00     0.007 C 
BRANCH  35  36
HETATM   36  C   UNK N   1      -2.389  12.929  -1.023  0.00  0.00     0.000 C 
BRANCH  36  37
HETATM   37  C   UNK N   1      -2.976  12.360   0.260  0.00  0.00     0.000 C 
BRANCH  37  38
HETATM   38  C   UNK N   1      -3.706  13.440   1.027  0.00  0.00     0.000 C 
BRANCH  38  39
HETATM   39  C   UNK N   1      -5.205  13.215   0.958  0.00  0.00     0.000 C 
BRANCH  39  40
HETATM   40  C   UNK N   1      -5.717  13.314  -0.475  0.00  0.00     0.000 C 
BRANCH  40  41
HETATM   41  C   UNK N   1      -5.539  11.988  -1.208  0.00  0.00     0.000 C 
BRANCH  41  42
HETATM   42  C   UNK N   1      -6.784  11.116  -1.145  0.00  0.00    -0.000 C 
BRANCH  42  43
HETATM   43  C   UNK N   1      -7.088  10.646   0.268  0.00  0.00    -0.005 C 
HETATM   44  C   UNK N   1      -8.040  11.617   0.939  0.00  0.00     0.005 C 
ENDBRANCH  42  43
ENDBRANCH  41  42
ENDBRANCH  40  41
ENDBRANCH  39  40
ENDBRANCH  38  39
ENDBRANCH  37  38
ENDBRANCH  36  37
ENDBRANCH  35  36
ENDBRANCH  34  35
ENDBRANCH  32  34
ENDBRANCH  31  32
ENDBRANCH  29  31
BRANCH  29  45
HETATM   45  O   UNK N   1      -0.878  13.807   1.696  0.00  0.00    -0.349 OA
HETATM   46  H   UNK N   1      -0.672  14.689   1.936  0.00  0.00     0.219 HD
ENDBRANCH  29  45
ENDBRANCH  12  28
BRANCH  13  47
HETATM   47  O   UNK N   1       2.612  14.693  -0.951  0.00  0.00    -0.264 OA
BRANCH  47  48
HETATM   48  P   UNK N   1       3.092  15.985   0.131  0.00  0.00     0.393 P 
HETATM   49  O   UNK N   1       4.606  16.327   0.132  0.00  0.00    -0.631 OA
BRANCH  48  50
HETATM   50  O   UNK N   1       2.330  16.169   1.683  0.00  0.00    -0.307 OA
HETATM   51  H   UNK N   1       2.207  16.588   2.549  0.00  0.00     0.222 HD
ENDBRANCH  48  50
BRANCH  48  52
HETATM   52  O   UNK N   1       2.454  17.328  -0.740  0.00  0.00    -0.307 OA
HETATM   53  H   UNK N   1       2.929  18.017  -1.230  0.00  0.00     0.222 HD
ENDBRANCH  48  52
ENDBRANCH  47  48
ENDBRANCH  13  47
ENDBRANCH   8   9
ENDBRANCH   7   8
ENDBRANCH   5   7
BRANCH   2  54
HETATM   54  N   UNK N   1       8.880  12.718  -0.626  0.00  0.00    -0.362 N 
HETATM   55  C   UNK N   1       8.177  13.739  -1.030  0.00  0.00     0.111 C 
ATOM     56  HN  UNK N   1       9.406  12.211  -1.338  1.00  0.00     0.162 HD
BRANCH  55  57
HETATM   57  C   UNK N   1       7.292  14.562  -0.123  0.00  0.00     0.083 C 
BRANCH  57  58
HETATM   58  C   UNK N   1       7.976  15.199   1.067  0.00  0.00     0.008 C 
BRANCH  58  59
HETATM   59  C   UNK N   1       7.339  16.547   1.299  0.00  0.00     0.000 C 
BRANCH  59  60
HETATM   60  C   UNK N   1       8.041  17.589   0.452  0.00  0.00     0.000 C 
BRANCH  60  61
HETATM   61  C   UNK N   1       8.070  17.231  -1.036  0.00  0.00     0.000 C 
BRANCH  61  62
HETATM   62  C   UNK N   1       9.061  18.077  -1.822  0.00  0.00     0.000 C 
BRANCH  62  63
HETATM   63  C   UNK N   1      10.429  18.097  -1.159  0.00  0.00     0.000 C 
BRANCH  63  64
HETATM   64  C   UNK N   1      10.769  19.500  -0.679  0.00  0.00     0.004 C 
BRANCH  64  65
HETATM   65  C   UNK N   1       9.924  19.937   0.513  0.00  0.00     0.027 C 
BRANCH  65  66
HETATM   66  C   UNK N   1       8.654  20.605   0.055  0.00  0.00    -0.031 C 
HETATM   67  C   UNK N   1       8.400  21.888   0.317  0.00  0.00    -0.031 C 
BRANCH  67  68
HETATM   68  C   UNK N   1       9.364  22.733   1.089  0.00  0.00     0.027 C 
BRANCH  68  69
HETATM   69  C   UNK N   1      10.170  23.613   0.150  0.00  0.00     0.004 C 
BRANCH  69  70
HETATM   70  C   UNK N   1      11.203  22.766  -0.579  0.00  0.00     0.000 C 
BRANCH  70  71
HETATM   71  C   UNK N   1      12.297  23.623  -1.185  0.00  0.00    -0.000 C 
BRANCH  71  72
HETATM   72  C   UNK N   1      13.253  24.103  -0.109  0.00  0.00    -0.005 C 
HETATM   73  C   UNK N   1      12.923  25.532   0.269  0.00  0.00     0.005 C 
ENDBRANCH  71  72
ENDBRANCH  70  71
ENDBRANCH  69  70
ENDBRANCH  68  69
ENDBRANCH  67  68
ENDBRANCH  65  66
ENDBRANCH  64  65
ENDBRANCH  63  64
ENDBRANCH  62  63
ENDBRANCH  61  62
ENDBRANCH  60  61
ENDBRANCH  59  60
ENDBRANCH  58  59
ENDBRANCH  57  58
ENDBRANCH  55  57
BRANCH  55  74
HETATM   74  O   UNK N   1       8.160  14.036  -2.341  0.00  0.00    -0.350 OA
HETATM   75  H   UNK N   1       8.333  14.150  -3.255  0.00  0.00     0.219 HD
ENDBRANCH  55  74
ENDBRANCH   2  54
BRANCH   4  76
HETATM   76  O   UNK N   1      11.408  11.617   0.550  0.00  0.00    -0.381 OA
BRANCH  76  77
HETATM   77  C   UNK N   1      11.434  11.849  -0.837  0.00  0.00     0.171 C 
BRANCH  77  78
HETATM   78  C   UNK N   1      12.483  12.854  -1.264  0.00  0.00     0.058 C 
BRANCH  78  79
HETATM   79  C   UNK N   1      12.228  14.307  -0.866  0.00  0.00     0.122 C 
BRANCH  79  80
HETATM   80  C   UNK N   1      12.567  14.519   0.604  0.00  0.00     0.032 C 
BRANCH  80  81
HETATM   81  C   UNK N   1      12.813  15.990   0.920  0.00  0.00     0.002 C 
BRANCH  81  82
HETATM   82  C   UNK N   1      14.169  16.427   0.380  0.00  0.00     0.000 C 
BRANCH  82  83
HETATM   83  C   UNK N   1      14.005  17.143  -0.954  0.00  0.00     0.000 C 
BRANCH  83  84
HETATM   84  C   UNK N   1      14.673  18.499  -0.902  0.00  0.00    -0.000 C 
BRANCH  84  85
HETATM   85  C   UNK N   1      13.898  19.411   0.027  0.00  0.00    -0.005 C 
HETATM   86  C   UNK N   1      14.863  20.298   0.778  0.00  0.00     0.005 C 
ENDBRANCH  84  85
ENDBRANCH  83  84
ENDBRANCH  82  83
ENDBRANCH  81  82
ENDBRANCH  80  81
ENDBRANCH  79  80
BRANCH  79  87
HETATM   87  O   UNK N   1      10.901  14.720  -1.110  0.00  0.00    -0.391 OA
HETATM   88  C   UNK N   1      10.802  15.135  -2.447  0.00  0.00     0.202 C 
ENDBRANCH  79  87
ENDBRANCH  78  79
ENDBRANCH  77  78
ENDBRANCH  76  77
ENDBRANCH   4  76
BRANCH   1  89
HETATM   89  C   UNK N   1       7.698   8.309  -0.328  0.00  0.00     0.201 C 
BRANCH  89  90
HETATM   90  O   UNK N   1       7.736   7.407   0.730  0.00  0.00    -0.393 OA
HETATM   91  C   UNK N   1       7.767   6.170   0.093  0.00  0.00     0.201 C 
ENDBRANCH  89  90
ENDBRANCH   1  89
BRANCH   3  92
HETATM   92  O   UNK N   1      10.421   9.405  -0.827  0.00  0.00    -0.286 OA
BRANCH  92  93
HETATM   93  P   UNK N   1      11.173   7.821  -0.746  0.00  0.00     0.391 P 
HETATM   94  O   UNK N   1      12.691   8.054  -0.534  0.00  0.00    -0.632 OA
BRANCH  93  95
HETATM   95  O   UNK N   1      10.632   6.816   0.564  0.00  0.00    -0.307 OA
HETATM   96  H   UNK N   1       9.995   6.797   1.295  0.00  0.00     0.222 HD
ENDBRANCH  93  95
BRANCH  93  97
HETATM   97  O   UNK N   1      11.006   6.987  -2.258  0.00  0.00    -0.307 OA
HETATM   98  H   UNK N   1      10.556   6.834  -3.104  0.00  0.00     0.222 HD
ENDBRANCH  93  97
ENDBRANCH  92  93
ENDBRANCH   3  92
TORSDOF 66
