REMARK  3 active torsions:
REMARK  status: ('A' for Active; 'I' for Inactive)
REMARK    1  A    between atoms: C_7  and  O_3 
REMARK    2  A    between atoms: C_18  and  C_21 
REMARK    3  A    between atoms: C_21  and  C_26 
ROOT
HETATM    1  O   UNK N   1       2.985   2.781  -0.166  0.00  0.00    -0.344 OA
HETATM    2  O   UNK N   1       7.241   0.669   0.227  0.00  0.00    -0.335 OA
HETATM    3  O   UNK N   1       3.254  -1.985  -0.091  0.00  0.00    -0.274 OA
HETATM    4  O   UNK N   1       3.308  -4.185  -0.070  0.00  0.00    -0.260 OA
HETATM    5  C   UNK N   1       0.912   1.643   0.179  0.00  0.00     0.044 C 
HETATM    6  C   UNK N   1       1.564   0.309  -0.198  0.00  0.00     0.163 C 
HETATM    7  C   UNK N   1       1.641   2.807  -0.485  0.00  0.00     0.131 C 
HETATM    8  C   UNK N   1       3.078   0.379  -0.104  0.00  0.00     0.040 A 
HETATM    9  C   UNK N   1       3.714   1.637  -0.082  0.00  0.00     0.094 A 
HETATM   10  C   UNK N   1       5.108   1.716   0.023  0.00  0.00     0.032 A 
HETATM   11  C   UNK N   1       3.856  -0.796  -0.038  0.00  0.00     0.104 A 
HETATM   12  C   UNK N   1       5.266  -0.718   0.113  0.00  0.00     0.040 A 
HETATM   13  C   UNK N   1       5.889   0.556   0.130  0.00  0.00     0.097 A 
HETATM   14  C   UNK N   1      -0.561   1.619  -0.201  0.00  0.00     0.015 C 
HETATM   15  C   UNK N   1       7.968   1.855   0.190  0.00  0.00     0.078 A 
HETATM   16  C   UNK N   1       1.064   4.137  -0.028  0.00  0.00     0.040 C 
HETATM   17  C   UNK N   1       5.985  -1.934   0.254  0.00  0.00    -0.036 A 
HETATM   18  C   UNK N   1       5.780   3.022   0.009  0.00  0.00     0.016 A 
HETATM   19  C   UNK N   1       7.111   3.093   0.076  0.00  0.00     0.012 A 
HETATM   20  C   UNK N   1       8.791   1.962   1.456  0.00  0.00     0.051 C 
HETATM   21  C   UNK N   1       8.911   1.805  -0.995  0.00  0.00     0.051 C 
HETATM   22  C   UNK N   1       5.290  -3.141   0.197  0.00  0.00     0.090 A 
HETATM   23  C   UNK N   1       3.914  -3.132   0.002  0.00  0.00     0.288 A 
ENDROOT
BRANCH  17  24
HETATM   24  C   UNK N   1       7.457  -1.980   0.543  0.00  0.00     0.039 C 
BRANCH  24  25
HETATM   25  C   UNK N   1       8.236  -2.761  -0.494  0.00  0.00     0.000 C 
HETATM   26  C   UNK N   1       9.674  -2.878  -0.032  0.00  0.00     0.005 C 
ENDBRANCH  24  25
ENDBRANCH  17  24
BRANCH   6  27
HETATM   27  O   UNK N   1       1.061  -0.667   0.667  0.00  0.00    -0.390 OA
HETATM   28  H   UNK N   1       0.300  -0.703   1.267  0.00  0.00     0.210 HD
ENDBRANCH   6  27
TORSDOF 3
