REMARK  7 active torsions:
REMARK  status: ('A' for Active; 'I' for Inactive)
REMARK    1  A    between atoms: O_3  and  C_12 
REMARK    2  A    between atoms: O_3  and  C_14 
REMARK    3  A    between atoms: O_5  and  C_18 
REMARK    4  A    between atoms: O_5  and  C_21 
REMARK    5  A    between atoms: C_7  and  C_11 
REMARK    6  A    between atoms: C_8  and  C_12 
REMARK    7  A    between atoms: C_14  and  C_15 
ROOT
HETATM    1  C   UNK N   1       4.096   0.035  -0.626  0.00  0.00    -0.031 A 
HETATM    2  C   UNK N   1       4.119   1.430  -0.583  0.00  0.00     0.046 A 
HETATM    3  C   UNK N   1       4.860  -0.704   0.284  0.00  0.00     0.009 A 
HETATM    4  C   UNK N   1       4.921   2.090   0.348  0.00  0.00     0.076 A 
HETATM    5  C   UNK N   1       5.640  -0.050   1.240  0.00  0.00     0.003 A 
HETATM    6  C   UNK N   1       5.682   1.347   1.266  0.00  0.00     0.037 A 
ENDROOT
BRANCH   1   7
HETATM    7  C   UNK N   1       3.295  -0.664  -1.671  0.00  0.00     0.217 C 
BRANCH   7   8
HETATM    8  O   UNK N   1       1.949  -0.428  -1.495  0.00  0.00    -0.317 OA
BRANCH   8   9
HETATM    9  C   UNK N   1       1.203  -1.026  -0.528  0.00  0.00     0.264 C 
HETATM   10  O   UNK N   1       0.042  -0.683  -0.382  0.00  0.00    -0.265 OA
BRANCH   9  11
HETATM   11  C   UNK N   1       1.795  -2.060   0.408  0.00  0.00     0.102 A 
HETATM   12  C   UNK N   1       1.068  -3.405   0.424  0.00  0.00    -0.027 A 
HETATM   13  C   UNK N   1       2.337  -3.244  -0.401  0.00  0.00     0.034 A 
HETATM   14  C   UNK N   1       1.187  -4.228   1.699  0.00  0.00     0.016 C 
HETATM   15  C   UNK N   1      -0.164  -3.608  -0.443  0.00  0.00     0.016 C 
BRANCH  13  16
HETATM   16  C   UNK N   1       3.603  -3.681   0.280  0.00  0.00     0.016 C 
HETATM   17  C   UNK N   1       4.350  -4.690  -0.175  0.00  0.00     0.100 C 
HETATM   18 Cl   UNK N   1       3.894  -5.611  -1.605  0.00  0.00    -0.071 Cl
HETATM   19 Cl   UNK N   1       5.823  -5.112   0.678  0.00  0.00    -0.071 Cl
ENDBRANCH  13  16
ENDBRANCH   9  11
ENDBRANCH   8   9
ENDBRANCH   7   8
ENDBRANCH   1   7
BRANCH   4  20
HETATM   20  O   UNK N   1       4.988   3.441   0.313  0.00  0.00    -0.311 OA
BRANCH  20  21
HETATM   21  C   UNK N   1       6.149   4.134   0.190  0.00  0.00     0.076 A 
HETATM   22  C   UNK N   1       7.372   3.481  -0.065  0.00  0.00     0.037 A 
HETATM   23  C   UNK N   1       8.541   4.219  -0.257  0.00  0.00     0.003 A 
HETATM   24  C   UNK N   1       8.500   5.613  -0.202  0.00  0.00     0.000 A 
HETATM   25  C   UNK N   1       7.292   6.269   0.052  0.00  0.00     0.003 A 
HETATM   26  C   UNK N   1       6.119   5.531   0.244  0.00  0.00     0.037 A 
ENDBRANCH  20  21
ENDBRANCH   4  20
TORSDOF 7
