REMARK  3 active torsions:
REMARK  status: ('A' for Active; 'I' for Inactive)
REMARK    1  A    between atoms: O_2  and  C_14 
REMARK    2  A    between atoms: O_3  and  C_18 
REMARK    3  A    between atoms: C_4  and  C_9 
ROOT
HETATM    1  O   UNK N   1       6.174   2.320   0.235  0.00  0.00    -0.346 OA
HETATM    2  C   UNK N   1       4.869   0.257  -0.077  0.00  0.00    -0.023 A 
HETATM    3  C   UNK N   1       4.902   1.770   0.102  0.00  0.00     0.215 A 
HETATM    4  C   UNK N   1       7.297   0.218   0.072  0.00  0.00    -0.002 A 
HETATM    5  C   UNK N   1       6.010  -0.449  -0.089  0.00  0.00     0.024 A 
HETATM    6  C   UNK N   1       7.328   1.607   0.231  0.00  0.00     0.082 A 
HETATM    7  C   UNK N   1       8.482  -0.521   0.076  0.00  0.00     0.017 A 
HETATM    8  C   UNK N   1       8.555   2.260   0.386  0.00  0.00     0.074 A 
HETATM    9  C   UNK N   1       9.745   1.522   0.385  0.00  0.00     0.068 A 
HETATM   10  C   UNK N   1       9.707   0.132   0.233  0.00  0.00     0.037 A 
ENDROOT
BRANCH   2  11
HETATM   11  C   UNK N   1       3.568  -0.449  -0.185  0.00  0.00    -0.028 A 
HETATM   12  C   UNK N   1       2.363   0.256  -0.045  0.00  0.00     0.015 A 
HETATM   13  C   UNK N   1       1.140  -0.421  -0.081  0.00  0.00     0.037 A 
HETATM   14  C   UNK N   1       1.112  -1.807  -0.263  0.00  0.00     0.065 A 
HETATM   15  C   UNK N   1       2.304  -2.515  -0.423  0.00  0.00     0.037 A 
HETATM   16  C   UNK N   1       3.526  -1.841  -0.381  0.00  0.00     0.015 A 
BRANCH  14  17
HETATM   17  O   UNK N   1      -0.061  -2.459  -0.277  0.00  0.00    -0.361 OA
HETATM   18  H   UNK N   1      -0.865  -1.978  -0.287  0.00  0.00     0.217 HD
ENDBRANCH  14  17
ENDBRANCH   2  11
BRANCH   9  19
HETATM   19  O   UNK N   1      10.923   2.148   0.528  0.00  0.00    -0.361 OA
HETATM   20  H   UNK N   1      11.713   1.654   0.627  0.00  0.00     0.217 HD
ENDBRANCH   9  19
TORSDOF 3
