REMARK  0 active torsions:
REMARK  status: ('A' for Active; 'I' for Inactive)
ROOT
HETATM    1 Mo   UNK N   1       1.791   0.000   0.000  0.00  0.00     0.000 Mo
HETATM    2  S   UNK N   1       3.234   1.440   0.000  0.00  0.00     0.000 SA
HETATM    3  S   UNK N   1       3.234  -1.440   0.000  0.00  0.00     0.000 SA
ENDROOT
TORSDOF 0
