REMARK  7 active torsions:
REMARK  status: ('A' for Active; 'I' for Inactive)
REMARK    1  A    between atoms: C_5  and  C_8 
REMARK    2  A    between atoms: C_6  and  N_7 
REMARK    3  A    between atoms: N_7  and  C_9 
REMARK    4  A    between atoms: C_9  and  C_10 
REMARK    5  A    between atoms: C_16  and  O_21 
REMARK    6  A    between atoms: C_18  and  O_22 
REMARK    7  A    between atoms: O_21  and  C_24 
ROOT
HETATM    1  N   UNK N   1      -1.065  -0.017   1.397  0.00  0.00    -0.411 N 
HETATM    2  H   UNK N   1      -1.125   0.686   2.134  0.00  0.00     0.154 HD
ENDROOT
BRANCH   1   3
HETATM    3  C   UNK N   1      -2.176  -0.377   0.506  0.00  0.00     0.103 C 
HETATM    4  C   UNK N   1      -3.333   0.565   0.847  0.00  0.00     0.029 C 
HETATM    5  C   UNK N   1      -4.609   0.186   0.110  0.00  0.00     0.021 C 
HETATM    6  C   UNK N   1      -4.935  -1.264   0.422  0.00  0.00     0.114 C 
HETATM    7  N   UNK N   1      -3.867  -2.115  -0.088  0.00  0.00    -0.411 N 
HETATM    8  C   UNK N   1      -2.635  -1.862   0.665  0.00  0.00     0.132 C 
HETATM    9  H   UNK N   1      -3.962  -2.783  -0.852  0.00  0.00     0.153 HD
BRANCH   8  10
HETATM   10  C   UNK N   1      -1.593  -2.827   0.180  0.00  0.00    -0.034 A 
HETATM   11  C   UNK N   1      -1.155  -2.794  -1.154  0.00  0.00     0.009 A 
HETATM   12  C   UNK N   1      -0.152  -3.666  -1.585  0.00  0.00     0.001 A 
HETATM   13  C   UNK N   1       0.419  -4.572  -0.687  0.00  0.00     0.000 A 
HETATM   14  C   UNK N   1      -0.017  -4.611   0.641  0.00  0.00     0.001 A 
HETATM   15  C   UNK N   1      -1.022  -3.740   1.075  0.00  0.00     0.009 A 
ENDBRANCH   8  10
ENDBRANCH   1   3
BRANCH   1  16
HETATM   16  C   UNK N   1       0.135  -0.789   1.095  0.00  0.00     0.156 C 
BRANCH  16  17
HETATM   17  C   UNK N   1       1.204  -0.021   0.381  0.00  0.00    -0.005 A 
HETATM   18  C   UNK N   1       1.066   1.349   0.129  0.00  0.00     0.048 A 
HETATM   19  C   UNK N   1       2.093   2.058  -0.496  0.00  0.00     0.079 A 
HETATM   20  C   UNK N   1       3.261   1.396  -0.891  0.00  0.00     0.040 A 
HETATM   21  C   UNK N   1       3.399   0.026  -0.659  0.00  0.00     0.040 A 
HETATM   22  C   UNK N   1       2.376  -0.692  -0.014  0.00  0.00     0.076 A 
BRANCH  19  23
HETATM   23  O   UNK N   1       1.960   3.387  -0.685  0.00  0.00    -0.255 OA
BRANCH  23  24
HETATM   24  C   UNK N   1       2.640   4.323   0.073  0.00  0.00     0.530 C 
HETATM   25  F   UNK N   1       3.477   5.061  -0.742  0.00  0.00    -0.144 F 
HETATM   26  F   UNK N   1       3.393   3.727   1.076  0.00  0.00    -0.144 F 
HETATM   27  F   UNK N   1       1.719   5.169   0.659  0.00  0.00    -0.144 F 
ENDBRANCH  23  24
ENDBRANCH  19  23
BRANCH  22  28
HETATM   28  O   UNK N   1       2.500  -2.019   0.237  0.00  0.00    -0.355 OA
HETATM   29  C   UNK N   1       3.609  -2.757  -0.105  0.00  0.00     0.210 C 
ENDBRANCH  22  28
ENDBRANCH  16  17
ENDBRANCH   1  16
TORSDOF 7
