REMARK  3 active torsions:
REMARK  status: ('A' for Active; 'I' for Inactive)
REMARK    1  A    between atoms: C_2  and  C_1 
REMARK    2  A    between atoms: N_19  and  C_3 
REMARK    3  A    between atoms: N_12  and  C_15 
ROOT
HETATM    1  C   UNK N   1      -1.018  -1.006  -0.117  0.00  0.00     0.124 A 
HETATM    2  N   UNK N   1      -0.266  -2.149  -0.045  0.00  0.00    -0.340 N 
ATOM      3  HN  UNK N   1      -0.583  -3.118  -0.063  1.00  0.00     0.167 HD
HETATM    4  N   UNK N   1      -0.261   0.104  -0.066  0.00  0.00    -0.340 N 
HETATM    5  C   UNK N   1       0.974  -0.330   0.048  0.00  0.00     0.062 A 
HETATM    6  C   UNK N   1       1.003  -1.679   0.057  0.00  0.00     0.060 A 
HETATM    7  C   UNK N   1       2.075   0.460   0.183  0.00  0.00     0.061 A 
HETATM    8  C   UNK N   1       3.321  -0.145   0.320  0.00  0.00     0.032 A 
HETATM    9  C   UNK N   1       2.221  -2.363   0.178  0.00  0.00     0.034 A 
HETATM   10  C   UNK N   1       3.406  -1.573   0.301  0.00  0.00     0.031 A 
HETATM   11  H   UNK N   1      -0.566   1.040  -0.106  0.00  0.00     0.167 HD
ENDROOT
BRANCH   1  12
HETATM   12  C   UNK N   1      -2.509  -0.892  -0.168  0.00  0.00     0.103 A 
HETATM   13  C   UNK N   1      -3.107   0.403  -0.200  0.00  0.00     0.061 A 
HETATM   14  C   UNK N   1      -4.503   0.542  -0.205  0.00  0.00     0.057 A 
HETATM   15  C   UNK N   1      -5.299  -0.621  -0.188  0.00  0.00     0.050 A 
HETATM   16  C   UNK N   1      -5.129   1.815  -0.220  0.00  0.00     0.131 A 
HETATM   17  C   UNK N   1      -6.693  -0.509  -0.187  0.00  0.00     0.030 A 
HETATM   18  N   UNK N   1      -4.720  -1.850  -0.169  0.00  0.00    -0.322 N 
HETATM   19  C   UNK N   1      -7.300   0.749  -0.201  0.00  0.00     0.005 A 
HETATM   20  C   UNK N   1      -6.520   1.905  -0.218  0.00  0.00     0.043 A 
HETATM   21  C   UNK N   1      -3.356  -2.019  -0.156  0.00  0.00     0.262 A 
HETATM   22  H   UNK N   1      -5.297  -2.648  -0.163  0.00  0.00     0.169 HD
HETATM   23  O   UNK N   1      -2.894  -3.145  -0.126  0.00  0.00    -0.267 OA
HETATM   24  F   UNK N   1      -4.411   2.968  -0.232  0.00  0.00    -0.205 F 
BRANCH  13  25
HETATM   25  N   UNK N   1      -2.307   1.571  -0.216  0.00  0.00    -0.397 N 
HETATM   26  H   UNK N   1      -1.326   1.495  -0.227  0.00  0.00     0.156 HD
HETATM   27  H   UNK N   1      -2.732   2.459  -0.216  0.00  0.00     0.156 HD
ENDBRANCH  13  25
ENDBRANCH   1  12
BRANCH   8  28
HETATM   28  N   UNK N   1       4.451   0.707   0.492  0.00  0.00    -0.377 N 
HETATM   29  C   UNK N   1       5.805   0.227   0.326  0.00  0.00     0.153 C 
HETATM   30  C   UNK N   1       6.792   1.411   0.311  0.00  0.00     0.291 C 
HETATM   31  N   UNK N   1       6.320   2.537  -0.522  0.00  0.00     0.087 N 
HETATM   32  C   UNK N   1       4.934   2.962  -0.268  0.00  0.00     0.291 C 
HETATM   33  C   UNK N   1       6.418   2.178  -1.927  0.00  0.00     0.310 C 
HETATM   34  C   UNK N   1       4.236   2.114   0.783  0.00  0.00     0.153 C 
ENDBRANCH   8  28
TORSDOF 3
