REMARK  15 active torsions:
REMARK  status: ('A' for Active; 'I' for Inactive)
REMARK    1  A    between atoms: S_1  and  C_17 
REMARK    2  A    between atoms: S_1  and  C_21 
REMARK    3  A    between atoms: O_4  and  C_19 
REMARK    4  A    between atoms: O_6  and  C_21 
REMARK    5  A    between atoms: O_7  and  C_22 
REMARK    6  A    between atoms: N_9  and  C_12 
REMARK       I    between atoms: N_9  and  C_16 
REMARK       I    between atoms: N_10  and  C_18 
REMARK    7  A    between atoms: N_10  and  C_20 
REMARK    8  A    between atoms: N_11  and  C_15 
REMARK    9  A    between atoms: C_12  and  C_17 
REMARK   10  A    between atoms: C_12  and  C_18 
REMARK   11  A    between atoms: C_13  and  C_14 
REMARK   12  A    between atoms: C_13  and  C_15 
REMARK   13  A    between atoms: C_14  and  C_16 
REMARK   14  A    between atoms: C_15  and  C_19 
REMARK   15  A    between atoms: C_20  and  C_22 
ROOT
HETATM    1  C   UNK N   1       7.656   0.750  -0.008  0.00  0.00     0.185 C 
ENDROOT
BRANCH   1   2
HETATM    2  N   UNK N   1       6.408   0.878   0.711  0.00  0.00    -0.347 N 
HETATM    3  C   UNK N   1       5.193   0.771   0.127  0.00  0.00     0.218 C 
HETATM    4  O   UNK N   1       5.088   0.599  -1.078  0.00  0.00    -0.274 OA
HETATM    5  H   UNK N   1       6.444   1.053   1.679  0.00  0.00     0.163 HD
BRANCH   3   6
HETATM    6  C   UNK N   1       3.981   0.762   1.003  0.00  0.00     0.105 C 
BRANCH   6   7
HETATM    7  C   UNK N   1       2.994   1.875   0.687  0.00  0.00     0.044 C 
BRANCH   7   8
HETATM    8  C   UNK N   1       2.060   1.539  -0.475  0.00  0.00     0.173 C 
BRANCH   8   9
HETATM    9  N   UNK N   1       1.184   2.676  -0.701  0.00  0.00    -0.418 N 
HETATM   10  H   UNK N   1       1.567   3.608  -0.859  0.00  0.00     0.150 HD
HETATM   11  H   UNK N   1       0.173   2.540  -0.701  0.00  0.00     0.150 HD
ENDBRANCH   8   9
BRANCH   8  12
HETATM   12  C   UNK N   1       1.247   0.292  -0.223  0.00  0.00     0.163 C 
HETATM   13  O   UNK N   1       1.804  -0.788  -0.114  0.00  0.00    -0.648 OA
BRANCH  12  14
HETATM   14  O   UNK N   1      -0.097   0.354  -0.148  0.00  0.00    -0.775 OA
HETATM   15  H   UNK N   1      -0.527   1.185  -0.095  0.00  0.00     0.167 HD
ENDBRANCH  12  14
ENDBRANCH   8  12
ENDBRANCH   7   8
ENDBRANCH   6   7
ENDBRANCH   3   6
ENDBRANCH   1   2
BRANCH   1  16
HETATM   16  C   UNK N   1       8.345  -0.496   0.524  0.00  0.00     0.111 C 
BRANCH  16  17
HETATM   17  S   UNK N   1       7.887  -1.941  -0.482  0.00  0.00    -0.141 SA
BRANCH  17  18
HETATM   18  C   UNK N   1       6.551  -2.453   0.635  0.00  0.00     0.238 C 
BRANCH  18  19
HETATM   19  O   UNK N   1       5.326  -2.333  -0.020  0.00  0.00    -0.391 OA
HETATM   20  H   UNK N   1       4.972  -1.553  -0.476  0.00  0.00     0.210 HD
ENDBRANCH  18  19
ENDBRANCH  17  18
ENDBRANCH  16  17
ENDBRANCH   1  16
BRANCH   1  21
HETATM   21  C   UNK N   1       8.520   1.985   0.198  0.00  0.00     0.241 C 
HETATM   22  O   UNK N   1       8.061   2.947   0.791  0.00  0.00    -0.271 OA
HETATM   23  N   UNK N   1       9.800   2.050  -0.259  0.00  0.00    -0.349 N 
HETATM   24  H   UNK N   1      10.304   2.882  -0.110  0.00  0.00     0.163 HD
BRANCH  23  25
HETATM   25  C   UNK N   1      10.460   0.970  -0.950  0.00  0.00     0.232 C 
BRANCH  25  26
HETATM   26  C   UNK N   1      11.521   0.386  -0.070  0.00  0.00     0.158 C 
HETATM   27  O   UNK N   1      11.471  -0.792   0.245  0.00  0.00    -0.649 OA
BRANCH  26  28
HETATM   28  O   UNK N   1      12.525   1.158   0.386  0.00  0.00    -0.775 OA
HETATM   29  H   UNK N   1      13.340   0.821   0.703  0.00  0.00     0.167 HD
ENDBRANCH  26  28
ENDBRANCH  25  26
ENDBRANCH  23  25
ENDBRANCH   1  21
TORSDOF 15
