REMARK  5 active torsions:
REMARK  status: ('A' for Active; 'I' for Inactive)
REMARK    1  A    between atoms: N_21  and  C_22 
REMARK    2  A    between atoms: C_22  and  C_23 
REMARK       I    between atoms: C_23  and  N_25 
REMARK    3  A    between atoms: N_25  and  C_26 
REMARK    4  A    between atoms: C_26  and  C_27 
REMARK    5  A    between atoms: C_27  and  N_28 
ROOT
HETATM    1  C   UNK N   1       1.342  -8.023  -0.361  0.00  0.00     0.049 C 
HETATM    2  C   UNK N   1       1.723  -6.586  -0.231  0.00  0.00    -0.054 A 
HETATM    3  C   UNK N   1       0.711  -5.619  -0.213  0.00  0.00     0.039 A 
HETATM    4  C   UNK N   1       1.033  -4.267  -0.083  0.00  0.00     0.060 A 
HETATM    5  C   UNK N   1       2.402  -3.875   0.038  0.00  0.00     0.061 A 
HETATM    6  C   UNK N   1       3.405  -4.844   0.010  0.00  0.00     0.039 A 
HETATM    7  C   UNK N   1       3.075  -6.197  -0.127  0.00  0.00    -0.054 A 
HETATM    8  C   UNK N   1       4.173  -7.207  -0.156  0.00  0.00     0.049 C 
HETATM    9  N   UNK N   1       2.724  -2.555   0.186  0.00  0.00    -0.339 N 
ATOM     10  HN  UNK N   1       3.696  -2.262   0.275  1.00  0.00     0.167 HD
HETATM   11  C   UNK N   1       1.719  -1.644   0.210  0.00  0.00     0.137 A 
HETATM   12  C   UNK N   1       0.411  -2.024   0.079  0.00  0.00     0.090 A 
HETATM   13  N   UNK N   1       0.046  -3.321  -0.067  0.00  0.00    -0.351 N 
ATOM     14  HN  UNK N   1      -0.935  -3.583  -0.162  1.00  0.00     0.166 HD
HETATM   15  C   UNK N   1      -0.347  -0.883   0.130  0.00  0.00     0.023 A 
HETATM   16  C   UNK N   1      -1.718  -0.675   0.034  0.00  0.00     0.040 A 
HETATM   17  C   UNK N   1      -2.184   0.651   0.118  0.00  0.00     0.035 A 
HETATM   18  C   UNK N   1      -1.277   1.722   0.297  0.00  0.00     0.026 A 
HETATM   19  C   UNK N   1       0.106   1.482   0.392  0.00  0.00     0.032 A 
HETATM   20  C   UNK N   1       0.543   0.161   0.304  0.00  0.00     0.049 A 
HETATM   21  N   UNK N   1       1.819  -0.295   0.357  0.00  0.00    -0.322 N 
HETATM   22 Cl   UNK N   1      -3.898   0.978  -0.000  0.00  0.00    -0.084 Cl
ENDROOT
BRANCH  21  23
HETATM   23  C   UNK N   1       3.001   0.564   0.523  0.00  0.00     0.233 C 
BRANCH  23  24
HETATM   24  C   UNK N   1       4.289  -0.163   0.327  0.00  0.00     0.235 C 
HETATM   25  O   UNK N   1       4.707  -0.910   1.199  0.00  0.00    -0.272 OA
HETATM   26  N   UNK N   1       4.943  -0.025  -0.851  0.00  0.00    -0.358 N 
HETATM   27  H   UNK N   1       4.597   0.629  -1.501  0.00  0.00     0.162 HD
BRANCH  26  28
HETATM   28  C   UNK N   1       6.119  -0.784  -1.208  0.00  0.00     0.152 C 
BRANCH  28  29
HETATM   29  C   UNK N   1       7.363  -0.323  -0.453  0.00  0.00     0.290 C 
BRANCH  29  30
HETATM   30  N   UNK N   1       7.489  -0.990   0.837  0.00  0.00     0.081 N 
HETATM   31  C   UNK N   1       8.695  -0.476   1.458  0.00  0.00     0.309 C 
HETATM   32  C   UNK N   1       7.709  -2.413   0.619  0.00  0.00     0.309 C 
ENDBRANCH  29  30
ENDBRANCH  28  29
ENDBRANCH  26  28
ENDBRANCH  23  24
ENDBRANCH  21  23
TORSDOF 5
