REMARK  14 active torsions:
REMARK  status: ('A' for Active; 'I' for Inactive)
REMARK    1  A    between atoms: C_6  and  C_8 
REMARK    2  A    between atoms: C_13  and  O_15 
REMARK    3  A    between atoms: C_14  and  O_31 
REMARK    4  A    between atoms: C_23  and  C_17 
REMARK    5  A    between atoms: C_17  and  C_18 
REMARK    6  A    between atoms: C_18  and  C_19 
REMARK    7  A    between atoms: C_19  and  C_22 
REMARK    8  A    between atoms: C_22  and  C_27 
REMARK    9  A    between atoms: C_27  and  O_28 
REMARK   10  A    between atoms: C_29  and  O_30 
REMARK   11  A    between atoms: O_31  and  C_32 
REMARK   12  A    between atoms: C_32  and  C_33 
REMARK   13  A    between atoms: C_33  and  C_34 
REMARK   14  A    between atoms: C_34  and  O_35 
ROOT
HETATM    1  C   UNK N   1      -2.297   4.582   0.656  0.00  0.00     0.010 C 
HETATM    2  C   UNK N   1      -2.139   1.748  -0.175  0.00  0.00    -0.075 C 
HETATM    3  C   UNK N   1       0.395   1.980   0.264  0.00  0.00     0.010 C 
HETATM    4  C   UNK N   1       1.264   3.154   0.748  0.00  0.00     0.006 C 
HETATM    5  C   UNK N   1      -3.573   3.725   0.395  0.00  0.00     0.005 C 
HETATM    6  C   UNK N   1      -2.068   0.614  -0.875  0.00  0.00     0.004 C 
HETATM    7  C   UNK N   1      -3.389   2.192   0.547  0.00  0.00     0.034 C 
HETATM    8  C   UNK N   1       0.332   4.368   0.942  0.00  0.00    -0.002 C 
HETATM    9  C   UNK N   1      -0.925   2.630  -0.113  0.00  0.00     0.023 C 
HETATM   10  C   UNK N   1      -1.066   3.716   0.950  0.00  0.00    -0.033 C 
HETATM   11  C   UNK N   1      -1.264   3.097   2.354  0.00  0.00     0.016 C 
ENDROOT
BRANCH   6  12
HETATM   12  C   UNK N   1      -3.139  -0.387  -0.981  0.00  0.00     0.008 C 
HETATM   13  C   UNK N   1      -2.885  -1.709  -0.881  0.00  0.00    -0.048 C 
HETATM   14  C   UNK N   1      -1.520  -2.295  -0.625  0.00  0.00    -0.030 C 
HETATM   15  C   UNK N   1      -4.051  -2.659  -0.951  0.00  0.00     0.073 C 
HETATM   16  C   UNK N   1      -1.428  -3.516   0.241  0.00  0.00     0.182 C 
HETATM   17  C   UNK N   1      -0.391  -1.603  -0.815  0.00  0.00     0.022 C 
HETATM   18  C   UNK N   1      -2.601  -4.479   0.037  0.00  0.00     0.183 C 
HETATM   19  C   UNK N   1      -3.961  -3.765   0.101  0.00  0.00     0.154 C 
BRANCH  16  20
HETATM   20  O   UNK N   1      -1.346  -3.129   1.580  0.00  0.00    -0.388 OA
HETATM   21  H   UNK N   1      -1.085  -3.044   2.510  0.00  0.00     0.210 HD
ENDBRANCH  16  20
BRANCH  18  22
HETATM   22  O   UNK N   1      -2.430  -5.150  -1.181  0.00  0.00    -0.380 OA
BRANCH  22  23
HETATM   23  C   UNK N   1      -2.003  -6.451  -0.856  0.00  0.00     0.170 C 
BRANCH  23  24
HETATM   24  C   UNK N   1      -0.537  -6.487  -0.413  0.00  0.00     0.052 C 
BRANCH  24  25
HETATM   25  C   UNK N   1       0.377  -5.845  -1.441  0.00  0.00     0.166 C 
BRANCH  25  26
HETATM   26  O   UNK N   1       1.619  -5.593  -0.861  0.00  0.00    -0.401 OA
HETATM   27  H   UNK N   1       2.203  -6.254  -0.457  0.00  0.00     0.209 HD
ENDBRANCH  25  26
ENDBRANCH  24  25
ENDBRANCH  23  24
ENDBRANCH  22  23
ENDBRANCH  18  22
BRANCH  19  28
HETATM   28  O   UNK N   1      -4.180  -3.236   1.374  0.00  0.00    -0.393 OA
HETATM   29  H   UNK N   1      -3.937  -2.920   2.259  0.00  0.00     0.210 HD
ENDBRANCH  19  28
ENDBRANCH   6  12
BRANCH   8  30
HETATM   30  C   UNK N   1       0.586   5.484  -0.112  0.00  0.00    -0.014 C 
HETATM   31  C   UNK N   1       0.319   5.157  -1.575  0.00  0.00     0.010 C 
BRANCH  30  32
HETATM   32  C   UNK N   1       1.943   6.189   0.052  0.00  0.00     0.005 C 
BRANCH  32  33
HETATM   33  C   UNK N   1       3.107   5.459  -0.616  0.00  0.00     0.003 C 
BRANCH  33  34
HETATM   34  C   UNK N   1       3.871   4.597   0.383  0.00  0.00     0.037 C 
BRANCH  34  35
HETATM   35  C   UNK N   1       4.852   3.635  -0.291  0.00  0.00     0.051 C 
HETATM   36  C   UNK N   1       5.930   4.405  -1.033  0.00  0.00     0.045 C 
HETATM   37  C   UNK N   1       4.129   2.718  -1.264  0.00  0.00     0.045 C 
BRANCH  35  38
HETATM   38  O   UNK N   1       5.456   2.853   0.691  0.00  0.00    -0.391 OA
HETATM   39  H   UNK N   1       5.195   2.216   1.374  0.00  0.00     0.210 HD
ENDBRANCH  35  38
ENDBRANCH  34  35
ENDBRANCH  33  34
ENDBRANCH  32  33
ENDBRANCH  30  32
ENDBRANCH   8  30
TORSDOF 14
