REMARK  3 active torsions:
REMARK  status: ('A' for Active; 'I' for Inactive)
REMARK    1  A    between atoms: C_7  and  O_1 
REMARK    2  A    between atoms: O_3  and  C_17 
REMARK    3  A    between atoms: C_14  and  C_17 
ROOT
HETATM    1  O   UNK N   1       7.368   1.022  -0.362  0.00  0.00    -0.289 OA
HETATM    2  C   UNK N   1       5.153  -1.947  -0.014  0.00  0.00     0.022 A 
HETATM    3  C   UNK N   1       5.098  -3.411  -0.438  0.00  0.00     0.018 A 
HETATM    4  C   UNK N   1       5.205  -3.069   1.027  0.00  0.00     0.018 A 
HETATM    5  C   UNK N   1       6.525  -1.199  -0.235  0.00  0.00     0.131 A 
HETATM    6  C   UNK N   1       3.829  -1.192   0.068  0.00  0.00    -0.060 A 
HETATM    7  C   UNK N   1       3.844   0.152   0.084  0.00  0.00    -0.010 A 
HETATM    8  C   UNK N   1       6.385   0.311  -0.198  0.00  0.00     0.195 A 
HETATM    9  C   UNK N   1       7.570  -1.585   0.813  0.00  0.00     0.056 C 
HETATM   10  C   UNK N   1       5.063   0.924  -0.021  0.00  0.00     0.025 A 
HETATM   11  C   UNK N   1       2.530  -1.942   0.124  0.00  0.00     0.045 C 
HETATM   12  C   UNK N   1       2.749   1.127   0.162  0.00  0.00    -0.017 A 
HETATM   13  C   UNK N   1       4.773   2.225  -0.009  0.00  0.00     0.023 A 
HETATM   14  C   UNK N   1       3.307   2.350   0.112  0.00  0.00    -0.052 A 
HETATM   15  C   UNK N   1       2.596   3.663   0.146  0.00  0.00     0.049 C 
ENDROOT
BRANCH   5  16
HETATM   16  O   UNK N   1       7.023  -1.549  -1.491  0.00  0.00    -0.381 OA
HETATM   17  H   UNK N   1       6.985  -1.970  -2.364  0.00  0.00     0.211 HD
ENDBRANCH   5  16
BRANCH  12  18
HETATM   18  C   UNK N   1       1.282   0.782   0.268  0.00  0.00     0.204 C 
BRANCH  18  19
HETATM   19  O   UNK N   1       0.458   1.909   0.279  0.00  0.00    -0.396 OA
HETATM   20  H   UNK N   1       0.850   2.796   0.286  0.00  0.00     0.209 HD
ENDBRANCH  18  19
ENDBRANCH  12  18
TORSDOF 3
