REMARK  8 active torsions:
REMARK  status: ('A' for Active; 'I' for Inactive)
REMARK    1  A    between atoms: O_1  and  C_12 
REMARK    2  A    between atoms: O_1  and  C_13 
REMARK    3  A    between atoms: O_2  and  N_8 
REMARK    4  A    between atoms: O_2  and  C_11 
REMARK    5  A    between atoms: N_7  and  C_14 
REMARK       I    between atoms: N_7  and  C_19 
REMARK    6  A    between atoms: C_9  and  C_10 
REMARK    7  A    between atoms: C_9  and  C_11 
REMARK    8  A    between atoms: C_10  and  C_12 
ROOT
HETATM    1  C   UNK N   1       5.117   0.797   0.050  0.00  0.00     0.079 A 
HETATM    2  C   UNK N   1       5.044   3.611   0.007  0.00  0.00     0.034 A 
HETATM    3  C   UNK N   1       6.303   1.532   0.071  0.00  0.00     0.039 A 
HETATM    4  C   UNK N   1       3.888   1.480   0.012  0.00  0.00     0.039 A 
HETATM    5  C   UNK N   1       6.270   2.927   0.047  0.00  0.00     0.032 A 
HETATM    6  C   UNK N   1       3.855   2.876  -0.008  0.00  0.00     0.032 A 
ENDROOT
BRANCH   1   7
HETATM    7  O   UNK N   1       5.197  -0.559   0.067  0.00  0.00    -0.279 OA
BRANCH   7   8
HETATM    8  C   UNK N   1       4.178  -1.444  -0.099  0.00  0.00     0.264 C 
HETATM    9  O   UNK N   1       3.041  -1.062  -0.342  0.00  0.00    -0.265 OA
BRANCH   8  10
HETATM   10  C   UNK N   1       4.488  -2.912  -0.029  0.00  0.00     0.113 C 
BRANCH  10  11
HETATM   11  C   UNK N   1       3.327  -3.793  -0.468  0.00  0.00     0.039 C 
BRANCH  11  12
HETATM   12  C   UNK N   1       2.201  -3.758   0.553  0.00  0.00     0.208 C 
BRANCH  12  13
HETATM   13  O   UNK N   1       1.150  -4.548   0.134  0.00  0.00    -0.221 OA
BRANCH  13  14
HETATM   14  N   UNK N   1       1.241  -5.865   0.045  0.00  0.00     0.004 N 
HETATM   15  O   UNK N   1       0.189  -6.564  -0.318  0.00  0.00    -0.511 OA
HETATM   16  O   UNK N   1       2.260  -6.430   0.314  0.00  0.00    -0.511 OA
ENDBRANCH  13  14
ENDBRANCH  12  13
ENDBRANCH  11  12
ENDBRANCH  10  11
ENDBRANCH   8  10
ENDBRANCH   7   8
ENDBRANCH   1   7
BRANCH   2  17
HETATM   17  N   UNK N   1       4.973   5.034  -0.012  0.00  0.00    -0.328 N 
HETATM   18  C   UNK N   1       6.034   5.886  -0.008  0.00  0.00     0.218 C 
HETATM   19  O   UNK N   1       7.183   5.473   0.006  0.00  0.00    -0.274 OA
HETATM   20  C   UNK N   1       5.788   7.353  -0.021  0.00  0.00     0.117 C 
HETATM   21  H   UNK N   1       4.075   5.437  -0.029  0.00  0.00     0.169 HD
ENDBRANCH   2  17
TORSDOF 8
