REMARK  13 active torsions:
REMARK  status: ('A' for Active; 'I' for Inactive)
REMARK    1  A    between atoms: C_1  and  C_3 
REMARK    2  A    between atoms: C_1  and  C_2 
REMARK    3  A    between atoms: C_2  and  C_6 
REMARK    4  A    between atoms: C_3  and  O_4 
REMARK    5  A    between atoms: C_10  and  O_12 
REMARK    6  A    between atoms: O_12  and  C_13 
REMARK    7  A    between atoms: C_13  and  C_14 
REMARK    8  A    between atoms: C_14  and  O_17 
REMARK    9  A    between atoms: C_14  and  C_15 
REMARK   10  A    between atoms: C_15  and  N_16 
REMARK   11  A    between atoms: N_16  and  C_18 
REMARK   12  A    between atoms: C_18  and  C_19 
REMARK   13  A    between atoms: C_19  and  C_22 
ROOT
HETATM    1  C   UNK N   1      -0.471   2.599   0.696  0.00  0.00     0.159 C 
ENDROOT
BRANCH   1   2
HETATM    2  O   UNK N   1      -0.404   3.979   0.881  0.00  0.00    -0.392 OA
HETATM    3  H   UNK N   1       0.451   4.418   1.010  0.00  0.00     0.210 HD
ENDBRANCH   1   2
BRANCH   1   4
HETATM    4  C   UNK N   1      -0.711   2.305  -0.789  0.00  0.00     0.209 C 
BRANCH   4   5
HETATM    5  O   UNK N   1      -0.935   0.959  -1.019  0.00  0.00    -0.345 OA
BRANCH   5   6
HETATM    6  C   UNK N   1      -1.996   0.265  -0.531  0.00  0.00     0.111 A 
HETATM    7  C   UNK N   1      -2.068  -1.120  -0.741  0.00  0.00     0.188 A 
HETATM    8  C   UNK N   1      -3.147  -1.853  -0.231  0.00  0.00     0.158 A 
HETATM    9  F   UNK N   1      -1.087  -1.756  -1.431  0.00  0.00    -0.200 F 
HETATM   10  C   UNK N   1      -4.155  -1.207   0.490  0.00  0.00     0.052 A 
HETATM   11  F   UNK N   1      -3.213  -3.193  -0.425  0.00  0.00    -0.203 F 
HETATM   12  C   UNK N   1      -4.093   0.172   0.701  0.00  0.00    -0.052 A 
HETATM   13  C   UNK N   1      -3.016   0.905   0.194  0.00  0.00     0.047 A 
BRANCH  12  14
HETATM   14  C   UNK N   1      -5.157   0.846   1.505  0.00  0.00     0.049 C 
BRANCH  14  15
HETATM   15  C   UNK N   1      -5.905   1.916   0.716  0.00  0.00     0.114 C 
BRANCH  15  16
HETATM   16  C   UNK N   1      -6.782   1.313  -0.334  0.00  0.00     0.139 C 
HETATM   17  O   UNK N   1      -6.644   1.639  -1.501  0.00  0.00    -0.650 OA
BRANCH  16  18
HETATM   18  O   UNK N   1      -7.734   0.425   0.007  0.00  0.00    -0.776 OA
HETATM   19  H   UNK N   1      -8.601   0.690   0.244  0.00  0.00     0.167 HD
ENDBRANCH  16  18
ENDBRANCH  15  16
ENDBRANCH  14  15
ENDBRANCH  12  14
ENDBRANCH   5   6
ENDBRANCH   4   5
ENDBRANCH   1   4
BRANCH   1  20
HETATM   20  C   UNK N   1       0.808   1.964   1.230  0.00  0.00     0.148 C 
BRANCH  20  21
HETATM   21  N   UNK N   1       0.786   0.515   1.030  0.00  0.00    -0.411 N 
HETATM   22  H   UNK N   1      -0.029  -0.075   1.197  0.00  0.00     0.154 HD
BRANCH  21  23
HETATM   23  C   UNK N   1       2.082   0.018   0.558  0.00  0.00     0.018 C 
HETATM   24  C   UNK N   1       3.053  -0.001   1.728  0.00  0.00     0.037 C 
HETATM   25  C   UNK N   1       1.872  -1.412   0.095  0.00  0.00     0.037 C 
BRANCH  23  26
HETATM   26  C   UNK N   1       2.593   0.869  -0.637  0.00  0.00     0.035 C 
BRANCH  26  27
HETATM   27  C   UNK N   1       4.042   0.681  -1.111  0.00  0.00    -0.004 A 
HETATM   28  C   UNK N   1       4.409  -0.782  -1.429  0.00  0.00     0.044 A 
HETATM   29  C   UNK N   1       5.624  -0.986  -0.620  0.00  0.00    -0.051 A 
HETATM   30  C   UNK N   1       5.986   0.125   0.089  0.00  0.00    -0.051 A 
HETATM   31  C   UNK N   1       6.362  -2.167  -0.540  0.00  0.00     0.007 A 
HETATM   32  C   UNK N   1       5.073   1.263  -0.121  0.00  0.00     0.044 A 
HETATM   33  C   UNK N   1       7.106   0.120   0.921  0.00  0.00     0.007 A 
HETATM   34  C   UNK N   1       7.866  -1.056   1.018  0.00  0.00     0.001 A 
HETATM   35  C   UNK N   1       7.494  -2.199   0.287  0.00  0.00     0.001 A 
ENDBRANCH  26  27
ENDBRANCH  23  26
ENDBRANCH  21  23
ENDBRANCH  20  21
ENDBRANCH   1  20
TORSDOF 13
