REMARK  2 active torsions:
REMARK  status: ('A' for Active; 'I' for Inactive)
REMARK    1  A    between atoms: C_15  and  C_14 
REMARK    2  A    between atoms: O_24  and  C_15 
ROOT
HETATM    1  C   UNK N   1       4.181   1.180   0.731  0.00  0.00     0.001 A 
HETATM    2  C   UNK N   1       3.996  -0.186   0.875  0.00  0.00     0.001 A 
HETATM    3  C   UNK N   1       3.103   1.991   0.398  0.00  0.00     0.007 A 
HETATM    4  C   UNK N   1       2.733  -0.737   0.685  0.00  0.00     0.009 A 
HETATM    5  C   UNK N   1       0.782   2.484  -0.156  0.00  0.00     0.059 C 
HETATM    6  C   UNK N   1       0.105  -1.941   1.025  0.00  0.00     0.041 C 
HETATM    7  C   UNK N   1       0.305  -1.219  -1.363  0.00  0.00     0.041 C 
HETATM    8  C   UNK N   1       1.051  -3.101   0.698  0.00  0.00     0.115 C 
HETATM    9  C   UNK N   1       1.302  -2.366  -1.544  0.00  0.00     0.115 C 
HETATM   10  C   UNK N   1      -0.260   2.023  -1.140  0.00  0.00     0.135 C 
HETATM   11  C   UNK N   1      -3.014   0.671   0.791  0.00  0.00     0.123 A 
HETATM   12  C   UNK N   1       1.819   1.464   0.207  0.00  0.00    -0.049 A 
HETATM   13  C   UNK N   1       1.604   0.049   0.365  0.00  0.00    -0.035 A 
HETATM   14  C   UNK N   1      -2.476   1.655  -0.014  0.00  0.00     0.102 A 
HETATM   15  C   UNK N   1      -1.005   0.108   0.234  0.00  0.00     0.097 A 
HETATM   16  C   UNK N   1       0.273  -0.710   0.090  0.00  0.00     0.049 C 
HETATM   17  N   UNK N   1       0.913  -3.493  -0.701  0.00  0.00    -0.421 N 
HETATM   18  N   UNK N   1      -2.084  -0.297   0.945  0.00  0.00    -0.352 N 
ATOM     19  HN  UNK N   1      -2.177  -1.157   1.486  1.00  0.00     0.166 HD
HETATM   20  N   UNK N   1      -1.228   1.288  -0.362  0.00  0.00    -0.331 N 
HETATM   21  H   UNK N   1       0.598  -4.404  -1.035  0.00  0.00     0.153 HD
ENDROOT
BRANCH  14  22
HETATM   22  C   UNK N   1      -3.148   2.919  -0.388  0.00  0.00     0.162 C 
HETATM   23  N   UNK N   1      -4.349   3.147   0.000  0.00  0.00    -0.378 N 
HETATM   24  H   UNK N   1      -4.658   4.032   0.299  0.00  0.00     0.158 HD
ATOM     25  HN  UNK N   1      -5.014   2.374   0.000  1.00  0.00     0.158 HD
BRANCH  22  26
HETATM   26  O   UNK N   1      -2.502   3.848  -1.118  0.00  0.00    -0.345 OA
HETATM   27  H   UNK N   1      -1.717   3.782  -1.625  0.00  0.00     0.219 HD
ENDBRANCH  22  26
ENDBRANCH  14  22
TORSDOF 2
