REMARK  13 active torsions:
REMARK  status: ('A' for Active; 'I' for Inactive)
REMARK    1  A    between atoms: O_2  and  C_19 
REMARK    2  A    between atoms: O_2  and  C_27 
REMARK    3  A    between atoms: O_5  and  C_38 
REMARK       I    between atoms: N_7  and  C_16 
REMARK    4  A    between atoms: C_18  and  N_7 
REMARK    5  A    between atoms: N_8  and  C_28 
REMARK    6  A    between atoms: C_9  and  C_12 
REMARK    7  A    between atoms: C_9  and  C_16 
REMARK    8  A    between atoms: C_12  and  C_15 
REMARK    9  A    between atoms: C_15  and  C_17 
REMARK   10  A    between atoms: C_15  and  C_19 
REMARK   11  A    between atoms: C_17  and  C_20 
REMARK   12  A    between atoms: C_20  and  C_24 
REMARK   13  A    between atoms: C_28  and  C_38 
ROOT
HETATM    1  O   UNK N   1       4.210  -0.449  -1.560  0.00  0.00    -0.273 OA
HETATM    2  N   UNK N   1       5.094  -0.737   0.484  0.00  0.00    -0.347 N 
HETATM    3  C   UNK N   1       4.866   0.008  -0.633  0.00  0.00     0.227 C 
HETATM    4  H   UNK N   1       5.530  -0.313   1.258  0.00  0.00     0.163 HD
ENDROOT
BRANCH   3   5
HETATM    5  C   UNK N   1       5.432   1.399  -0.745  0.00  0.00     0.042 C 
HETATM    6  C   UNK N   1       6.430   1.696   0.362  0.00  0.00     0.019 C 
HETATM    7  C   UNK N   1       7.741   1.081  -0.096  0.00  0.00     0.001 C 
HETATM    8  C   UNK N   1       7.674   1.036  -1.614  0.00  0.00     0.001 C 
HETATM    9  C   UNK N   1       6.285   1.522  -1.995  0.00  0.00     0.019 C 
BRANCH   5  10
HETATM   10  C   UNK N   1       4.304   2.429  -0.811  0.00  0.00     0.034 C 
BRANCH  10  11
HETATM   11  C   UNK N   1       3.321   2.447   0.371  0.00  0.00     0.087 C 
BRANCH  11  12
HETATM   12  C   UNK N   1       3.898   2.602   1.779  0.00  0.00     0.019 C 
BRANCH  12  13
HETATM   13  C   UNK N   1       4.070   4.081   2.135  0.00  0.00     0.039 C 
BRANCH  13  14
HETATM   14  C   UNK N   1       4.880   4.798   1.104  0.00  0.00    -0.058 A 
HETATM   15  C   UNK N   1       4.228   5.593   0.156  0.00  0.00     0.007 A 
HETATM   16  C   UNK N   1       4.955   6.186  -0.879  0.00  0.00     0.001 A 
HETATM   17  C   UNK N   1       6.335   5.983  -0.969  0.00  0.00     0.000 A 
HETATM   18  C   UNK N   1       6.991   5.198  -0.015  0.00  0.00     0.001 A 
HETATM   19  C   UNK N   1       6.263   4.605   1.020  0.00  0.00     0.007 A 
ENDBRANCH  13  14
ENDBRANCH  12  13
ENDBRANCH  11  12
BRANCH  11  20
HETATM   20  C   UNK N   1       2.092   1.594   0.238  0.00  0.00     0.263 C 
HETATM   21  O   UNK N   1       2.105   0.440   0.630  0.00  0.00    -0.265 OA
BRANCH  20  22
HETATM   22  O   UNK N   1       0.950   2.108  -0.278  0.00  0.00    -0.322 OA
BRANCH  22  23
HETATM   23  C   UNK N   1       0.879   3.394  -0.763  0.00  0.00     0.174 C 
HETATM   24  C   UNK N   1       0.024   4.238   0.158  0.00  0.00     0.034 C 
ENDBRANCH  22  23
ENDBRANCH  20  22
ENDBRANCH  11  20
ENDBRANCH  10  11
ENDBRANCH   5  10
ENDBRANCH   3   5
BRANCH   2  25
HETATM   25  C   UNK N   1       4.717  -2.132   0.574  0.00  0.00     0.177 C 
HETATM   26  C   UNK N   1       3.206  -2.267   0.532  0.00  0.00     0.039 C 
HETATM   27  C   UNK N   1       2.736  -3.108  -0.612  0.00  0.00     0.043 C 
HETATM   28  C   UNK N   1       3.001  -4.527  -0.287  0.00  0.00    -0.031 A 
HETATM   29  C   UNK N   1       4.316  -5.074  -0.258  0.00  0.00     0.044 A 
HETATM   30  C   UNK N   1       1.888  -5.353  -0.098  0.00  0.00     0.009 A 
HETATM   31  N   UNK N   1       5.492  -4.298  -0.561  0.00  0.00    -0.306 N 
HETATM   32  C   UNK N   1       4.442  -6.464  -0.070  0.00  0.00     0.030 A 
HETATM   33  C   UNK N   1       5.612  -2.942  -0.365  0.00  0.00     0.247 C 
HETATM   34  O   UNK N   1       6.549  -2.350  -0.881  0.00  0.00    -0.271 OA
HETATM   35  C   UNK N   1       3.322  -7.275   0.128  0.00  0.00     0.002 A 
HETATM   36  C   UNK N   1       2.046  -6.718   0.120  0.00  0.00     0.001 A 
BRANCH  31  37
HETATM   37  C   UNK N   1       6.610  -4.997  -1.197  0.00  0.00     0.242 C 
BRANCH  37  38
HETATM   38  C   UNK N   1       7.873  -4.954  -0.367  0.00  0.00     0.158 C 
HETATM   39  O   UNK N   1       8.491  -3.910  -0.222  0.00  0.00    -0.649 OA
BRANCH  38  40
HETATM   40  O   UNK N   1       8.357  -6.086   0.172  0.00  0.00    -0.775 OA
HETATM   41  H   UNK N   1       7.843  -6.773   0.548  0.00  0.00     0.167 HD
ENDBRANCH  38  40
ENDBRANCH  37  38
ENDBRANCH  31  37
ENDBRANCH   2  25
TORSDOF 13
