REMARK  4 active torsions:
REMARK  status: ('A' for Active; 'I' for Inactive)
REMARK    1  A    between atoms: C_14  and  N_16 
REMARK       I    between atoms: N_16  and  C_17 
REMARK    2  A    between atoms: C_17  and  C_19 
REMARK    3  A    between atoms: C_19  and  C_20 
REMARK    4  A    between atoms: C_19  and  O_22 
ROOT
HETATM    1  C   UNK N   1      -1.794   2.555   0.672  0.00  0.00     0.203 C 
HETATM    2  C   UNK N   1      -3.095   2.021   0.217  0.00  0.00     0.063 A 
HETATM    3  C   UNK N   1      -0.492   1.802   0.470  0.00  0.00     0.064 A 
HETATM    4  C   UNK N   1      -3.316   0.823  -0.439  0.00  0.00    -0.022 A 
HETATM    5  C   UNK N   1      -2.216  -0.159  -0.654  0.00  0.00     0.185 C 
HETATM    6  C   UNK N   1      -0.425   0.350   0.449  0.00  0.00     0.076 A 
HETATM    7  S   UNK N   1      -1.857  -0.750   1.023  0.00  0.00     0.180 S 
HETATM    8  S   UNK N   1      -4.566   2.775   0.327  0.00  0.00    -0.097 SA
HETATM    9  C   UNK N   1      -5.532   1.636  -0.409  0.00  0.00     0.051 A 
HETATM   10  C   UNK N   1      -4.676   0.589  -0.785  0.00  0.00     0.017 A 
HETATM   11  C   UNK N   1       0.841  -0.237   0.219  0.00  0.00     0.024 A 
HETATM   12  C   UNK N   1       1.986   0.516   0.029  0.00  0.00     0.004 A 
HETATM   13  C   UNK N   1       1.924   1.893   0.099  0.00  0.00     0.030 A 
HETATM   14  C   UNK N   1       0.717   2.560   0.293  0.00  0.00     0.050 A 
HETATM   15  O   UNK N   1      -1.776   3.699   1.098  0.00  0.00    -0.286 OA
HETATM   16  O   UNK N   1      -2.512  -1.734   0.037  0.00  0.00    -0.222 OA
HETATM   17  O   UNK N   1      -0.830  -1.894   1.035  0.00  0.00    -0.222 OA
ENDROOT
BRANCH  14  18
HETATM   18  N   UNK N   1       0.674   3.984   0.405  0.00  0.00    -0.323 N 
HETATM   19  C   UNK N   1       1.537   5.023   0.165  0.00  0.00     0.265 C 
HETATM   20  O   UNK N   1       1.193   6.123   0.567  0.00  0.00    -0.269 OA
HETATM   21  H   UNK N   1      -0.196   4.300   0.739  0.00  0.00     0.169 HD
BRANCH  19  22
HETATM   22  C   UNK N   1       2.881   4.959  -0.580  0.00  0.00     0.233 C 
HETATM   23  C   UNK N   1       2.852   6.020  -1.674  0.00  0.00     0.066 C 
BRANCH  22  24
HETATM   24  C   UNK N   1       4.049   5.259   0.383  0.00  0.00     0.427 C 
HETATM   25  F   UNK N   1       3.851   6.457   1.051  0.00  0.00    -0.167 F 
HETATM   26  F   UNK N   1       5.241   5.344  -0.318  0.00  0.00    -0.167 F 
HETATM   27  F   UNK N   1       4.162   4.245   1.318  0.00  0.00    -0.167 F 
ENDBRANCH  22  24
BRANCH  22  28
HETATM   28  O   UNK N   1       3.117   3.749  -1.219  0.00  0.00    -0.373 OA
HETATM   29  H   UNK N   1       2.468   3.183  -1.665  0.00  0.00     0.211 HD
ENDBRANCH  22  28
ENDBRANCH  19  22
ENDBRANCH  14  18
TORSDOF 4
