REMARK  7 active torsions:
REMARK  status: ('A' for Active; 'I' for Inactive)
REMARK    1  A    between atoms: O_2  and  C_9 
REMARK    2  A    between atoms: O_2  and  C_10 
REMARK    3  A    between atoms: O_3  and  C_12 
REMARK    4  A    between atoms: O_3  and  C_20 
REMARK    5  A    between atoms: O_5  and  C_17 
REMARK    6  A    between atoms: O_5  and  C_25 
REMARK    7  A    between atoms: C_9  and  C_17 
ROOT
HETATM    1  C   UNK N   1       7.870  -0.660   0.277  0.00  0.00     0.070 A 
HETATM    2  C   UNK N   1       6.423   1.749   0.179  0.00  0.00     0.080 A 
HETATM    3  C   UNK N   1       8.539   0.557   0.031  0.00  0.00     0.039 A 
HETATM    4  C   UNK N   1       6.503  -0.654   0.509  0.00  0.00     0.039 A 
HETATM    5  C   UNK N   1       7.812   1.763  -0.018  0.00  0.00     0.040 A 
HETATM    6  C   UNK N   1       5.793   0.529   0.471  0.00  0.00     0.040 A 
ENDROOT
BRANCH   2   7
HETATM    7  O   UNK N   1       5.692   2.897   0.101  0.00  0.00    -0.274 OA
BRANCH   7   8
HETATM    8  C   UNK N   1       4.339   2.875  -0.064  0.00  0.00     0.276 A 
HETATM    9  O   UNK N   1       3.519   3.824   0.358  0.00  0.00    -0.271 OA
HETATM   10  C   UNK N   1       2.304   3.394   0.110  0.00  0.00     0.108 A 
HETATM   11  C   UNK N   1       2.388   2.174  -0.488  0.00  0.00     0.070 A 
HETATM   12  C   UNK N   1       1.077   3.979   0.408  0.00  0.00     0.063 A 
HETATM   13  N   UNK N   1       3.671   1.828  -0.615  0.00  0.00    -0.313 N 
HETATM   14  C   UNK N   1       1.271   1.434  -0.849  0.00  0.00     0.034 A 
ATOM     15  HN  UNK N   1       4.058   0.979  -1.028  1.00  0.00     0.170 HD
HETATM   16  C   UNK N   1       0.013   1.990  -0.564  0.00  0.00     0.026 A 
HETATM   17  C   UNK N   1      -0.086   3.255   0.064  0.00  0.00     0.036 A 
HETATM   18 Cl   UNK N   1      -1.665   3.907   0.436  0.00  0.00    -0.084 Cl
ENDBRANCH   7   8
ENDBRANCH   2   7
BRANCH   1  19
HETATM   19  O   UNK N   1       8.481  -1.866   0.263  0.00  0.00    -0.336 OA
BRANCH  19  20
HETATM   20  C   UNK N   1       9.828  -2.160   0.225  0.00  0.00     0.224 C 
HETATM   21  C   UNK N   1      10.521  -1.484  -0.951  0.00  0.00     0.051 C 
BRANCH  20  22
HETATM   22  C   UNK N   1       9.973  -3.662   0.078  0.00  0.00     0.288 C 
HETATM   23  O   UNK N   1       8.983  -4.343  -0.151  0.00  0.00    -0.262 OA
BRANCH  22  24
HETATM   24  O   UNK N   1      11.174  -4.279   0.187  0.00  0.00    -0.320 OA
BRANCH  24  25
HETATM   25  C   UNK N   1      12.320  -3.622   0.563  0.00  0.00     0.174 C 
HETATM   26  C   UNK N   1      13.329  -3.684  -0.562  0.00  0.00     0.034 C 
ENDBRANCH  24  25
ENDBRANCH  22  24
ENDBRANCH  20  22
ENDBRANCH  19  20
ENDBRANCH   1  19
TORSDOF 7
