REMARK  5 active torsions:
REMARK  status: ('A' for Active; 'I' for Inactive)
REMARK    1  A    between atoms: C_1  and  C_3 
REMARK    2  A    between atoms: C_15  and  N_20 
REMARK    3  A    between atoms: C_22  and  C_18 
REMARK    4  A    between atoms: C_22  and  C_23 
REMARK    5  A    between atoms: C_22  and  O_27 
ROOT
HETATM    1  C   UNK N   1      -4.272   2.238  -0.044  0.00  0.00     0.065 A 
HETATM    2  C   UNK N   1      -5.428   1.445  -0.070  0.00  0.00     0.091 A 
HETATM    3  N   UNK N   1      -4.096  -0.540   0.082  0.00  0.00    -0.323 N 
HETATM    4  C   UNK N   1      -5.324   0.057   0.002  0.00  0.00     0.246 A 
HETATM    5  O   UNK N   1      -6.332  -0.629  -0.021  0.00  0.00    -0.268 OA
HETATM    6  C   UNK N   1      -3.014   1.605   0.056  0.00  0.00     0.008 A 
HETATM    7  C   UNK N   1      -2.953   0.195   0.102  0.00  0.00     0.046 A 
HETATM    8  C   UNK N   1      -1.818   2.340   0.079  0.00  0.00     0.044 A 
HETATM    9  C   UNK N   1      -1.718  -0.449   0.132  0.00  0.00     0.033 A 
HETATM   10  C   UNK N   1      -0.539   0.298   0.098  0.00  0.00     0.031 A 
HETATM   11  C   UNK N   1      -0.568   1.696   0.079  0.00  0.00     0.032 A 
HETATM   12  H   UNK N   1      -4.039  -1.522   0.125  0.00  0.00     0.169 HD
ENDROOT
BRANCH  11  13
HETATM   13  N   UNK N   1       0.649   2.460   0.057  0.00  0.00    -0.369 N 
HETATM   14  C   UNK N   1       0.736   3.791   0.626  0.00  0.00     0.081 C 
HETATM   15  C   UNK N   1       2.144   4.278   0.309  0.00  0.00     0.027 C 
HETATM   16  C   UNK N   1      -0.235   4.767  -0.021  0.00  0.00     0.032 C 
HETATM   17  C   UNK N   1       2.897   3.095  -0.282  0.00  0.00     0.030 C 
HETATM   18  C   UNK N   1       1.826   2.118  -0.719  0.00  0.00     0.122 C 
BRANCH  18  19
HETATM   19  C   UNK N   1       2.354   0.679  -0.885  0.00  0.00     0.248 C 
BRANCH  19  20
HETATM   20  C   UNK N   1       2.898  -0.100   0.315  0.00  0.00     0.414 C 
HETATM   21  F   UNK N   1       1.881  -0.653   1.067  0.00  0.00    -0.168 F 
HETATM   22  F   UNK N   1       3.668   0.716   1.121  0.00  0.00    -0.168 F 
HETATM   23  F   UNK N   1       3.697  -1.121  -0.164  0.00  0.00    -0.168 F 
ENDBRANCH  19  20
BRANCH  19  24
HETATM   24  O   UNK N   1       1.525  -0.103  -1.692  0.00  0.00    -0.384 OA
HETATM   25  H   UNK N   1       0.767   0.124  -2.253  0.00  0.00     0.210 HD
ENDBRANCH  19  24
ENDBRANCH  18  19
ENDBRANCH  11  13
BRANCH   1  26
HETATM   26  C   UNK N   1      -4.401   3.739  -0.169  0.00  0.00     0.418 C 
HETATM   27  F   UNK N   1      -3.722   4.168  -1.297  0.00  0.00    -0.166 F 
HETATM   28  F   UNK N   1      -5.728   4.118  -0.291  0.00  0.00    -0.166 F 
HETATM   29  F   UNK N   1      -3.865   4.355   0.946  0.00  0.00    -0.166 F 
ENDBRANCH   1  26
TORSDOF 5
