REMARK  9 active torsions:
REMARK  status: ('A' for Active; 'I' for Inactive)
REMARK    1  A    between atoms: O_1  and  C_12 
REMARK    2  A    between atoms: O_1  and  C_23 
REMARK    3  A    between atoms: O_2  and  C_26 
REMARK    4  A    between atoms: O_3  and  C_34 
REMARK    5  A    between atoms: N_4  and  C_11 
REMARK    6  A    between atoms: N_5  and  C_17 
REMARK    7  A    between atoms: C_11  and  C_12 
REMARK    8  A    between atoms: C_13  and  C_19 
REMARK    9  A    between atoms: C_17  and  C_18 
ROOT
HETATM    1  N   UNK N   1       5.324  -3.173   0.398  0.00  0.00    -0.341 N 
HETATM    2  C   UNK N   1       6.112  -4.203  -0.026  0.00  0.00     0.052 A 
HETATM    3  C   UNK N   1       4.045  -3.640   0.390  0.00  0.00     0.046 A 
HETATM    4  C   UNK N   1       5.309  -5.312  -0.326  0.00  0.00    -0.022 A 
HETATM    5  C   UNK N   1       4.011  -4.931  -0.064  0.00  0.00     0.002 A 
HETATM    6  C   UNK N   1       2.877  -2.974   0.770  0.00  0.00     0.033 A 
HETATM    7  C   UNK N   1       2.813  -5.636  -0.196  0.00  0.00     0.051 A 
HETATM    8  C   UNK N   1       5.733  -6.649  -0.833  0.00  0.00     0.051 C 
HETATM    9  C   UNK N   1       1.620  -4.980   0.159  0.00  0.00     0.066 A 
HETATM   10  C   UNK N   1       1.653  -3.657   0.647  0.00  0.00     0.039 A 
ENDROOT
BRANCH   1  11
HETATM   11  C   UNK N   1       5.820  -1.847   0.793  0.00  0.00     0.168 C 
BRANCH  11  12
HETATM   12  C   UNK N   1       4.877  -0.720   0.560  0.00  0.00    -0.040 A 
HETATM   13  C   UNK N   1       4.096  -0.642  -0.603  0.00  0.00     0.011 A 
HETATM   14  C   UNK N   1       3.121   0.351  -0.716  0.00  0.00     0.037 A 
HETATM   15  C   UNK N   1       2.943   1.280   0.324  0.00  0.00     0.068 A 
HETATM   16  C   UNK N   1       3.782   1.242   1.438  0.00  0.00     0.037 A 
HETATM   17  C   UNK N   1       4.741   0.241   1.559  0.00  0.00     0.011 A 
BRANCH  15  18
HETATM   18  O   UNK N   1       1.945   2.188   0.305  0.00  0.00    -0.349 OA
BRANCH  18  19
HETATM   19  C   UNK N   1       1.112   2.395  -0.773  0.00  0.00     0.206 C 
BRANCH  19  20
HETATM   20  C   UNK N   1       0.936   3.895  -1.020  0.00  0.00     0.299 C 
BRANCH  20  21
HETATM   21  N   UNK N   1       1.977   4.661  -0.345  0.00  0.00     0.090 N 
HETATM   22  C   UNK N   1       1.577   6.062  -0.283  0.00  0.00     0.272 C 
HETATM   23  C   UNK N   1       2.607   6.837   0.539  0.00  0.00     0.030 C 
HETATM   24  C   UNK N   1       3.992   6.693  -0.093  0.00  0.00     0.003 C 
HETATM   25  C   UNK N   1       4.342   5.223  -0.316  0.00  0.00     0.030 C 
HETATM   26  C   UNK N   1       3.222   4.555  -1.104  0.00  0.00     0.272 C 
ENDBRANCH  20  21
ENDBRANCH  19  20
ENDBRANCH  18  19
ENDBRANCH  15  18
ENDBRANCH  11  12
ENDBRANCH   1  11
BRANCH   2  27
HETATM   27  C   UNK N   1       7.608  -4.139  -0.120  0.00  0.00    -0.009 A 
HETATM   28  C   UNK N   1       8.289  -2.934   0.116  0.00  0.00     0.016 A 
HETATM   29  C   UNK N   1       9.680  -2.868   0.072  0.00  0.00     0.037 A 
HETATM   30  C   UNK N   1      10.418  -4.016  -0.203  0.00  0.00     0.065 A 
HETATM   31  C   UNK N   1       9.762  -5.226  -0.444  0.00  0.00     0.037 A 
HETATM   32  C   UNK N   1       8.363  -5.287  -0.405  0.00  0.00     0.016 A 
BRANCH  30  33
HETATM   33  O   UNK N   1      11.759  -3.956  -0.233  0.00  0.00    -0.361 OA
HETATM   34  H   UNK N   1      12.263  -4.746  -0.255  0.00  0.00     0.217 HD
ENDBRANCH  30  33
ENDBRANCH   2  27
BRANCH   9  35
HETATM   35  O   UNK N   1       0.443  -5.615   0.033  0.00  0.00    -0.361 OA
HETATM   36  H   UNK N   1      -0.351  -5.126  -0.056  0.00  0.00     0.217 HD
ENDBRANCH   9  35
TORSDOF 9
