REMARK  7 active torsions:
REMARK  status: ('A' for Active; 'I' for Inactive)
REMARK    1  A    between atoms: O_28  and  C_13 
REMARK    2  A    between atoms: O_28  and  C_14 
REMARK    3  A    between atoms: S_30  and  C_15 
REMARK    4  A    between atoms: C_16  and  C_17 
REMARK    5  A    between atoms: O_24  and  C_17 
REMARK    6  A    between atoms: N_21  and  O_25 
REMARK    7  A    between atoms: S_30  and  N_23 
ROOT
HETATM    1  O   UNK N   1       0.538   4.821   0.317  0.00  0.00    -0.200 OA
HETATM    2  O   UNK N   1      -1.108   5.131   1.997  0.00  0.00    -0.200 OA
HETATM    3  S   UNK N   1      -0.957   4.566   0.578  0.00  0.00     0.261 S 
ENDROOT
BRANCH   3   4
HETATM    4  C   UNK N   1      -1.256   2.810   0.426  0.00  0.00     0.079 A 
HETATM    5  C   UNK N   1      -0.206   1.892   0.556  0.00  0.00     0.028 A 
HETATM    6  C   UNK N   1      -0.442   0.526   0.359  0.00  0.00     0.039 A 
HETATM    7  C   UNK N   1      -1.726   0.071   0.032  0.00  0.00     0.076 A 
HETATM    8  C   UNK N   1      -2.770   1.003  -0.083  0.00  0.00     0.039 A 
HETATM    9  C   UNK N   1      -2.534   2.358   0.113  0.00  0.00     0.028 A 
BRANCH   7  10
HETATM   10  O   UNK N   1      -1.914  -1.249  -0.240  0.00  0.00    -0.311 OA
BRANCH  10  11
HETATM   11  C   UNK N   1      -3.102  -1.866  -0.484  0.00  0.00     0.078 A 
HETATM   12  C   UNK N   1      -4.317  -1.380   0.027  0.00  0.00     0.054 A 
HETATM   13  C   UNK N   1      -5.508  -2.041  -0.271  0.00  0.00     0.090 A 
HETATM   14  N   UNK N   1      -5.492  -3.150  -1.058  0.00  0.00    -0.375 N 
HETATM   15  C   UNK N   1      -4.328  -3.648  -1.557  0.00  0.00     0.090 A 
ATOM     16  HN  UNK N   1      -6.371  -3.619  -1.278  1.00  0.00     0.164 HD
HETATM   17  C   UNK N   1      -3.114  -3.019  -1.271  0.00  0.00     0.054 A 
ENDBRANCH  10  11
ENDBRANCH   7  10
ENDBRANCH   3   4
BRANCH   3  18
HETATM   18  N   UNK N   1      -1.800   5.663  -0.576  0.00  0.00    -0.292 N 
HETATM   19  C   UNK N   1      -0.946   6.794  -0.950  0.00  0.00     0.146 C 
HETATM   20  C   UNK N   1      -0.713   7.753   0.229  0.00  0.00     0.095 C 
HETATM   21  S   UNK N   1      -2.159   7.929   1.361  0.00  0.00    -0.156 SA
HETATM   22  C   UNK N   1      -3.424   7.517   0.117  0.00  0.00     0.029 C 
HETATM   23  C   UNK N   1      -4.805   7.762   0.711  0.00  0.00     0.029 C 
HETATM   24  C   UNK N   1      -3.313   8.515  -1.035  0.00  0.00     0.029 C 
HETATM   25  C   UNK N   1      -3.238   6.037  -0.374  0.00  0.00     0.190 C 
BRANCH  25  26
HETATM   26  C   UNK N   1      -4.009   5.034   0.499  0.00  0.00     0.161 C 
HETATM   27  N   UNK N   1      -4.965   4.307   0.021  0.00  0.00    -0.249 N 
ATOM     28  HN  UNK N   1      -5.458   3.671   0.647  1.00  0.00     0.196 HD
BRANCH  27  29
HETATM   29  O   UNK N   1      -5.326   4.357  -1.244  0.00  0.00    -0.288 OA
HETATM   30  H   UNK N   1      -5.423   4.597  -2.145  0.00  0.00     0.244 HD
ENDBRANCH  27  29
BRANCH  26  31
HETATM   31  O   UNK N   1      -3.724   4.934   1.809  0.00  0.00    -0.346 OA
HETATM   32  H   UNK N   1      -3.686   4.726   2.723  0.00  0.00     0.219 HD
ENDBRANCH  26  31
ENDBRANCH  25  26
ENDBRANCH   3  18
TORSDOF 7
