REMARK  0 active torsions:
REMARK  status: ('A' for Active; 'I' for Inactive)
ROOT
HETATM    1  O   UNK N   1       2.780   2.368   0.000  0.00  0.00    -0.267 OA
HETATM    2  O   UNK N   1       0.551  -1.551  -0.000  0.00  0.00    -0.247 OA
HETATM    3  N   UNK N   1       5.186  -1.405   0.000  0.00  0.00    -0.285 N 
HETATM    4  N   UNK N   1       6.016  -0.364   0.000  0.00  0.00    -0.309 N 
HETATM    5  N   UNK N   1       1.598   0.445  -0.000  0.00  0.00    -0.275 N 
HETATM    6  N   UNK N   1       2.794  -1.632  -0.000  0.00  0.00    -0.292 N 
ATOM      7  HN  UNK N   1       2.810  -2.652  -0.000  1.00  0.00     0.172 HD
HETATM    8  C   UNK N   1       3.965   0.433  -0.000  0.00  0.00     0.094 A 
HETATM    9  C   UNK N   1       3.942  -0.918  -0.000  0.00  0.00     0.141 A 
HETATM   10  C   UNK N   1       5.294   0.788   0.000  0.00  0.00     0.128 A 
HETATM   11  C   UNK N   1       2.782   1.151  -0.000  0.00  0.00     0.264 A 
HETATM   12  C   UNK N   1       1.603  -0.940  -0.000  0.00  0.00     0.328 A 
HETATM   13  H   UNK N   1       5.442  -2.355   0.000  0.00  0.00     0.188 HD
HETATM   14  H   UNK N   1       6.999  -0.419   0.000  0.00  0.00     0.186 HD
HETATM   15  H   UNK N   1       0.742   0.930  -0.000  0.00  0.00     0.173 HD
ENDROOT
TORSDOF 0
