REMARK WARNING: 32 MAX_TORS EXCEEDED!!!
REMARK  52 active torsions:
REMARK  status: ('A' for Active; 'I' for Inactive)
REMARK    1  A    between atoms: C_3  and  C_1 
REMARK    2  A    between atoms: C_10  and  C_13 
REMARK    3  A    between atoms: C_10  and  O_100 
REMARK    4  A    between atoms: C_11  and  O_12 
REMARK       I    between atoms: C_13  and  N_14 
REMARK    5  A    between atoms: N_14  and  N_15 
REMARK       I    between atoms: N_15  and  C_16 
REMARK    6  A    between atoms: C_16  and  O_17 
REMARK    7  A    between atoms: O_17  and  C_18 
REMARK    8  A    between atoms: C_18  and  C_19 
REMARK    9  A    between atoms: C_19  and  S_20 
REMARK   10  A    between atoms: S_20  and  S_21 
REMARK   11  A    between atoms: S_21  and  C_22 
REMARK   12  A    between atoms: C_23  and  C_22 
REMARK   13  A    between atoms: C_23  and  N_24 
REMARK   14  A    between atoms: C_23  and  C_95 
REMARK       I    between atoms: N_24  and  C_25 
REMARK   15  A    between atoms: C_26  and  C_25 
REMARK   16  A    between atoms: C_26  and  N_27 
REMARK   17  A    between atoms: C_26  and  C_90 
REMARK       I    between atoms: N_27  and  C_28 
REMARK   18  A    between atoms: C_29  and  C_28 
REMARK   19  A    between atoms: C_29  and  N_30 
REMARK   20  A    between atoms: C_29  and  C_85 
REMARK       I    between atoms: N_30  and  C_31 
REMARK   21  A    between atoms: C_32  and  C_31 
REMARK   22  A    between atoms: C_32  and  N_33 
REMARK   23  A    between atoms: C_32  and  C_76 
REMARK       I    between atoms: N_33  and  C_34 
REMARK   24  A    between atoms: C_35  and  C_34 
REMARK   25  A    between atoms: C_35  and  N_36 
REMARK   26  A    between atoms: C_35  and  C_71 
REMARK       I    between atoms: N_36  and  C_37 
REMARK   27  A    between atoms: C_37  and  C_38 
REMARK   28  A    between atoms: C_38  and  C_39 
REMARK   29  A    between atoms: C_40  and  C_39 
REMARK   30  A    between atoms: C_40  and  N_41 
REMARK   31  A    between atoms: C_40  and  C_67 
REMARK       I    between atoms: N_41  and  C_42 
REMARK   32  A    between atoms: C_42  and  C_44 
REMARK   33  A    between atoms: C_47  and  N_50 
REMARK   34  A    between atoms: N_50  and  C_51 
REMARK   35  A    between atoms: C_51  and  C_52 
REMARK       I    between atoms: C_61  and  N_66 
REMARK   36  A    between atoms: C_67  and  O_68 
REMARK   37  A    between atoms: C_71  and  C_72 
REMARK   38  A    between atoms: C_72  and  O_73 
REMARK   39  A    between atoms: C_76  and  C_77 
REMARK   40  A    between atoms: C_77  and  C_78 
REMARK   41  A    between atoms: C_78  and  N_79 
REMARK       I    between atoms: N_79  and  C_80 
REMARK       I    between atoms: C_80  and  N_83 
REMARK   42  A    between atoms: C_85  and  C_86 
REMARK   43  A    between atoms: C_86  and  O_87 
REMARK   44  A    between atoms: C_90  and  C_91 
REMARK   45  A    between atoms: C_91  and  O_92 
REMARK   46  A    between atoms: C_95  and  O_96 
REMARK   47  A    between atoms: C_103  and  O_132 
REMARK   48  A    between atoms: C_106  and  C_104 
REMARK   49  A    between atoms: C_106  and  C_107 
REMARK   50  A    between atoms: C_107  and  O_108 
REMARK   51  A    between atoms: C_127  and  C_129 
REMARK   52  A    between atoms: C_127  and  O_131 
ROOT
HETATM    1  C   UNK N   1      -1.492  -2.999  -0.189  0.00  0.00     0.186 C 
ENDROOT
BRANCH   1   2
HETATM    2  C   UNK N   1      -2.640  -2.198   0.316  0.00  0.00     0.241 C 
HETATM    3  N   UNK N   1      -2.841  -0.948  -0.167  0.00  0.00    -0.344 N 
HETATM    4  H   UNK N   1      -2.199  -0.571  -0.812  0.00  0.00     0.163 HD
HETATM    5  O   UNK N   1      -3.380  -2.666   1.171  0.00  0.00    -0.271 OA
BRANCH   3   6
HETATM    6  C   UNK N   1      -3.975  -0.156   0.241  0.00  0.00     0.192 C 
BRANCH   6   7
HETATM    7  C   UNK N   1      -5.259  -0.862  -0.152  0.00  0.00     0.122 C 
BRANCH   7   8
HETATM    8  S   UNK N   1      -5.328  -1.450  -1.875  0.00  0.00    -0.095 SA
BRANCH   8   9
HETATM    9  S   UNK N   1      -5.130  -3.513  -1.326  0.00  0.00    -0.095 SA
BRANCH   9  10
HETATM   10  C   UNK N   1      -6.386  -3.471  -0.013  0.00  0.00     0.113 C 
BRANCH  10  11
HETATM   11  C   UNK N   1      -5.991  -4.283   1.234  0.00  0.00     0.191 C 
BRANCH  11  12
HETATM   12  O   UNK N   1      -7.138  -4.766   1.839  0.00  0.00    -0.302 OA
BRANCH  12  13
HETATM   13  C   UNK N   1      -8.026  -5.435   1.077  0.00  0.00     0.379 C 
HETATM   14  N   UNK N   1      -9.233  -4.875   0.913  0.00  0.00    -0.243 N 
HETATM   15  H   UNK N   1      -9.691  -4.429   1.662  0.00  0.00     0.192 HD
HETATM   16  O   UNK N   1      -7.618  -6.242   0.249  0.00  0.00    -0.237 OA
BRANCH  14  17
HETATM   17  N   UNK N   1      -9.809  -4.941  -0.322  0.00  0.00    -0.263 N 
HETATM   18  C   UNK N   1     -10.139  -3.801  -0.970  0.00  0.00     0.275 C 
HETATM   19  O   UNK N   1     -10.361  -3.865  -2.171  0.00  0.00    -0.268 OA
HETATM   20  H   UNK N   1      -9.983  -5.815  -0.739  0.00  0.00     0.190 HD
BRANCH  18  21
HETATM   21  C   UNK N   1     -10.212  -2.434  -0.257  0.00  0.00     0.188 C 
HETATM   22  C   UNK N   1     -11.327  -1.580  -0.984  0.00  0.00     0.146 C 
HETATM   23  C   UNK N   1     -11.436  -0.077  -0.499  0.00  0.00     0.036 C 
HETATM   24  N   UNK N   1     -12.646  -2.148  -0.732  0.00  0.00    -0.375 N 
HETATM   25  C   UNK N   1      -9.983   0.425  -0.330  0.00  0.00     0.109 C 
HETATM   26  C   UNK N   1     -12.843  -0.083   0.168  0.00  0.00    -0.018 A 
HETATM   27  C   UNK N   1     -11.765   1.024  -1.544  0.00  0.00     0.038 C 
HETATM   28  C   UNK N   1      -8.885  -0.313   0.428  0.00  0.00     0.028 C 
HETATM   29  N   UNK N   1     -10.094   1.822  -0.055  0.00  0.00    -0.403 N 
HETATM   30  C   UNK N   1      -8.813  -1.725  -0.257  0.00  0.00     0.178 C 
HETATM   31  C   UNK N   1      -7.641   0.557   0.262  0.00  0.00    -0.015 C 
HETATM   32  C   UNK N   1      -7.705   1.894   0.435  0.00  0.00    -0.011 C 
HETATM   33  C   UNK N   1      -9.040   2.567   0.646  0.00  0.00     0.144 C 
HETATM   34  C   UNK N   1     -11.146   2.317  -0.921  0.00  0.00     0.119 C 
HETATM   35  C   UNK N   1     -13.499  -1.216  -0.172  0.00  0.00     0.040 A 
HETATM   36  C   UNK N   1     -13.600   1.025   0.562  0.00  0.00     0.022 A 
HETATM   37  C   UNK N   1     -14.895  -1.293  -0.217  0.00  0.00     0.067 A 
HETATM   38  C   UNK N   1     -15.681  -0.147   0.065  0.00  0.00     0.078 A 
HETATM   39  C   UNK N   1     -15.036   1.055   0.493  0.00  0.00     0.000 A 
HETATM   40  C   UNK N   1     -13.048  -3.505  -1.015  0.00  0.00     0.150 C 
BRANCH  28  41
HETATM   41  C   UNK N   1      -9.110  -0.440   1.938  0.00  0.00     0.014 C 
HETATM   42  C   UNK N   1      -7.897  -1.086   2.618  0.00  0.00     0.006 C 
ENDBRANCH  28  41
BRANCH  30  43
HETATM   43  O   UNK N   1      -8.347  -1.626  -1.577  0.00  0.00    -0.391 OA
HETATM   44  H   UNK N   1      -8.127  -1.870  -2.490  0.00  0.00     0.210 HD
ENDBRANCH  30  43
BRANCH  38  45
HETATM   45  O   UNK N   1     -17.023  -0.190  -0.119  0.00  0.00    -0.355 OA
HETATM   46  C   UNK N   1     -17.670  -1.262  -0.698  0.00  0.00     0.210 C 
ENDBRANCH  38  45
BRANCH  39  47
HETATM   47  C   UNK N   1     -15.783   2.384   0.929  0.00  0.00     0.121 C 
HETATM   48  C   UNK N   1     -16.829   3.197   0.106  0.00  0.00     0.040 A 
HETATM   49  C   UNK N   1     -17.044   4.604   0.255  0.00  0.00    -0.020 A 
HETATM   50  N   UNK N   1     -17.899   2.653  -0.539  0.00  0.00    -0.357 N 
HETATM   51  C   UNK N   1     -18.247   4.869  -0.325  0.00  0.00    -0.001 A 
HETATM   52  C   UNK N   1     -16.224   5.638   1.006  0.00  0.00     0.072 C 
HETATM   53  C   UNK N   1     -18.741   3.685  -0.799  0.00  0.00     0.043 A 
HETATM   54  C   UNK N   1     -18.965   6.062  -0.387  0.00  0.00     0.014 A 
HETATM   55  C   UNK N   1     -20.010   3.618  -1.377  0.00  0.00     0.030 A 
HETATM   56  C   UNK N   1     -20.765   4.809  -1.458  0.00  0.00     0.002 A 
HETATM   57  C   UNK N   1     -20.244   6.026  -0.964  0.00  0.00     0.001 A 
HETATM   58  C   UNK N   1     -15.545   6.680   0.089  0.00  0.00     0.277 C 
HETATM   59  N   UNK N   1     -14.479   6.165  -0.791  0.00  0.00     0.092 N 
HETATM   60  C   UNK N   1     -14.533   4.722  -1.036  0.00  0.00     0.277 C 
HETATM   61  C   UNK N   1     -13.136   6.702  -0.464  0.00  0.00     0.310 C 
HETATM   62  C   UNK N   1     -13.823   3.893   0.049  0.00  0.00     0.018 C 
HETATM   63  C   UNK N   1     -12.550   4.557   0.569  0.00  0.00     0.046 C 
HETATM   64  C   UNK N   1     -14.657   3.401   1.280  0.00  0.00     0.038 C 
HETATM   65  C   UNK N   1     -12.035   5.621  -0.390  0.00  0.00     0.084 C 
HETATM   66  H   UNK N   1     -18.033   1.705  -0.770  0.00  0.00     0.166 HD
BRANCH  47  67
HETATM   67  C   UNK N   1     -16.632   1.994   2.128  0.00  0.00     0.278 C 
HETATM   68  O   UNK N   1     -16.388   2.437   3.240  0.00  0.00    -0.264 OA
BRANCH  67  69
HETATM   69  O   UNK N   1     -17.727   1.209   1.923  0.00  0.00    -0.325 OA
HETATM   70  C   UNK N   1     -18.648   0.909   2.896  0.00  0.00     0.213 C 
ENDBRANCH  67  69
ENDBRANCH  47  67
BRANCH  65  71
HETATM   71  C   UNK N   1     -10.696   6.177   0.091  0.00  0.00     0.035 C 
HETATM   72  C   UNK N   1     -10.735   6.719   1.510  0.00  0.00     0.008 C 
ENDBRANCH  65  71
BRANCH  65  73
HETATM   73  O   UNK N   1     -11.821   5.069  -1.659  0.00  0.00    -0.388 OA
HETATM   74  H   UNK N   1     -12.078   4.749  -2.537  0.00  0.00     0.210 HD
ENDBRANCH  65  73
ENDBRANCH  39  47
BRANCH  21  75
HETATM   75  O   UNK N   1     -10.595  -2.621   1.077  0.00  0.00    -0.376 OA
HETATM   76  H   UNK N   1     -10.839  -2.456   2.001  0.00  0.00     0.211 HD
ENDBRANCH  21  75
ENDBRANCH  18  21
ENDBRANCH  14  17
ENDBRANCH  12  13
ENDBRANCH  11  12
ENDBRANCH  10  11
ENDBRANCH   9  10
ENDBRANCH   8   9
ENDBRANCH   7   8
ENDBRANCH   6   7
BRANCH   6  77
HETATM   77  C   UNK N   1      -3.888   1.257  -0.266  0.00  0.00     0.164 C 
HETATM   78  O   UNK N   1      -4.725   1.702  -1.037  0.00  0.00    -0.648 OA
BRANCH  77  79
HETATM   79  O   UNK N   1      -2.921   2.066   0.197  0.00  0.00    -0.775 OA
HETATM   80  H   UNK N   1      -2.095   1.765   0.519  0.00  0.00     0.167 HD
ENDBRANCH  77  79
ENDBRANCH   6  77
ENDBRANCH   3   6
ENDBRANCH   1   2
BRANCH   1  81
HETATM   81  N   UNK N   1      -0.617  -3.296   0.910  0.00  0.00    -0.345 N 
HETATM   82  C   UNK N   1       0.350  -2.455   1.346  0.00  0.00     0.241 C 
HETATM   83  O   UNK N   1       1.032  -2.797   2.297  0.00  0.00    -0.271 OA
HETATM   84  H   UNK N   1      -0.727  -4.159   1.372  0.00  0.00     0.163 HD
BRANCH  82  85
HETATM   85  C   UNK N   1       0.657  -1.122   0.690  0.00  0.00     0.186 C 
BRANCH  85  86
HETATM   86  N   UNK N   1       0.734  -1.097  -0.763  0.00  0.00    -0.346 N 
HETATM   87  C   UNK N   1       1.616  -1.672  -1.621  0.00  0.00     0.241 C 
HETATM   88  O   UNK N   1       1.643  -1.257  -2.768  0.00  0.00    -0.271 OA
HETATM   89  H   UNK N   1       0.024  -0.572  -1.199  0.00  0.00     0.163 HD
BRANCH  87  90
HETATM   90  C   UNK N   1       2.688  -2.646  -1.227  0.00  0.00     0.176 C 
BRANCH  90  91
HETATM   91  N   UNK N   1       3.902  -1.907  -1.042  0.00  0.00    -0.346 N 
HETATM   92  C   UNK N   1       4.124  -1.120   0.033  0.00  0.00     0.241 C 
HETATM   93  O   UNK N   1       3.566  -1.330   1.101  0.00  0.00    -0.271 OA
HETATM   94  H   UNK N   1       4.604  -1.976  -1.729  0.00  0.00     0.163 HD
BRANCH  92  95
HETATM   95  C   UNK N   1       4.918   0.115  -0.193  0.00  0.00     0.186 C 
BRANCH  95  96
HETATM   96  N   UNK N   1       6.177  -0.237  -0.791  0.00  0.00    -0.347 N 
HETATM   97  C   UNK N   1       7.341  -0.347  -0.130  0.00  0.00     0.218 C 
HETATM   98  O   UNK N   1       7.480   0.094   1.001  0.00  0.00    -0.274 OA
HETATM   99  H   UNK N   1       6.186  -0.412  -1.760  0.00  0.00     0.163 HD
BRANCH  97 100
HETATM  100  C   UNK N   1       8.334  -1.279  -0.685  0.00  0.00     0.105 C 
BRANCH 100 101
HETATM  101  C   UNK N   1       8.147  -2.543   0.144  0.00  0.00     0.045 C 
BRANCH 101 102
HETATM  102  C   UNK N   1       8.540  -3.839  -0.560  0.00  0.00     0.183 C 
BRANCH 102 103
HETATM  103  N   UNK N   1       9.873  -3.661  -1.100  0.00  0.00    -0.343 N 
HETATM  104  C   UNK N   1      10.952  -3.614  -0.287  0.00  0.00     0.252 C 
HETATM  105  O   UNK N   1      11.137  -4.495   0.540  0.00  0.00    -0.268 OA
HETATM  106  H   UNK N   1       9.994  -3.573  -2.073  0.00  0.00     0.163 HD
BRANCH 104 107
HETATM  107  C   UNK N   1      11.658  -2.337  -0.148  0.00  0.00     0.032 A 
HETATM  108  C   UNK N   1      11.404  -1.271  -1.027  0.00  0.00     0.019 A 
HETATM  109  C   UNK N   1      11.933  -0.007  -0.763  0.00  0.00     0.030 A 
HETATM  110  C   UNK N   1      12.673   0.205   0.409  0.00  0.00     0.028 A 
HETATM  111  C   UNK N   1      12.925  -0.855   1.277  0.00  0.00     0.030 A 
HETATM  112  C   UNK N   1      12.427  -2.121   0.998  0.00  0.00     0.019 A 
BRANCH 110 113
HETATM  113  N   UNK N   1      13.224   1.465   0.708  0.00  0.00    -0.384 N 
HETATM  114  H   UNK N   1      13.233   1.781   1.640  0.00  0.00     0.160 HD
BRANCH 113 115
HETATM  115  C   UNK N   1      13.772   2.296  -0.325  0.00  0.00     0.178 C 
BRANCH 115 116
HETATM  116  C   UNK N   1      15.247   2.127  -0.244  0.00  0.00     0.043 A 
HETATM  117  N   UNK N   1      15.788   0.883  -0.353  0.00  0.00    -0.350 N 
HETATM  118  C   UNK N   1      17.126   0.689  -0.190  0.00  0.00     0.147 A 
ATOM    119  HN  UNK N   1      15.184   0.087  -0.560  1.00  0.00     0.166 HD
HETATM  120  C   UNK N   1      17.948   1.786   0.091  0.00  0.00     0.153 A 
HETATM  121  C   UNK N   1      17.697  -0.580  -0.285  0.00  0.00     0.290 A 
HETATM  122  N   UNK N   1      19.286   1.601   0.262  0.00  0.00    -0.174 N 
HETATM  123  N   UNK N   1      17.408   3.027   0.197  0.00  0.00    -0.348 N 
HETATM  124  C   UNK N   1      19.833   0.361   0.165  0.00  0.00     0.680 A 
ATOM    125  HN  UNK N   1      19.884   2.402   0.466  1.00  0.00     0.186 HD
HETATM  126  N   UNK N   1      21.221   0.193   0.345  0.00  0.00    -0.234 N 
HETATM  127  N   UNK N   1      19.052  -0.719  -0.104  0.00  0.00    -0.154 N 
HETATM  128  H   UNK N   1      21.605  -0.705   0.471  0.00  0.00     0.174 HD
HETATM  129  H   UNK N   1      21.812   0.981   0.345  0.00  0.00     0.174 HD
ATOM    130  HN  UNK N   1      19.478  -1.644  -0.173  1.00  0.00     0.187 HD
HETATM  131  C   UNK N   1      16.069   3.219   0.041  0.00  0.00     0.116 A 
HETATM  132  H   UNK N   1      17.991   3.797   0.387  0.00  0.00     0.167 HD
HETATM  133  O   UNK N   1      17.015  -1.559  -0.521  0.00  0.00    -0.265 OA
ENDBRANCH 115 116
ENDBRANCH 113 115
ENDBRANCH 110 113
ENDBRANCH 104 107
ENDBRANCH 102 103
BRANCH 102 134
HETATM  134  C   UNK N   1       8.438  -4.989   0.423  0.00  0.00     0.163 C 
HETATM  135  O   UNK N   1       8.085  -4.795   1.579  0.00  0.00    -0.648 OA
BRANCH 134 136
HETATM  136  O   UNK N   1       8.760  -6.233   0.032  0.00  0.00    -0.775 OA
HETATM  137  H   UNK N   1       8.121  -6.862  -0.240  0.00  0.00     0.167 HD
ENDBRANCH 134 136
ENDBRANCH 102 134
ENDBRANCH 101 102
ENDBRANCH 100 101
ENDBRANCH  97 100
ENDBRANCH  95  96
BRANCH  95 138
HETATM  138  C   UNK N   1       4.929   1.117   0.950  0.00  0.00     0.144 C 
BRANCH 138 139
HETATM  139  C   UNK N   1       4.627   2.462   0.389  0.00  0.00     0.141 C 
HETATM  140  O   UNK N   1       5.414   3.378   0.550  0.00  0.00    -0.650 OA
BRANCH 139 141
HETATM  141  O   UNK N   1       3.490   2.666  -0.306  0.00  0.00    -0.776 OA
HETATM  142  H   UNK N   1       3.218   3.421  -0.790  0.00  0.00     0.167 HD
ENDBRANCH 139 141
ENDBRANCH 138 139
ENDBRANCH  95 138
ENDBRANCH  92  95
ENDBRANCH  90  91
BRANCH  90 143
HETATM  143  C   UNK N   1       2.358  -3.672  -0.169  0.00  0.00     0.036 C 
BRANCH 143 144
HETATM  144  C   UNK N   1       2.902  -5.018  -0.542  0.00  0.00     0.023 C 
BRANCH 144 145
HETATM  145  C   UNK N   1       3.673  -5.556   0.642  0.00  0.00     0.138 C 
BRANCH 145 146
HETATM  146  N   UNK N   1       4.556  -6.606   0.205  0.00  0.00    -0.227 N 
HETATM  147  C   UNK N   1       5.600  -6.372  -0.728  0.00  0.00     0.665 C 
HETATM  148  N   UNK N   1       5.784  -5.204  -1.228  0.00  0.00    -0.235 N 
HETATM  149  N   UNK N   1       6.416  -7.445  -1.141  0.00  0.00    -0.235 N 
HETATM  150  H   UNK N   1       6.630  -4.878  -1.612  0.00  0.00     0.174 HD
ATOM    151  HN  UNK N   1       4.991  -4.563  -1.228  1.00  0.00     0.174 HD
HETATM  152  H   UNK N   1       6.051  -8.313  -1.430  0.00  0.00     0.174 HD
HETATM  153  H   UNK N   1       7.392  -7.321  -1.141  0.00  0.00     0.174 HD
HETATM  154  H   UNK N   1       4.431  -7.514   0.564  0.00  0.00     0.177 HD
ENDBRANCH 145 146
ENDBRANCH 144 145
ENDBRANCH 143 144
ENDBRANCH  90 143
ENDBRANCH  87  90
ENDBRANCH  85  86
BRANCH  85 155
HETATM  155  C   UNK N   1      -0.314  -0.034   1.126  0.00  0.00     0.144 C 
BRANCH 155 156
HETATM  156  C   UNK N   1       0.125   1.277   0.544  0.00  0.00     0.141 C 
HETATM  157  O   UNK N   1       1.030   1.903   1.067  0.00  0.00    -0.650 OA
BRANCH 156 158
HETATM  158  O   UNK N   1      -0.398   1.705  -0.621  0.00  0.00    -0.776 OA
HETATM  159  H   UNK N   1      -0.322   2.169  -1.432  0.00  0.00     0.167 HD
ENDBRANCH 156 158
ENDBRANCH 155 156
ENDBRANCH  85 155
ENDBRANCH  82  85
ENDBRANCH   1  81
BRANCH   1 160
HETATM  160  C   UNK N   1      -1.937  -4.276  -0.922  0.00  0.00     0.144 C 
BRANCH 160 161
HETATM  161  C   UNK N   1      -2.316  -5.424  -0.027  0.00  0.00     0.141 C 
HETATM  162  O   UNK N   1      -1.451  -6.047   0.565  0.00  0.00    -0.650 OA
BRANCH 161 163
HETATM  163  O   UNK N   1      -3.600  -5.808   0.076  0.00  0.00    -0.776 OA
HETATM  164  H   UNK N   1      -4.280  -5.167   0.148  0.00  0.00     0.167 HD
ENDBRANCH 161 163
ENDBRANCH 160 161
ENDBRANCH   1 160
TORSDOF 52
