REMARK  11 active torsions:
REMARK  status: ('A' for Active; 'I' for Inactive)
REMARK    1  A    between atoms: C_2  and  C_3 
REMARK    2  A    between atoms: C_3  and  C_4 
REMARK    3  A    between atoms: C_4  and  C_5 
REMARK    4  A    between atoms: C_10  and  C_22 
REMARK    5  A    between atoms: N_14  and  C_15 
REMARK    6  A    between atoms: C_15  and  C_16 
REMARK    7  A    between atoms: C_16  and  N_17 
REMARK    8  A    between atoms: N_17  and  C_18 
REMARK    9  A    between atoms: N_17  and  C_20 
REMARK   10  A    between atoms: C_23  and  C_24 
REMARK       I    between atoms: C_24  and  N_26 
REMARK   11  A    between atoms: N_26  and  O_27 
ROOT
HETATM    1  C   UNK N   1       1.022  -0.836  -0.003  0.00  0.00     0.084 A 
HETATM    2  N   UNK N   1       0.184   0.201   0.278  0.00  0.00    -0.344 N 
ATOM      3  HN  UNK N   1      -0.796   0.156   0.556  1.00  0.00     0.167 HD
HETATM    4  C   UNK N   1       0.945   1.301   0.107  0.00  0.00     0.061 A 
HETATM    5  C   UNK N   1       0.582   2.642   0.261  0.00  0.00     0.043 A 
HETATM    6  C   UNK N   1       1.578   3.618   0.022  0.00  0.00    -0.034 A 
HETATM    7  C   UNK N   1       2.885   3.213  -0.361  0.00  0.00     0.014 A 
HETATM    8  C   UNK N   1       3.207   1.860  -0.511  0.00  0.00     0.033 A 
HETATM    9  C   UNK N   1       2.202   0.935  -0.266  0.00  0.00     0.062 A 
HETATM   10  N   UNK N   1       2.271  -0.398  -0.342  0.00  0.00    -0.333 N 
ENDROOT
BRANCH   6  11
HETATM   11  C   UNK N   1       1.271   5.055   0.161  0.00  0.00     0.017 C 
HETATM   12  C   UNK N   1       2.245   5.959  -0.009  0.00  0.00     0.077 C 
BRANCH  12  13
HETATM   13  C   UNK N   1       2.052   7.412   0.078  0.00  0.00     0.264 C 
HETATM   14  O   UNK N   1       0.941   7.886   0.265  0.00  0.00    -0.266 OA
HETATM   15  N   UNK N   1       3.128   8.219  -0.056  0.00  0.00    -0.234 N 
HETATM   16  H   UNK N   1       4.015   7.820  -0.208  0.00  0.00     0.197 HD
BRANCH  15  17
HETATM   17  O   UNK N   1       3.008   9.551   0.015  0.00  0.00    -0.287 OA
HETATM   18  H   UNK N   1       3.800  10.108   0.066  0.00  0.00     0.244 HD
ENDBRANCH  15  17
ENDBRANCH  12  13
ENDBRANCH   6  11
BRANCH   1  19
HETATM   19  C   UNK N   1       0.553  -2.269   0.061  0.00  0.00     0.076 C 
BRANCH  19  20
HETATM   20  C   UNK N   1       1.600  -3.306  -0.303  0.00  0.00     0.007 C 
BRANCH  20  21
HETATM   21  C   UNK N   1       1.111  -4.694   0.044  0.00  0.00    -0.004 C 
HETATM   22  C   UNK N   1       2.252  -5.677  -0.122  0.00  0.00     0.005 C 
ENDBRANCH  20  21
ENDBRANCH  19  20
ENDBRANCH   1  19
BRANCH  10  23
HETATM   23  C   UNK N   1       3.465  -1.138  -0.738  0.00  0.00     0.161 C 
BRANCH  23  24
HETATM   24  C   UNK N   1       4.163  -1.738   0.470  0.00  0.00     0.292 C 
BRANCH  24  25
HETATM   25  N   UNK N   1       5.471  -2.222   0.063  0.00  0.00     0.089 N 
BRANCH  25  26
HETATM   26  C   UNK N   1       5.634  -3.550   0.637  0.00  0.00     0.268 C 
HETATM   27  C   UNK N   1       6.603  -4.365  -0.201  0.00  0.00     0.037 C 
ENDBRANCH  25  26
BRANCH  25  28
HETATM   28  C   UNK N   1       6.457  -1.336   0.667  0.00  0.00     0.268 C 
HETATM   29  C   UNK N   1       7.687  -1.244  -0.217  0.00  0.00     0.037 C 
ENDBRANCH  25  28
ENDBRANCH  24  25
ENDBRANCH  23  24
ENDBRANCH  10  23
TORSDOF 11
