REMARK  4 active torsions:
REMARK  status: ('A' for Active; 'I' for Inactive)
REMARK    1  A    between atoms: N_1  and  C_5 
REMARK    2  A    between atoms: C_4  and  C_5 
REMARK    3  A    between atoms: C_4  and  C_6 
REMARK    4  A    between atoms: C_7  and  C_8 
ROOT
HETATM    1  N   UNK N   1       0.904  -3.535  -0.000  0.00  0.00    -0.374 N 
ATOM      2  HN  UNK N   1       0.022  -4.047  -0.000  1.00  0.00     0.164 HD
HETATM    3  C   UNK N   1       2.078  -1.452   0.000  0.00  0.00    -0.021 A 
HETATM    4  C   UNK N   1       3.292  -2.154   0.000  0.00  0.00     0.014 A 
HETATM    5  C   UNK N   1       0.882  -2.174  -0.000  0.00  0.00     0.099 A 
HETATM    6  C   UNK N   1       3.293  -3.547   0.000  0.00  0.00     0.018 A 
HETATM    7  C   UNK N   1       2.076  -4.229   0.000  0.00  0.00     0.087 A 
ENDROOT
BRANCH   3   8
HETATM    8  C   UNK N   1       2.050   0.021  -0.000  0.00  0.00     0.009 C 
HETATM    9  C   UNK N   1       3.186   0.717  -0.000  0.00  0.00    -0.024 C 
BRANCH   9  10
HETATM   10  C   UNK N   1       3.207   2.202  -0.000  0.00  0.00     0.046 C 
BRANCH  10  11
HETATM   11  C   UNK N   1       4.662   2.620  -0.000  0.00  0.00     0.117 C 
BRANCH  11  12
HETATM   12  N   UNK N   1       4.776   4.064   0.000  0.00  0.00    -0.425 N 
HETATM   13  C   UNK N   1       6.199   4.354   0.000  0.00  0.00     0.139 C 
HETATM   14  H   UNK N   1       4.012   4.740   0.000  0.00  0.00     0.152 HD
ENDBRANCH  11  12
ENDBRANCH  10  11
ENDBRANCH   9  10
ENDBRANCH   3   8
TORSDOF 4
