REMARK  13 active torsions:
REMARK  status: ('A' for Active; 'I' for Inactive)
REMARK    1  A    between atoms: C_2  and  C_3 
REMARK    2  A    between atoms: C_3  and  C_4 
REMARK    3  A    between atoms: C_4  and  C_5 
REMARK    4  A    between atoms: C_5  and  C_6 
REMARK    5  A    between atoms: C_6  and  C_7 
REMARK    6  A    between atoms: C_7  and  C_10 
REMARK    7  A    between atoms: C_12  and  O_34 
REMARK    8  A    between atoms: C_24  and  C_13 
REMARK    9  A    between atoms: C_14  and  O_16 
REMARK   10  A    between atoms: O_16  and  C_17 
REMARK   11  A    between atoms: C_17  and  C_19 
REMARK   12  A    between atoms: C_20  and  C_21 
REMARK   13  A    between atoms: C_21  and  O_23 
ROOT
HETATM    1  C   UNK N   1       4.205   3.532  -0.078  0.00  0.00    -0.045 A 
HETATM    2  C   UNK N   1       4.905   2.324  -0.003  0.00  0.00     0.045 A 
HETATM    3  C   UNK N   1       4.236   1.105  -0.064  0.00  0.00     0.075 A 
HETATM    4  C   UNK N   1       2.827   1.059  -0.171  0.00  0.00     0.014 A 
HETATM    5  C   UNK N   1       2.099   2.281  -0.185  0.00  0.00     0.089 A 
HETATM    6  C   UNK N   1       2.810   3.493  -0.154  0.00  0.00     0.046 A 
ENDROOT
BRANCH   4   7
HETATM    7  C   UNK N   1       2.166  -0.297  -0.331  0.00  0.00     0.036 C 
HETATM    8  C   UNK N   1       2.547  -1.404   0.691  0.00  0.00     0.088 C 
HETATM    9  C   UNK N   1       1.631  -2.596   0.501  0.00  0.00     0.132 C 
HETATM   10  O   UNK N   1       1.972  -3.706   0.874  0.00  0.00    -0.298 OA
HETATM   11  C   UNK N   1       0.309  -2.392  -0.220  0.00  0.00     0.064 C 
HETATM   12  C   UNK N   1       0.724  -1.791  -1.567  0.00  0.00     0.019 C 
HETATM   13  C   UNK N   1      -0.248  -0.999   0.123  0.00  0.00    -0.033 C 
HETATM   14  C   UNK N   1       0.723  -0.404  -0.911  0.00  0.00     0.004 C 
HETATM   15  C   UNK N   1      -0.157  -0.513   1.570  0.00  0.00     0.016 C 
HETATM   16  C   UNK N   1      -1.691  -0.865  -0.358  0.00  0.00     0.016 C 
ENDBRANCH   4   7
BRANCH   3  17
HETATM   17  O   UNK N   1       4.961  -0.029  -0.046  0.00  0.00    -0.360 OA
HETATM   18  H   UNK N   1       4.530  -0.860  -0.033  0.00  0.00     0.217 HD
ENDBRANCH   3  17
BRANCH   5  19
HETATM   19  O   UNK N   1       0.732   2.277  -0.228  0.00  0.00    -0.275 OA
BRANCH  19  20
HETATM   20  C   UNK N   1      -0.081   3.378  -0.275  0.00  0.00     0.288 C 
HETATM   21  O   UNK N   1       0.378   4.498  -0.439  0.00  0.00    -0.260 OA
BRANCH  20  22
HETATM   22  C   UNK N   1      -1.538   3.213  -0.111  0.00  0.00     0.089 C 
HETATM   23  C   UNK N   1      -2.340   4.286  -0.114  0.00  0.00     0.087 C 
BRANCH  23  24
HETATM   24  C   UNK N   1      -3.798   4.193   0.061  0.00  0.00     0.165 C 
HETATM   25  O   UNK N   1      -4.341   3.112   0.222  0.00  0.00    -0.647 OA
BRANCH  24  26
HETATM   26  O   UNK N   1      -4.538   5.318   0.048  0.00  0.00    -0.773 OA
HETATM   27  H   UNK N   1      -4.117   6.155   0.039  0.00  0.00     0.167 HD
ENDBRANCH  24  26
ENDBRANCH  23  24
ENDBRANCH  20  22
ENDBRANCH  19  20
ENDBRANCH   5  19
BRANCH   1  28
HETATM   28  C   UNK N   1       4.969   4.843  -0.133  0.00  0.00    -0.020 C 
HETATM   29  C   UNK N   1       4.058   6.021  -0.468  0.00  0.00     0.020 C 
HETATM   30  C   UNK N   1       6.015   4.733  -1.239  0.00  0.00     0.020 C 
BRANCH  28  31
HETATM   31  C   UNK N   1       5.611   5.091   1.242  0.00  0.00     0.013 C 
BRANCH  31  32
HETATM   32  C   UNK N   1       6.778   6.086   1.347  0.00  0.00     0.001 C 
BRANCH  32  33
HETATM   33  C   UNK N   1       6.774   7.245   0.357  0.00  0.00     0.000 C 
BRANCH  33  34
HETATM   34  C   UNK N   1       8.057   7.200  -0.462  0.00  0.00    -0.000 C 
BRANCH  34  35
HETATM   35  C   UNK N   1       9.256   7.536   0.409  0.00  0.00    -0.005 C 
HETATM   36  C   UNK N   1      10.527   7.069  -0.268  0.00  0.00     0.005 C 
ENDBRANCH  34  35
ENDBRANCH  33  34
ENDBRANCH  32  33
ENDBRANCH  31  32
ENDBRANCH  28  31
ENDBRANCH   1  28
TORSDOF 13
