REMARK  21 active torsions:
REMARK  status: ('A' for Active; 'I' for Inactive)
REMARK    1  A    between atoms: C_2  and  C_3 
REMARK    2  A    between atoms: C_3  and  C_4 
REMARK    3  A    between atoms: C_4  and  C_5 
REMARK    4  A    between atoms: C_5  and  C_6 
REMARK    5  A    between atoms: C_5  and  N_29 
REMARK       I    between atoms: C_6  and  N_8 
REMARK    6  A    between atoms: C_9  and  N_8 
REMARK    7  A    between atoms: C_9  and  C_10 
REMARK    8  A    between atoms: C_9  and  C_18 
REMARK    9  A    between atoms: C_10  and  C_11 
REMARK   10  A    between atoms: C_11  and  C_12 
REMARK   11  A    between atoms: C_12  and  N_13 
REMARK       I    between atoms: N_13  and  C_14 
REMARK       I    between atoms: C_14  and  N_17 
REMARK       I    between atoms: C_18  and  N_20 
REMARK   12  A    between atoms: N_20  and  C_21 
REMARK   13  A    between atoms: C_21  and  C_22 
REMARK       I    between atoms: N_29  and  C_30 
REMARK   14  A    between atoms: C_30  and  C_32 
REMARK   15  A    between atoms: C_32  and  C_33 
REMARK   16  A    between atoms: C_32  and  N_40 
REMARK   17  A    between atoms: C_33  and  C_34 
REMARK       I    between atoms: N_40  and  C_41 
REMARK   18  A    between atoms: C_41  and  C_43 
REMARK   19  A    between atoms: C_43  and  C_44 
REMARK   20  A    between atoms: C_43  and  N_51 
REMARK   21  A    between atoms: C_44  and  C_45 
ROOT
HETATM    1  C   UNK N   1       4.149 -11.443   0.601  0.00  0.00     0.176 C 
ENDROOT
BRANCH   1   2
HETATM    2  C   UNK N   1       3.902 -12.928   0.865  0.00  0.00     0.035 C 
BRANCH   2   3
HETATM    3  C   UNK N   1       5.191 -13.702   1.065  0.00  0.00     0.002 C 
BRANCH   3   4
HETATM    4  C   UNK N   1       5.633 -14.282  -0.263  0.00  0.00    -0.004 C 
HETATM    5  C   UNK N   1       7.141 -14.383  -0.288  0.00  0.00     0.005 C 
ENDBRANCH   3   4
ENDBRANCH   2   3
ENDBRANCH   1   2
BRANCH   1   6
HETATM    6  C   UNK N   1       2.812 -10.819   0.370  0.00  0.00     0.241 C 
HETATM    7  O   UNK N   1       2.235 -10.287   1.308  0.00  0.00    -0.271 OA
HETATM    8  N   UNK N   1       2.235 -10.884  -0.858  0.00  0.00    -0.346 N 
HETATM    9  H   UNK N   1       2.771 -11.253  -1.596  0.00  0.00     0.163 HD
BRANCH   8  10
HETATM   10  C   UNK N   1       0.886 -10.449  -1.159  0.00  0.00     0.176 C 
BRANCH  10  11
HETATM   11  C   UNK N   1       0.603  -9.032  -0.652  0.00  0.00     0.036 C 
BRANCH  11  12
HETATM   12  C   UNK N   1      -0.747  -8.501  -1.107  0.00  0.00     0.023 C 
BRANCH  12  13
HETATM   13  C   UNK N   1      -1.517  -7.929   0.078  0.00  0.00     0.138 C 
BRANCH  13  14
HETATM   14  N   UNK N   1      -0.889  -6.737   0.599  0.00  0.00    -0.227 N 
HETATM   15  C   UNK N   1      -0.998  -5.480  -0.050  0.00  0.00     0.665 C 
HETATM   16  N   UNK N   1      -0.475  -4.441   0.488  0.00  0.00    -0.235 N 
HETATM   17  N   UNK N   1      -1.711  -5.354  -1.263  0.00  0.00    -0.235 N 
HETATM   18  H   UNK N   1       0.416  -4.390   0.902  0.00  0.00     0.174 HD
ATOM     19  HN  UNK N   1      -1.036  -3.589   0.488  1.00  0.00     0.174 HD
HETATM   20  H   UNK N   1      -1.884  -4.880  -2.109  0.00  0.00     0.174 HD
HETATM   21  H   UNK N   1      -2.344  -6.109  -1.263  0.00  0.00     0.174 HD
HETATM   22  H   UNK N   1      -0.368  -6.799   1.432  0.00  0.00     0.177 HD
ENDBRANCH  13  14
ENDBRANCH  12  13
ENDBRANCH  11  12
ENDBRANCH  10  11
BRANCH  10  23
HETATM   23  C   UNK N   1      -0.105 -11.438  -0.635  0.00  0.00     0.240 C 
HETATM   24  O   UNK N   1      -0.771 -12.085  -1.430  0.00  0.00    -0.271 OA
HETATM   25  N   UNK N   1      -0.288 -11.583   0.705  0.00  0.00    -0.355 N 
HETATM   26  H   UNK N   1       0.299 -11.087   1.320  0.00  0.00     0.162 HD
BRANCH  25  27
HETATM   27  C   UNK N   1      -1.312 -12.439   1.258  0.00  0.00     0.161 C 
BRANCH  27  28
HETATM   28  C   UNK N   1      -2.649 -11.969   0.788  0.00  0.00    -0.038 A 
HETATM   29  C   UNK N   1      -3.421 -12.791  -0.033  0.00  0.00     0.025 A 
HETATM   30  C   UNK N   1      -4.622 -12.304  -0.551  0.00  0.00     0.088 A 
HETATM   31  N   UNK N   1      -5.027 -11.037  -0.262  0.00  0.00    -0.375 N 
HETATM   32  C   UNK N   1      -4.290 -10.222   0.540  0.00  0.00     0.088 A 
ATOM     33  HN  UNK N   1      -5.902 -10.692  -0.655  1.00  0.00     0.164 HD
HETATM   34  C   UNK N   1      -3.084 -10.673   1.078  0.00  0.00     0.025 A 
ENDBRANCH  27  28
ENDBRANCH  25  27
ENDBRANCH  10  23
ENDBRANCH   8  10
ENDBRANCH   1   6
BRANCH   1  35
HETATM   35  N   UNK N   1       5.011 -11.286  -0.555  0.00  0.00    -0.346 N 
HETATM   36  C   UNK N   1       5.940 -10.312  -0.773  0.00  0.00     0.241 C 
HETATM   37  O   UNK N   1       6.691 -10.449  -1.728  0.00  0.00    -0.271 OA
HETATM   38  H   UNK N   1       4.913 -11.961  -1.266  0.00  0.00     0.163 HD
BRANCH  36  39
HETATM   39  C   UNK N   1       6.135  -9.072   0.095  0.00  0.00     0.180 C 
BRANCH  39  40
HETATM   40  C   UNK N   1       5.010  -8.778   1.108  0.00  0.00     0.073 C 
BRANCH  40  41
HETATM   41  C   UNK N   1       4.046  -7.707   0.679  0.00  0.00    -0.056 A 
HETATM   42  C   UNK N   1       3.471  -7.722  -0.600  0.00  0.00     0.007 A 
HETATM   43  C   UNK N   1       2.619  -6.689  -0.999  0.00  0.00     0.001 A 
HETATM   44  C   UNK N   1       2.329  -5.646  -0.118  0.00  0.00     0.000 A 
HETATM   45  C   UNK N   1       2.887  -5.635   1.163  0.00  0.00     0.001 A 
HETATM   46  C   UNK N   1       3.749  -6.661   1.558  0.00  0.00     0.007 A 
ENDBRANCH  40  41
ENDBRANCH  39  40
BRANCH  39  47
HETATM   47  N   UNK N   1       6.396  -7.929  -0.763  0.00  0.00    -0.346 N 
HETATM   48  C   UNK N   1       7.128  -6.835  -0.422  0.00  0.00     0.240 C 
HETATM   49  O   UNK N   1       7.260  -5.939  -1.238  0.00  0.00    -0.271 OA
HETATM   50  H   UNK N   1       6.009  -7.947  -1.668  0.00  0.00     0.163 HD
BRANCH  48  51
HETATM   51  C   UNK N   1       7.802  -6.686   0.918  0.00  0.00     0.171 C 
BRANCH  51  52
HETATM   52  C   UNK N   1       8.808  -7.797   1.181  0.00  0.00     0.072 C 
BRANCH  52  53
HETATM   53  C   UNK N   1      10.079  -7.560   0.438  0.00  0.00    -0.056 A 
HETATM   54  C   UNK N   1      10.880  -6.453   0.751  0.00  0.00     0.007 A 
HETATM   55  C   UNK N   1      12.082  -6.244   0.070  0.00  0.00     0.001 A 
HETATM   56  C   UNK N   1      12.488  -7.141  -0.923  0.00  0.00     0.000 A 
HETATM   57  C   UNK N   1      11.690  -8.247  -1.235  0.00  0.00     0.001 A 
HETATM   58  C   UNK N   1      10.487  -8.458  -0.553  0.00  0.00     0.007 A 
ENDBRANCH  52  53
ENDBRANCH  51  52
BRANCH  51  59
HETATM   59  N   UNK N   1       6.832  -6.624   1.994  0.00  0.00    -0.418 N 
HETATM   60  H   UNK N   1       6.528  -6.011   2.751  0.00  0.00     0.150 HD
HETATM   61  H   UNK N   1       6.266  -7.473   1.994  0.00  0.00     0.150 HD
ENDBRANCH  51  59
ENDBRANCH  48  51
ENDBRANCH  39  47
ENDBRANCH  36  39
ENDBRANCH   1  35
TORSDOF 21
