REMARK  3 active torsions:
REMARK  status: ('A' for Active; 'I' for Inactive)
REMARK    1  A    between atoms: O_1  and  C_9 
REMARK    2  A    between atoms: O_1  and  C_10 
REMARK    3  A    between atoms: C_5  and  C_9 
ROOT
HETATM    1  N   UNK N   1       5.743  -2.905   0.009  0.00  0.00    -0.367 N 
ATOM      2  HN  UNK N   1       5.650  -3.921   0.015  1.00  0.00     0.165 HD
HETATM    3  C   UNK N   1       4.730  -0.737  -0.003  0.00  0.00     0.090 A 
HETATM    4  C   UNK N   1       4.623  -2.136   0.010  0.00  0.00     0.038 A 
HETATM    5  C   UNK N   1       6.006  -0.155  -0.017  0.00  0.00     0.040 A 
HETATM    6  C   UNK N   1       3.283  -2.791   0.018  0.00  0.00     0.071 C 
HETATM    7  C   UNK N   1       7.139  -0.966  -0.014  0.00  0.00     0.020 A 
HETATM    8  C   UNK N   1       6.987  -2.354  -0.002  0.00  0.00     0.088 A 
ENDROOT
BRANCH   3   9
HETATM    9  O   UNK N   1       3.608   0.014   0.003  0.00  0.00    -0.347 OA
BRANCH   9  10
HETATM   10  C   UNK N   1       3.589   1.382  -0.141  0.00  0.00     0.200 C 
BRANCH  10  11
HETATM   11  C   UNK N   1       2.268   1.913   0.381  0.00  0.00     0.101 C 
HETATM   12  N   UNK N   1       1.150   1.139  -0.132  0.00  0.00    -0.415 N 
HETATM   13  C   UNK N   1       0.010   2.040  -0.038  0.00  0.00     0.114 C 
HETATM   14  H   UNK N   1       1.161   0.180  -0.479  0.00  0.00     0.153 HD
HETATM   15  C   UNK N   1       0.540   3.464  -0.006  0.00  0.00     0.021 C 
HETATM   16  C   UNK N   1       2.041   3.330  -0.067  0.00  0.00     0.028 C 
ENDBRANCH  10  11
ENDBRANCH   9  10
ENDBRANCH   3   9
TORSDOF 3
