REMARK  13 active torsions:
REMARK  status: ('A' for Active; 'I' for Inactive)
REMARK    1  A    between atoms: C_2  and  C_19 
REMARK    2  A    between atoms: C_6  and  S_8 
REMARK    3  A    between atoms: S_8  and  N_11 
REMARK    4  A    between atoms: C_15  and  C_16 
REMARK       I    between atoms: C_16  and  N_18 
REMARK    5  A    between atoms: N_18  and  C_35 
REMARK    6  A    between atoms: C_19  and  O_21 
REMARK    7  A    between atoms: O_21  and  C_22 
REMARK    8  A    between atoms: C_35  and  C_36 
REMARK    9  A    between atoms: C_36  and  C_37 
REMARK   10  A    between atoms: C_37  and  N_38 
REMARK       I    between atoms: N_38  and  C_39 
REMARK   11  A    between atoms: C_39  and  C_40 
REMARK   12  A    between atoms: C_44  and  C_47 
REMARK   13  A    between atoms: C_47  and  N_50 
ROOT
HETATM    1  N   UNK N   1      -2.461   1.156  -1.430  0.00  0.00    -0.193 NA
HETATM    2  C   UNK N   1      -3.897   1.283  -1.618  0.00  0.00     0.109 C 
HETATM    3  C   UNK N   1      -4.554   0.106  -0.921  0.00  0.00     0.018 C 
HETATM    4  C   UNK N   1      -3.428  -0.867  -0.649  0.00  0.00     0.031 C 
HETATM    5  C   UNK N   1      -2.243  -0.281  -1.399  0.00  0.00     0.166 C 
ENDROOT
BRANCH   1   6
HETATM    6  S   UNK N   1      -2.044   1.983   0.100  0.00  0.00     0.246 S 
HETATM    7  O   UNK N   1      -1.030   2.727  -0.787  0.00  0.00    -0.206 OA
HETATM    8  O   UNK N   1      -0.839   1.403   0.863  0.00  0.00    -0.206 OA
BRANCH   6   9
HETATM    9  C   UNK N   1      -2.686   3.596   0.483  0.00  0.00     0.097 A 
HETATM   10  C   UNK N   1      -1.858   4.631   0.949  0.00  0.00     0.067 A 
HETATM   11  C   UNK N   1      -2.342   5.956   0.910  0.00  0.00     0.011 A 
HETATM   12 Cl   UNK N   1      -0.194   4.280   1.477  0.00  0.00    -0.082 Cl
HETATM   13  C   UNK N   1      -3.675   6.203   0.529  0.00  0.00     0.044 A 
HETATM   14  C   UNK N   1      -4.510   5.144   0.183  0.00  0.00     0.026 A 
HETATM   15 Cl   UNK N   1      -4.318   7.831   0.442  0.00  0.00    -0.084 Cl
HETATM   16  C   UNK N   1      -4.006   3.853   0.128  0.00  0.00     0.028 A 
BRANCH  11  17
HETATM   17  C   UNK N   1      -1.401   7.095   1.143  0.00  0.00     0.218 C 
BRANCH  17  18
HETATM   18  O   UNK N   1      -0.286   6.839   0.373  0.00  0.00    -0.344 OA
BRANCH  18  19
HETATM   19  C   UNK N   1       0.731   7.683   0.147  0.00  0.00     0.096 A 
HETATM   20  C   UNK N   1       2.029   7.167   0.018  0.00  0.00     0.077 A 
HETATM   21  N   UNK N   1       2.243   5.820   0.126  0.00  0.00    -0.357 N 
HETATM   22  C   UNK N   1       3.121   8.032  -0.181  0.00  0.00    -0.001 A 
HETATM   23  C   UNK N   1       3.490   5.287   0.055  0.00  0.00     0.006 A 
ATOM     24  HN  UNK N   1       1.445   5.199   0.264  1.00  0.00     0.166 HD
HETATM   25  C   UNK N   1       4.598   6.114  -0.128  0.00  0.00     0.032 A 
HETATM   26  C   UNK N   1       3.677   3.817   0.191  0.00  0.00     0.068 C 
HETATM   27  C   UNK N   1       4.418   7.495  -0.250  0.00  0.00    -0.048 A 
HETATM   28  C   UNK N   1       5.617   8.364  -0.429  0.00  0.00     0.049 C 
HETATM   29  C   UNK N   1       2.892   9.415  -0.285  0.00  0.00     0.014 A 
HETATM   30  C   UNK N   1       1.594   9.924  -0.177  0.00  0.00     0.004 A 
HETATM   31  C   UNK N   1       0.518   9.066   0.053  0.00  0.00     0.039 A 
ENDBRANCH  18  19
ENDBRANCH  17  18
ENDBRANCH  11  17
ENDBRANCH   6   9
ENDBRANCH   1   6
BRANCH   5  32
HETATM   32  C   UNK N   1      -0.845  -0.587  -0.915  0.00  0.00     0.236 C 
HETATM   33  O   UNK N   1       0.088   0.017  -1.420  0.00  0.00    -0.272 OA
HETATM   34  N   UNK N   1      -0.585  -1.434   0.103  0.00  0.00    -0.360 N 
HETATM   35  H   UNK N   1       0.239  -1.297   0.624  0.00  0.00     0.162 HD
BRANCH  34  36
HETATM   36  C   UNK N   1      -1.442  -2.524   0.466  0.00  0.00     0.124 C 
BRANCH  36  37
HETATM   37  C   UNK N   1      -1.391  -3.573  -0.661  0.00  0.00     0.039 C 
BRANCH  37  38
HETATM   38  C   UNK N   1      -0.050  -3.693  -1.449  0.00  0.00     0.124 C 
BRANCH  38  39
HETATM   39  N   UNK N   1       1.113  -3.086  -0.799  0.00  0.00    -0.357 N 
HETATM   40  C   UNK N   1       1.744  -3.626   0.277  0.00  0.00     0.251 C 
HETATM   41  O   UNK N   1       2.729  -3.077   0.742  0.00  0.00    -0.268 OA
HETATM   42  H   UNK N   1       1.457  -2.239  -1.163  0.00  0.00     0.162 HD
BRANCH  40  43
HETATM   43  C   UNK N   1       1.320  -4.932   0.761  0.00  0.00     0.032 A 
HETATM   44  C   UNK N   1       0.072  -5.044   1.381  0.00  0.00     0.018 A 
HETATM   45  C   UNK N   1      -0.619  -6.250   1.354  0.00  0.00     0.016 A 
HETATM   46  C   UNK N   1      -0.077  -7.348   0.678  0.00  0.00     0.007 A 
HETATM   47  C   UNK N   1       1.203  -7.252   0.115  0.00  0.00     0.016 A 
HETATM   48  C   UNK N   1       1.888  -6.043   0.139  0.00  0.00     0.018 A 
BRANCH  46  49
HETATM   49  C   UNK N   1      -0.893  -8.554   0.461  0.00  0.00     0.102 C 
HETATM   50  N   UNK N   1      -0.440  -9.515  -0.258  0.00  0.00    -0.385 N 
HETATM   51  H   UNK N   1      -0.905 -10.184  -0.810  0.00  0.00     0.157 HD
ATOM     52  HN  UNK N   1       0.577  -9.599  -0.258  1.00  0.00     0.157 HD
BRANCH  49  53
HETATM   53  N   UNK N   1      -2.250  -8.565   0.854  0.00  0.00    -0.385 N 
HETATM   54  H   UNK N   1      -2.730  -7.750   1.128  0.00  0.00     0.157 HD
HETATM   55  H   UNK N   1      -2.736  -9.422   0.854  0.00  0.00     0.157 HD
ENDBRANCH  49  53
ENDBRANCH  46  49
ENDBRANCH  40  43
ENDBRANCH  38  39
ENDBRANCH  37  38
ENDBRANCH  36  37
ENDBRANCH  34  36
ENDBRANCH   5  32
TORSDOF 13
