REMARK  5 active torsions:
REMARK  status: ('A' for Active; 'I' for Inactive)
REMARK    1  A    between atoms: C_5  and  N_8 
REMARK       I    between atoms: N_11  and  C_14 
REMARK    2  A    between atoms: C_14  and  C_16 
REMARK    3  A    between atoms: C_16  and  C_17 
REMARK    4  A    between atoms: C_16  and  N_23 
REMARK       I    between atoms: N_23  and  C_24 
REMARK    5  A    between atoms: C_24  and  C_26 
ROOT
HETATM    1  C   UNK N   1       4.772   3.379   0.651  0.00  0.00     0.210 C 
ENDROOT
BRANCH   1   2
HETATM    2  C   UNK N   1       4.504   4.746   0.048  0.00  0.00     0.247 C 
HETATM    3  N   UNK N   1       5.275   5.822   0.347  0.00  0.00    -0.347 N 
HETATM    4  C   UNK N   1       6.388   5.709   1.253  0.00  0.00     0.156 C 
HETATM    5  C   UNK N   1       5.018   7.102  -0.274  0.00  0.00     0.156 C 
HETATM    6  C   UNK N   1       7.666   6.051   0.501  0.00  0.00     0.292 C 
HETATM    7  N   UNK N   1       7.469   6.976  -0.641  0.00  0.00     0.096 N 
HETATM    8  C   UNK N   1       6.319   7.878  -0.463  0.00  0.00     0.292 C 
HETATM    9  O   UNK N   1       3.550   4.887  -0.712  0.00  0.00    -0.271 OA
BRANCH   7  10
HETATM   10  C   UNK N   1       8.677   7.799  -0.786  0.00  0.00     0.226 C 
HETATM   11  C   UNK N   1       9.882   6.909  -1.144  0.00  0.00     0.066 C 
HETATM   12  C   UNK N   1      11.190   7.687  -1.032  0.00  0.00     0.274 C 
HETATM   13  N   UNK N   1      11.310   8.246   0.310  0.00  0.00     0.084 N 
HETATM   14  C   UNK N   1      12.606   8.888   0.410  0.00  0.00     0.309 C 
HETATM   15  C   UNK N   1      10.300   9.285   0.452  0.00  0.00     0.274 C 
HETATM   16  C   UNK N   1       8.931   8.634   0.489  0.00  0.00     0.066 C 
ENDBRANCH   7  10
ENDBRANCH   1   2
BRANCH   1  17
HETATM   17  C   UNK N   1       6.062   2.764   0.166  0.00  0.00    -0.026 A 
HETATM   18  C   UNK N   1       7.119   2.594   1.071  0.00  0.00     0.010 A 
HETATM   19  C   UNK N   1       8.322   2.019   0.652  0.00  0.00     0.001 A 
HETATM   20  C   UNK N   1       8.468   1.591  -0.670  0.00  0.00     0.000 A 
HETATM   21  C   UNK N   1       7.414   1.749  -1.576  0.00  0.00     0.001 A 
HETATM   22  C   UNK N   1       6.215   2.340  -1.163  0.00  0.00     0.010 A 
ENDBRANCH   1  17
BRANCH   1  23
HETATM   23  N   UNK N   1       3.620   2.556   0.378  0.00  0.00    -0.340 N 
HETATM   24  C   UNK N   1       3.445   1.238   0.620  0.00  0.00     0.252 C 
HETATM   25  O   UNK N   1       4.360   0.543   1.039  0.00  0.00    -0.268 OA
HETATM   26  H   UNK N   1       2.857   3.016  -0.041  0.00  0.00     0.164 HD
BRANCH  24  27
HETATM   27  C   UNK N   1       2.104   0.678   0.383  0.00  0.00     0.034 A 
HETATM   28  C   UNK N   1       1.825  -0.700   0.552  0.00  0.00     0.018 A 
HETATM   29  C   UNK N   1       0.513  -1.184   0.364  0.00  0.00     0.015 A 
HETATM   30  C   UNK N   1      -0.480  -0.265   0.026  0.00  0.00    -0.008 A 
HETATM   31  C   UNK N   1      -1.825  -0.443  -0.192  0.00  0.00     0.030 A 
HETATM   32  C   UNK N   1      -0.209   1.056  -0.136  0.00  0.00     0.043 A 
HETATM   33  C   UNK N   1      -2.318   0.832  -0.484  0.00  0.00     0.089 A 
HETATM   34  N   UNK N   1      -1.316   1.744  -0.447  0.00  0.00    -0.365 N 
HETATM   35  H   UNK N   1      -1.387   2.712  -0.614  0.00  0.00     0.165 HD
HETATM   36  C   UNK N   1       1.065   1.566   0.028  0.00  0.00     0.047 A 
ENDBRANCH  24  27
ENDBRANCH   1  23
TORSDOF 5
