REMARK  8 active torsions:
REMARK  status: ('A' for Active; 'I' for Inactive)
REMARK    1  A    between atoms: C_2  and  C_4 
REMARK    2  A    between atoms: C_6  and  O_11 
REMARK    3  A    between atoms: C_9  and  O_10 
REMARK    4  A    between atoms: O_11  and  C_12 
REMARK    5  A    between atoms: C_15  and  N_19 
REMARK       I    between atoms: N_19  and  C_20 
REMARK    6  A    between atoms: C_20  and  C_22 
REMARK    7  A    between atoms: C_22  and  C_23 
REMARK    8  A    between atoms: C_23  and  O_25 
ROOT
HETATM    1  C   UNK N   1      -1.896   2.066   0.353  0.00  0.00     0.111 A 
HETATM    2  C   UNK N   1      -1.942   3.356  -0.213  0.00  0.00     0.048 A 
HETATM    3  C   UNK N   1      -0.779   4.130  -0.312  0.00  0.00     0.051 A 
HETATM    4  C   UNK N   1       0.439   3.626   0.145  0.00  0.00     0.037 A 
HETATM    5  C   UNK N   1       0.473   2.374   0.769  0.00  0.00     0.051 A 
HETATM    6  C   UNK N   1      -0.671   1.597   0.890  0.00  0.00     0.048 A 
HETATM    7 Br   UNK N   1      -0.490  -0.052   1.858  0.00  0.00    -0.048 Br
HETATM    8 Br   UNK N   1      -3.581   4.063  -0.898  0.00  0.00    -0.048 Br
ENDROOT
BRANCH   1   9
HETATM    9  O   UNK N   1      -3.032   1.317   0.377  0.00  0.00    -0.308 OA
BRANCH   9  10
HETATM   10  C   UNK N   1      -3.125   0.020  -0.031  0.00  0.00     0.076 A 
HETATM   11  C   UNK N   1      -4.301  -0.692   0.218  0.00  0.00     0.047 A 
HETATM   12  C   UNK N   1      -4.435  -2.034  -0.187  0.00  0.00    -0.019 A 
HETATM   13  C   UNK N   1      -3.362  -2.658  -0.855  0.00  0.00     0.072 A 
HETATM   14  C   UNK N   1      -2.195  -1.943  -1.127  0.00  0.00     0.040 A 
HETATM   15  C   UNK N   1      -2.081  -0.611  -0.732  0.00  0.00     0.040 A 
BRANCH  12  16
HETATM   16  C   UNK N   1      -5.716  -2.797   0.069  0.00  0.00     0.013 C 
HETATM   17  C   UNK N   1      -5.473  -3.974   0.996  0.00  0.00     0.015 C 
HETATM   18  C   UNK N   1      -6.839  -1.944   0.639  0.00  0.00     0.015 C 
ENDBRANCH  12  16
BRANCH  13  19
HETATM   19  O   UNK N   1      -3.451  -3.941  -1.250  0.00  0.00    -0.360 OA
HETATM   20  H   UNK N   1      -4.256  -4.333  -1.525  0.00  0.00     0.217 HD
ENDBRANCH  13  19
ENDBRANCH   9  10
ENDBRANCH   1   9
BRANCH   4  21
HETATM   21  N   UNK N   1       1.636   4.375  -0.029  0.00  0.00    -0.327 N 
HETATM   22  C   UNK N   1       2.849   3.787  -0.211  0.00  0.00     0.232 C 
HETATM   23  O   UNK N   1       2.924   2.579  -0.406  0.00  0.00    -0.273 OA
HETATM   24  H   UNK N   1       1.584   5.358  -0.018  0.00  0.00     0.169 HD
BRANCH  22  25
HETATM   25  C   UNK N   1       4.093   4.631  -0.228  0.00  0.00     0.212 C 
BRANCH  25  26
HETATM   26  C   UNK N   1       5.391   3.884  -0.022  0.00  0.00     0.148 C 
HETATM   27  O   UNK N   1       6.441   4.502  -0.036  0.00  0.00    -0.650 OA
BRANCH  26  28
HETATM   28  O   UNK N   1       5.414   2.554   0.204  0.00  0.00    -0.776 OA
HETATM   29  H   UNK N   1       4.622   2.079   0.360  0.00  0.00     0.167 HD
ENDBRANCH  26  28
ENDBRANCH  25  26
ENDBRANCH  22  25
ENDBRANCH   4  21
TORSDOF 8
