REMARK  5 active torsions:
REMARK  status: ('A' for Active; 'I' for Inactive)
REMARK    1  A    between atoms: C_2  and  C_3 
REMARK    2  A    between atoms: C_3  and  C_6 
REMARK    3  A    between atoms: C_6  and  C_8 
REMARK       I    between atoms: C_8  and  N_10 
REMARK    4  A    between atoms: C_14  and  C_15 
REMARK    5  A    between atoms: C_15  and  O_17 
ROOT
HETATM    1  C   UNK N   1       0.521   1.791  -0.164  0.00  0.00     0.291 C 
HETATM    2  O   UNK N   1      -0.400   2.520  -0.494  0.00  0.00    -0.264 OA
HETATM    3  N   UNK N   1       0.346   0.425  -0.181  0.00  0.00    -0.331 N 
HETATM    4  C   UNK N   1       1.390  -0.488   0.197  0.00  0.00     0.127 C 
HETATM    5  C   UNK N   1       0.909  -1.865  -0.207  0.00  0.00     0.022 C 
HETATM    6  C   UNK N   1      -0.563  -1.722  -0.562  0.00  0.00     0.038 C 
HETATM    7  C   UNK N   1      -0.856  -0.228  -0.672  0.00  0.00     0.185 C 
ENDROOT
BRANCH   1   8
HETATM    8  C   UNK N   1       1.832   2.435   0.212  0.00  0.00     0.224 C 
HETATM    9  O   UNK N   1       2.825   1.743   0.389  0.00  0.00    -0.286 OA
BRANCH   8  10
HETATM   10  C   UNK N   1       1.949   3.948   0.357  0.00  0.00     0.022 C 
HETATM   11  C   UNK N   1       1.065   4.392   1.514  0.00  0.00     0.023 C 
HETATM   12  C   UNK N   1       3.385   4.358   0.678  0.00  0.00     0.023 C 
BRANCH  10  13
HETATM   13  C   UNK N   1       1.515   4.637  -0.944  0.00  0.00     0.012 C 
HETATM   14  C   UNK N   1       1.538   6.159  -0.858  0.00  0.00     0.006 C 
ENDBRANCH  10  13
ENDBRANCH   8  10
ENDBRANCH   1   8
BRANCH   7  15
HETATM   15  C   UNK N   1      -2.137   0.121   0.070  0.00  0.00     0.163 C 
HETATM   16  O   UNK N   1      -2.774  -0.745   0.651  0.00  0.00    -0.648 OA
BRANCH  15  17
HETATM   17  O   UNK N   1      -2.637   1.369   0.015  0.00  0.00    -0.775 OA
HETATM   18  H   UNK N   1      -2.059   2.105  -0.024  0.00  0.00     0.167 HD
ENDBRANCH  15  17
ENDBRANCH   7  15
TORSDOF 5
