REMARK WARNING: 32 MAX_TORS EXCEEDED!!!
REMARK  55 active torsions:
REMARK  status: ('A' for Active; 'I' for Inactive)
REMARK    1  A    between atoms: O_9  and  C_91 
REMARK    2  A    between atoms: O_15  and  C_118 
REMARK    3  A    between atoms: O_16  and  C_124 
REMARK    4  A    between atoms: O_20  and  C_138 
REMARK    5  A    between atoms: N_26  and  C_72 
REMARK    6  A    between atoms: N_29  and  C_85 
REMARK    7  A    between atoms: N_30  and  C_90 
REMARK       I    between atoms: N_30  and  C_102 
REMARK    8  A    between atoms: N_33  and  C_94 
REMARK       I    between atoms: N_33  and  C_108 
REMARK    9  A    between atoms: C_105  and  N_34 
REMARK       I    between atoms: N_34  and  C_114 
REMARK   10  A    between atoms: N_35  and  C_101 
REMARK       I    between atoms: N_36  and  C_102 
REMARK       I    between atoms: N_37  and  C_107 
REMARK   11  A    between atoms: C_112  and  N_37 
REMARK       I    between atoms: N_38  and  C_102 
REMARK       I    between atoms: N_39  and  C_108 
REMARK   12  A    between atoms: C_113  and  N_42 
REMARK       I    between atoms: N_42  and  C_122 
REMARK   13  A    between atoms: C_120  and  N_43 
REMARK       I    between atoms: N_43  and  C_129 
REMARK   14  A    between atoms: N_44  and  C_127 
REMARK       I    between atoms: N_44  and  C_139 
REMARK   15  A    between atoms: N_45  and  C_130 
REMARK       I    between atoms: N_45  and  C_140 
REMARK   16  A    between atoms: C_128  and  N_46 
REMARK   17  A    between atoms: N_47  and  C_137 
REMARK       I    between atoms: N_47  and  C_141 
REMARK       I    between atoms: N_48  and  C_139 
REMARK       I    between atoms: N_51  and  C_140 
REMARK       I    between atoms: N_53  and  C_141 
REMARK   18  A    between atoms: C_61  and  C_63 
REMARK   19  A    between atoms: C_63  and  C_64 
REMARK   20  A    between atoms: C_64  and  C_66 
REMARK   21  A    between atoms: C_65  and  C_68 
REMARK   22  A    between atoms: C_66  and  C_72 
REMARK   23  A    between atoms: C_68  and  C_73 
REMARK   24  A    between atoms: C_69  and  C_71 
REMARK   25  A    between atoms: C_71  and  C_74 
REMARK   26  A    between atoms: C_74  and  C_76 
REMARK   27  A    between atoms: C_75  and  C_77 
REMARK   28  A    between atoms: C_76  and  C_85 
REMARK   29  A    between atoms: C_77  and  C_83 
REMARK   30  A    between atoms: C_79  and  C_84 
REMARK   31  A    between atoms: C_83  and  C_90 
REMARK   32  A    between atoms: C_84  and  C_89 
REMARK   33  A    between atoms: C_88  and  C_92 
REMARK   34  A    between atoms: C_89  and  C_94 
REMARK   35  A    between atoms: C_92  and  C_96 
REMARK   36  A    between atoms: C_95  and  C_99 
REMARK   37  A    between atoms: C_96  and  C_98 
REMARK   38  A    between atoms: C_98  and  C_101 
REMARK   39  A    between atoms: C_99  and  C_103 
REMARK   40  A    between atoms: C_100  and  C_107 
REMARK   41  A    between atoms: C_112  and  C_117 
REMARK   42  A    between atoms: C_112  and  C_124 
REMARK   43  A    between atoms: C_113  and  C_114 
REMARK   44  A    between atoms: C_113  and  C_119 
REMARK   45  A    between atoms: C_117  and  C_121 
REMARK   46  A    between atoms: C_119  and  C_125 
REMARK   47  A    between atoms: C_120  and  C_122 
REMARK   48  A    between atoms: C_120  and  C_123 
REMARK   49  A    between atoms: C_121  and  C_127 
REMARK   50  A    between atoms: C_123  and  C_126 
REMARK   51  A    between atoms: C_126  and  C_130 
REMARK   52  A    between atoms: C_128  and  C_129 
REMARK   53  A    between atoms: C_128  and  C_131 
REMARK   54  A    between atoms: C_131  and  C_134 
REMARK   55  A    between atoms: C_134  and  C_137 
ROOT
HETATM    1  N   UNK N   1      10.783   7.873  -0.715  0.00  0.00    -0.351 N 
HETATM    2  N   UNK N   1      12.122   9.890  -0.309  0.00  0.00    -0.360 N 
HETATM    3  N   UNK N   1      11.180   8.667   1.437  0.00  0.00    -0.426 NA
HETATM    4  C   UNK N   1      11.333   8.824   0.175  0.00  0.00     0.240 C 
HETATM    5  H   UNK N   1      10.334   7.083  -0.338  0.00  0.00     0.163 HD
HETATM    6  H   UNK N   1      13.041   9.786  -0.646  0.00  0.00     0.160 HD
HETATM    7  H   UNK N   1      11.729  10.793  -0.309  0.00  0.00     0.160 HD
HETATM    8  H   UNK N   1      11.017   8.709   2.407  0.00  0.00     0.270 HD
ENDROOT
BRANCH   1   9
HETATM    9  C   UNK N   1      10.848   8.005  -2.152  0.00  0.00     0.123 C 
BRANCH   9  10
HETATM   10  C   UNK N   1      11.835   7.019  -2.791  0.00  0.00     0.022 C 
BRANCH  10  11
HETATM   11  C   UNK N   1      11.945   5.632  -2.142  0.00  0.00     0.036 C 
BRANCH  11  12
HETATM   12  C   UNK N   1      12.629   5.705  -0.773  0.00  0.00     0.176 C 
BRANCH  12  13
HETATM   13  N   UNK N   1      13.804   6.537  -0.824  0.00  0.00    -0.346 N 
HETATM   14  C   UNK N   1      14.381   7.037   0.291  0.00  0.00     0.240 C 
HETATM   15  O   UNK N   1      13.877   6.850   1.392  0.00  0.00    -0.271 OA
HETATM   16  H   UNK N   1      14.199   6.748  -1.700  0.00  0.00     0.163 HD
BRANCH  14  17
HETATM   17  C   UNK N   1      15.654   7.810   0.162  0.00  0.00     0.167 C 
BRANCH  17  18
HETATM   18  N   UNK N   1      15.399   9.045  -0.557  0.00  0.00    -0.418 N 
HETATM   19  H   UNK N   1      16.060   9.634  -1.063  0.00  0.00     0.150 HD
HETATM   20  H   UNK N   1      14.430   9.365  -0.557  0.00  0.00     0.150 HD
ENDBRANCH  17  18
BRANCH  17  21
HETATM   21  C   UNK N   1      16.290   8.109   1.513  0.00  0.00     0.036 C 
BRANCH  21  22
HETATM   22  C   UNK N   1      16.890   6.824   2.074  0.00  0.00     0.023 C 
BRANCH  22  23
HETATM   23  C   UNK N   1      18.407   6.899   2.175  0.00  0.00     0.138 C 
BRANCH  23  24
HETATM   24  N   UNK N   1      18.967   7.480   0.978  0.00  0.00    -0.227 N 
HETATM   25  C   UNK N   1      19.684   6.718   0.023  0.00  0.00     0.665 C 
HETATM   26  N   UNK N   1      20.169   7.346  -1.143  0.00  0.00    -0.235 N 
HETATM   27  N   UNK N   1      19.852   5.457   0.184  0.00  0.00    -0.235 N 
HETATM   28  H   UNK N   1      20.718   7.272  -1.957  0.00  0.00     0.174 HD
HETATM   29  H   UNK N   1      19.795   8.257  -1.143  0.00  0.00     0.174 HD
HETATM   30  H   UNK N   1      19.078   4.861   0.307  0.00  0.00     0.174 HD
ATOM     31  HN  UNK N   1      20.795   5.068   0.184  1.00  0.00     0.174 HD
HETATM   32  H   UNK N   1      18.847   8.444   0.820  0.00  0.00     0.177 HD
ENDBRANCH  23  24
ENDBRANCH  22  23
ENDBRANCH  21  22
ENDBRANCH  17  21
ENDBRANCH  14  17
ENDBRANCH  12  13
BRANCH  12  33
HETATM   33  C   UNK N   1      12.997   4.370  -0.193  0.00  0.00     0.241 C 
HETATM   34  O   UNK N   1      13.102   3.394  -0.920  0.00  0.00    -0.271 OA
HETATM   35  N   UNK N   1      13.183   4.277   1.156  0.00  0.00    -0.346 N 
HETATM   36  H   UNK N   1      13.127   5.120   1.662  0.00  0.00     0.163 HD
BRANCH  35  37
HETATM   37  C   UNK N   1      13.455   3.080   1.930  0.00  0.00     0.180 C 
BRANCH  37  38
HETATM   38  C   UNK N   1      12.432   2.028   1.708  0.00  0.00     0.241 C 
HETATM   39  O   UNK N   1      11.591   1.798   2.564  0.00  0.00    -0.271 OA
HETATM   40  N   UNK N   1      12.436   1.366   0.534  0.00  0.00    -0.345 N 
HETATM   41  H   UNK N   1      13.183   1.543  -0.082  0.00  0.00     0.163 HD
BRANCH  40  42
HETATM   42  C   UNK N   1      11.442   0.427   0.110  0.00  0.00     0.186 C 
HETATM   43  C   UNK N   1      11.927  -0.162  -1.173  0.00  0.00     0.242 C 
HETATM   44  O   UNK N   1      11.128  -0.551  -2.008  0.00  0.00    -0.271 OA
HETATM   45  N   UNK N   1      13.250  -0.454  -1.279  0.00  0.00    -0.346 N 
HETATM   46  C   UNK N   1      13.729  -1.621  -1.973  0.00  0.00     0.180 C 
HETATM   47  H   UNK N   1      13.904   0.154  -0.867  0.00  0.00     0.163 HD
HETATM   48  C   UNK N   1      13.227  -2.750  -1.135  0.00  0.00     0.241 C 
HETATM   49  O   UNK N   1      13.438  -2.710   0.063  0.00  0.00    -0.271 OA
HETATM   50  N   UNK N   1      12.352  -3.636  -1.659  0.00  0.00    -0.346 N 
HETATM   51  C   UNK N   1      11.413  -4.467  -0.912  0.00  0.00     0.176 C 
HETATM   52  H   UNK N   1      12.348  -3.730  -2.639  0.00  0.00     0.163 HD
HETATM   53  C   UNK N   1      10.031  -3.964  -1.307  0.00  0.00     0.241 C 
HETATM   54  O   UNK N   1       9.927  -2.844  -1.779  0.00  0.00    -0.271 OA
HETATM   55  N   UNK N   1       8.901  -4.695  -1.197  0.00  0.00    -0.346 N 
HETATM   56  C   UNK N   1       8.751  -6.027  -0.674  0.00  0.00     0.176 C 
HETATM   57  H   UNK N   1       8.076  -4.262  -1.514  0.00  0.00     0.163 HD
HETATM   58  C   UNK N   1       8.850  -6.107   0.820  0.00  0.00     0.241 C 
HETATM   59  O   UNK N   1       9.928  -6.259   1.348  0.00  0.00    -0.271 OA
HETATM   60  N   UNK N   1       7.770  -6.015   1.620  0.00  0.00    -0.346 N 
HETATM   61  C   UNK N   1       6.373  -6.047   1.270  0.00  0.00     0.176 C 
HETATM   62  H   UNK N   1       7.963  -5.910   2.580  0.00  0.00     0.163 HD
HETATM   63  C   UNK N   1       5.882  -5.757  -0.146  0.00  0.00     0.243 C 
HETATM   64  O   UNK N   1       6.280  -4.722  -0.667  0.00  0.00    -0.271 OA
HETATM   65  N   UNK N   1       4.706  -6.282  -0.578  0.00  0.00    -0.337 N 
HETATM   66  C   UNK N   1       3.524  -5.440  -0.532  0.00  0.00     0.179 C 
HETATM   67  C   UNK N   1       4.386  -7.673  -0.360  0.00  0.00     0.127 C 
HETATM   68  C   UNK N   1       2.362  -6.421  -0.400  0.00  0.00     0.037 C 
HETATM   69  C   UNK N   1       3.559  -4.524   0.711  0.00  0.00     0.241 C 
HETATM   70  C   UNK N   1       2.970  -7.697   0.149  0.00  0.00     0.022 C 
HETATM   71  O   UNK N   1       3.106  -4.929   1.772  0.00  0.00    -0.271 OA
HETATM   72  N   UNK N   1       4.111  -3.284   0.677  0.00  0.00    -0.346 N 
HETATM   73  C   UNK N   1       4.646  -2.651  -0.513  0.00  0.00     0.180 C 
HETATM   74  H   UNK N   1       4.151  -2.778   1.521  0.00  0.00     0.163 HD
HETATM   75  C   UNK N   1       5.804  -1.797  -0.088  0.00  0.00     0.241 C 
HETATM   76  O   UNK N   1       6.932  -2.096  -0.445  0.00  0.00    -0.271 OA
HETATM   77  N   UNK N   1       5.629  -0.732   0.731  0.00  0.00    -0.346 N 
HETATM   78  C   UNK N   1       4.331  -0.185   1.057  0.00  0.00     0.176 C 
HETATM   79  H   UNK N   1       6.427  -0.310   1.125  0.00  0.00     0.163 HD
HETATM   80  C   UNK N   1       4.480   1.279   1.172  0.00  0.00     0.241 C 
HETATM   81  O   UNK N   1       4.490   1.816   2.273  0.00  0.00    -0.271 OA
HETATM   82  N   UNK N   1       4.649   2.005   0.048  0.00  0.00    -0.346 N 
HETATM   83  C   UNK N   1       4.949   3.404   0.116  0.00  0.00     0.176 C 
HETATM   84  H   UNK N   1       4.566   1.567  -0.830  0.00  0.00     0.163 HD
HETATM   85  C   UNK N   1       6.193   3.595   0.945  0.00  0.00     0.241 C 
HETATM   86  O   UNK N   1       6.152   4.365   1.889  0.00  0.00    -0.271 OA
HETATM   87  N   UNK N   1       7.294   2.812   0.778  0.00  0.00    -0.345 N 
HETATM   88  C   UNK N   1       7.465   1.878  -0.317  0.00  0.00     0.186 C 
HETATM   89  H   UNK N   1       8.018   2.885   1.441  0.00  0.00     0.163 HD
HETATM   90  C   UNK N   1       8.528   0.842   0.003  0.00  0.00     0.120 C 
HETATM   91  S   UNK N   1       8.559   0.250   1.723  0.00  0.00    -0.095 SA
HETATM   92  S   UNK N   1       9.644  -1.478   1.102  0.00  0.00    -0.095 SA
HETATM   93  C   UNK N   1      11.274  -0.664   1.178  0.00  0.00     0.120 C 
BRANCH  46  94
HETATM   94  C   UNK N   1      15.266  -1.629  -2.030  0.00  0.00     0.073 C 
BRANCH  94  95
HETATM   95  C   UNK N   1      16.019  -1.588  -0.717  0.00  0.00    -0.056 A 
HETATM   96  C   UNK N   1      15.458  -1.049   0.454  0.00  0.00     0.010 A 
HETATM   97  C   UNK N   1      16.187  -0.997   1.640  0.00  0.00     0.037 A 
HETATM   98  C   UNK N   1      17.494  -1.480   1.668  0.00  0.00     0.065 A 
HETATM   99  C   UNK N   1      18.063  -2.024   0.512  0.00  0.00     0.037 A 
HETATM  100  C   UNK N   1      17.328  -2.076  -0.678  0.00  0.00     0.010 A 
BRANCH  98 101
HETATM  101  O   UNK N   1      18.205  -1.416   2.804  0.00  0.00    -0.361 OA
HETATM  102  H   UNK N   1      18.491  -1.824   3.597  0.00  0.00     0.217 HD
ENDBRANCH  98 101
ENDBRANCH  94  95
ENDBRANCH  46  94
BRANCH  51 103
HETATM  103  C   UNK N   1      11.549  -4.386   0.627  0.00  0.00     0.036 C 
BRANCH 103 104
HETATM  104  C   UNK N   1      12.845  -4.946   1.232  0.00  0.00     0.023 C 
BRANCH 104 105
HETATM  105  C   UNK N   1      12.868  -6.446   1.390  0.00  0.00     0.138 C 
BRANCH 105 106
HETATM  106  N   UNK N   1      13.684  -7.024   0.355  0.00  0.00    -0.227 N 
HETATM  107  C   UNK N   1      14.076  -8.386   0.396  0.00  0.00     0.665 C 
HETATM  108  N   UNK N   1      14.802  -8.935  -0.681  0.00  0.00    -0.235 N 
HETATM  109  N   UNK N   1      13.776  -9.124   1.402  0.00  0.00    -0.235 N 
HETATM  110  H   UNK N   1      14.723  -9.565  -1.433  0.00  0.00     0.174 HD
HETATM  111  H   UNK N   1      15.709  -8.553  -0.681  0.00  0.00     0.174 HD
HETATM  112  H   UNK N   1      13.171  -9.208   2.174  0.00  0.00     0.174 HD
ATOM    113  HN  UNK N   1      14.402  -9.929   1.402  1.00  0.00     0.174 HD
HETATM  114  H   UNK N   1      13.976  -6.462  -0.398  0.00  0.00     0.177 HD
ENDBRANCH 105 106
ENDBRANCH 104 105
ENDBRANCH 103 104
ENDBRANCH  51 103
BRANCH  56 115
HETATM  115  C   UNK N   1       9.223  -7.155  -1.583  0.00  0.00     0.035 C 
BRANCH 115 116
HETATM  116  C   UNK N   1      10.713  -7.421  -1.510  0.00  0.00     0.004 C 
BRANCH 116 117
HETATM  117  C   UNK N   1      10.928  -8.812  -0.948  0.00  0.00     0.019 C 
BRANCH 117 118
HETATM  118  C   UNK N   1      10.747  -8.785   0.555  0.00  0.00     0.111 C 
BRANCH 118 119
HETATM  119  N   UNK N   1      10.333 -10.086   1.036  0.00  0.00    -0.430 N 
HETATM  120  H   UNK N   1       9.393 -10.293   1.375  0.00  0.00     0.149 HD
HETATM  121  H   UNK N   1      11.021 -10.840   1.036  0.00  0.00     0.149 HD
ENDBRANCH 118 119
ENDBRANCH 117 118
ENDBRANCH 116 117
ENDBRANCH 115 116
ENDBRANCH  56 115
BRANCH  61 122
HETATM  122  C   UNK N   1       5.671  -7.147   2.060  0.00  0.00     0.035 C 
BRANCH 122 123
HETATM  123  C   UNK N   1       6.419  -8.483   2.024  0.00  0.00     0.004 C 
BRANCH 123 124
HETATM  124  C   UNK N   1       7.037  -8.783   0.663  0.00  0.00     0.019 C 
BRANCH 124 125
HETATM  125  C   UNK N   1       6.982 -10.261   0.367  0.00  0.00     0.111 C 
BRANCH 125 126
HETATM  126  N   UNK N   1       5.617 -10.636   0.045  0.00  0.00    -0.430 N 
HETATM  127  H   UNK N   1       4.910  -9.937  -0.181  0.00  0.00     0.149 HD
HETATM  128  H   UNK N   1       5.360 -11.622   0.045  0.00  0.00     0.149 HD
ENDBRANCH 125 126
ENDBRANCH 124 125
ENDBRANCH 123 124
ENDBRANCH 122 123
ENDBRANCH  61 122
BRANCH  73 129
HETATM  129  C   UNK N   1       3.593  -1.839  -1.293  0.00  0.00     0.073 C 
BRANCH 129 130
HETATM  130  C   UNK N   1       2.218  -2.416  -1.161  0.00  0.00    -0.056 A 
HETATM  131  C   UNK N   1       1.599  -3.039  -2.246  0.00  0.00     0.010 A 
HETATM  132  C   UNK N   1       0.360  -3.664  -2.067  0.00  0.00     0.037 A 
HETATM  133  C   UNK N   1      -0.255  -3.663  -0.808  0.00  0.00     0.065 A 
HETATM  134  C   UNK N   1       0.350  -3.018   0.265  0.00  0.00     0.037 A 
HETATM  135  C   UNK N   1       1.577  -2.399   0.085  0.00  0.00     0.010 A 
BRANCH 133 136
HETATM  136  O   UNK N   1      -1.429  -4.284  -0.629  0.00  0.00    -0.361 OA
HETATM  137  H   UNK N   1      -2.216  -3.791  -0.504  0.00  0.00     0.217 HD
ENDBRANCH 133 136
ENDBRANCH 129 130
ENDBRANCH  73 129
BRANCH  78 138
HETATM  138  C   UNK N   1       3.683  -0.771   2.306  0.00  0.00     0.036 C 
BRANCH 138 139
HETATM  139  C   UNK N   1       2.181  -0.402   2.438  0.00  0.00     0.022 C 
BRANCH 139 140
HETATM  140  C   UNK N   1       1.633   0.762   1.581  0.00  0.00     0.123 C 
BRANCH 140 141
HETATM  141  N   UNK N   1       1.609   0.384   0.187  0.00  0.00    -0.351 N 
HETATM  142  C   UNK N   1       1.077   1.195  -0.846  0.00  0.00     0.240 C 
HETATM  143  N   UNK N   1       0.512   2.456  -0.556  0.00  0.00    -0.360 N 
HETATM  144  N   UNK N   1       1.067   0.756  -2.050  0.00  0.00    -0.426 NA
HETATM  145  H   UNK N   1       1.076   3.237  -0.354  0.00  0.00     0.160 HD
HETATM  146  H   UNK N   1      -0.467   2.556  -0.556  0.00  0.00     0.160 HD
HETATM  147  H   UNK N   1       0.772   0.595  -2.975  0.00  0.00     0.270 HD
HETATM  148  H   UNK N   1       1.985  -0.491  -0.061  0.00  0.00     0.163 HD
ENDBRANCH 140 141
ENDBRANCH 139 140
ENDBRANCH 138 139
ENDBRANCH  78 138
BRANCH  83 149
HETATM  149  C   UNK N   1       4.988   4.000  -1.279  0.00  0.00     0.035 C 
BRANCH 149 150
HETATM  150  C   UNK N   1       4.258   5.340  -1.301  0.00  0.00     0.004 C 
BRANCH 150 151
HETATM  151  C   UNK N   1       2.784   5.220  -0.903  0.00  0.00     0.019 C 
BRANCH 151 152
HETATM  152  C   UNK N   1       2.603   5.189   0.612  0.00  0.00     0.111 C 
BRANCH 152 153
HETATM  153  N   UNK N   1       3.111   6.413   1.208  0.00  0.00    -0.430 N 
HETATM  154  H   UNK N   1       4.033   6.534   1.626  0.00  0.00     0.149 HD
HETATM  155  H   UNK N   1       2.490   7.222   1.208  0.00  0.00     0.149 HD
ENDBRANCH 152 153
ENDBRANCH 151 152
ENDBRANCH 150 151
ENDBRANCH 149 150
ENDBRANCH  83 149
BRANCH  88 156
HETATM  156  C   UNK N   1       7.896   2.549  -1.614  0.00  0.00     0.242 C 
HETATM  157  O   UNK N   1       7.842   1.898  -2.646  0.00  0.00    -0.271 OA
HETATM  158  N   UNK N   1       8.376   3.824  -1.674  0.00  0.00    -0.345 N 
HETATM  159  H   UNK N   1       8.596   4.192  -2.560  0.00  0.00     0.163 HD
BRANCH 158 160
HETATM  160  C   UNK N   1       8.582   4.669  -0.518  0.00  0.00     0.182 C 
BRANCH 160 161
HETATM  161  C   UNK N   1       8.609   6.115  -0.904  0.00  0.00     0.038 C 
BRANCH 161 162
HETATM  162  C   UNK N   1       7.216   6.671  -0.730  0.00  0.00     0.023 C 
BRANCH 162 163
HETATM  163  C   UNK N   1       6.973   7.015   0.731  0.00  0.00     0.138 C 
BRANCH 163 164
HETATM  164  N   UNK N   1       7.054   8.441   0.912  0.00  0.00    -0.227 N 
HETATM  165  C   UNK N   1       6.091   9.320   0.350  0.00  0.00     0.665 C 
HETATM  166  N   UNK N   1       6.264  10.714   0.472  0.00  0.00    -0.235 N 
HETATM  167  N   UNK N   1       5.078   8.859  -0.290  0.00  0.00    -0.235 N 
HETATM  168  H   UNK N   1       7.168  11.096   0.557  0.00  0.00     0.174 HD
HETATM  169  H   UNK N   1       5.479  11.308   0.472  0.00  0.00     0.174 HD
HETATM  170  H   UNK N   1       4.384   9.355  -0.781  0.00  0.00     0.174 HD
ATOM    171  HN  UNK N   1       4.980   7.844  -0.290  1.00  0.00     0.174 HD
HETATM  172  H   UNK N   1       7.796   8.817   1.438  0.00  0.00     0.177 HD
ENDBRANCH 163 164
ENDBRANCH 162 163
ENDBRANCH 161 162
ENDBRANCH 160 161
BRANCH 160 173
HETATM  173  C   UNK N   1       9.740   4.240   0.331  0.00  0.00     0.163 C 
HETATM  174  O   UNK N   1      10.401   3.270   0.010  0.00  0.00    -0.648 OA
BRANCH 173 175
HETATM  175  O   UNK N   1       9.986   4.857   1.503  0.00  0.00    -0.775 OA
HETATM  176  H   UNK N   1      10.443   4.924   2.318  0.00  0.00     0.167 HD
ENDBRANCH 173 175
ENDBRANCH 160 173
ENDBRANCH 158 160
ENDBRANCH  88 156
ENDBRANCH  40  42
ENDBRANCH  37  38
BRANCH  37 177
HETATM  177  C   UNK N   1      14.895   2.551   1.889  0.00  0.00     0.073 C 
BRANCH 177 178
HETATM  178  C   UNK N   1      15.717   2.776   0.657  0.00  0.00    -0.056 A 
HETATM  179  C   UNK N   1      16.057   1.693  -0.154  0.00  0.00     0.010 A 
HETATM  180  C   UNK N   1      16.955   1.844  -1.211  0.00  0.00     0.037 A 
HETATM  181  C   UNK N   1      17.531   3.089  -1.455  0.00  0.00     0.065 A 
HETATM  182  C   UNK N   1      17.185   4.185  -0.658  0.00  0.00     0.037 A 
HETATM  183  C   UNK N   1      16.287   4.026   0.405  0.00  0.00     0.010 A 
BRANCH 181 184
HETATM  184  O   UNK N   1      18.424   3.232  -2.448  0.00  0.00    -0.361 OA
HETATM  185  H   UNK N   1      18.822   2.742  -3.140  0.00  0.00     0.217 HD
ENDBRANCH 181 184
ENDBRANCH 177 178
ENDBRANCH  37 177
ENDBRANCH  35  37
ENDBRANCH  12  33
ENDBRANCH  11  12
ENDBRANCH  10  11
ENDBRANCH   9  10
ENDBRANCH   1   9
TORSDOF 54
