REMARK  6 active torsions:
REMARK  status: ('A' for Active; 'I' for Inactive)
REMARK    1  A    between atoms: S_1  and  N_8 
REMARK    2  A    between atoms: O_4  and  C_15 
REMARK    3  A    between atoms: O_4  and  C_19 
REMARK    4  A    between atoms: N_8  and  C_13 
REMARK       I    between atoms: N_9  and  C_20 
REMARK    5  A    between atoms: C_12  and  C_20 
REMARK    6  A    between atoms: C_14  and  C_18 
ROOT
HETATM    1  O   UNK N   1       5.647  -1.218  -0.025  0.00  0.00    -0.308 OA
HETATM    2  C   UNK N   1       4.331   0.534  -0.153  0.00  0.00     0.019 A 
HETATM    3  C   UNK N   1       4.394  -0.825  -0.071  0.00  0.00     0.089 A 
HETATM    4  C   UNK N   1       5.624   1.008  -0.160  0.00  0.00     0.079 A 
HETATM    5  C   UNK N   1       1.988  -0.959  -0.062  0.00  0.00     0.078 A 
HETATM    6  C   UNK N   1       6.432  -0.150  -0.058  0.00  0.00     0.103 A 
HETATM    7  C   UNK N   1       1.923   0.458  -0.141  0.00  0.00     0.097 A 
HETATM    8  C   UNK N   1       3.115   1.207  -0.200  0.00  0.00     0.054 A 
HETATM    9  C   UNK N   1       3.246  -1.610  -0.022  0.00  0.00     0.071 A 
ENDROOT
BRANCH   6  10
HETATM   10  C   UNK N   1       7.908  -0.256   0.074  0.00  0.00    -0.001 A 
HETATM   11  C   UNK N   1       8.693   0.857   0.399  0.00  0.00     0.017 A 
HETATM   12  C   UNK N   1      10.071   0.744   0.572  0.00  0.00     0.043 A 
HETATM   13  C   UNK N   1      10.689  -0.495   0.423  0.00  0.00     0.116 A 
HETATM   14  F   UNK N   1      12.029  -0.602   0.585  0.00  0.00    -0.206 F 
HETATM   15  C   UNK N   1       9.922  -1.623   0.110  0.00  0.00     0.043 A 
HETATM   16  C   UNK N   1       8.534  -1.506  -0.052  0.00  0.00     0.017 A 
ENDBRANCH   6  10
BRANCH   4  17
HETATM   17  C   UNK N   1       5.990   2.452  -0.264  0.00  0.00     0.255 C 
HETATM   18  O   UNK N   1       7.147   2.795  -0.424  0.00  0.00    -0.268 OA
HETATM   19  N   UNK N   1       5.014   3.393  -0.219  0.00  0.00    -0.361 N 
HETATM   20  C   UNK N   1       5.307   4.799  -0.329  0.00  0.00     0.149 C 
HETATM   21  H   UNK N   1       4.079   3.106  -0.109  0.00  0.00     0.162 HD
ENDBRANCH   4  17
BRANCH   5  22
HETATM   22  N   UNK N   1       0.776  -1.702   0.009  0.00  0.00    -0.282 N 
HETATM   23  H   UNK N   1      -0.033  -1.305  -0.388  0.00  0.00     0.178 HD
BRANCH  22  24
HETATM   24  S   UNK N   1       0.635  -3.290   0.763  0.00  0.00     0.227 S 
HETATM   25  O   UNK N   1       1.821  -4.155   0.316  0.00  0.00    -0.206 OA
HETATM   26  O   UNK N   1      -0.616  -3.964   0.178  0.00  0.00    -0.206 OA
HETATM   27  C   UNK N   1       0.713  -3.455  -1.047  0.00  0.00     0.186 C 
ENDBRANCH  22  24
ENDBRANCH   5  22
BRANCH   7  28
HETATM   28  O   UNK N   1       0.702   1.065  -0.118  0.00  0.00    -0.344 OA
BRANCH  28  29
HETATM   29  C   UNK N   1       0.416   2.401   0.151  0.00  0.00     0.120 C 
HETATM   30  C   UNK N   1       0.118   3.179  -1.112  0.00  0.00     0.040 C 
HETATM   31  C   UNK N   1       1.405   3.125   1.058  0.00  0.00     0.040 C 
ENDBRANCH  28  29
ENDBRANCH   7  28
TORSDOF 6
