REMARK  30 active torsions:
REMARK  status: ('A' for Active; 'I' for Inactive)
REMARK    1  A    between atoms: O_2  and  C_50 
REMARK    2  A    between atoms: O_3  and  C_51 
REMARK    3  A    between atoms: O_4  and  C_58 
REMARK    4  A    between atoms: O_4  and  C_60 
REMARK    5  A    between atoms: O_5  and  C_59 
REMARK    6  A    between atoms: O_5  and  C_61 
REMARK    7  A    between atoms: O_6  and  C_62 
REMARK    8  A    between atoms: O_6  and  C_64 
REMARK    9  A    between atoms: O_7  and  C_63 
REMARK   10  A    between atoms: O_7  and  C_65 
REMARK   11  A    between atoms: O_8  and  C_66 
REMARK   12  A    between atoms: O_8  and  C_68 
REMARK   13  A    between atoms: O_9  and  C_67 
REMARK   14  A    between atoms: O_9  and  C_69 
REMARK   15  A    between atoms: O_10  and  C_70 
REMARK   16  A    between atoms: O_11  and  C_71 
REMARK   17  A    between atoms: C_26  and  C_32 
REMARK   18  A    between atoms: C_27  and  C_33 
REMARK   19  A    between atoms: C_30  and  C_38 
REMARK   20  A    between atoms: C_31  and  C_39 
REMARK   21  A    between atoms: C_38  and  C_42 
REMARK   22  A    between atoms: C_39  and  C_43 
REMARK   23  A    between atoms: C_42  and  C_50 
REMARK   24  A    between atoms: C_43  and  C_51 
REMARK   25  A    between atoms: C_60  and  C_62 
REMARK   26  A    between atoms: C_61  and  C_63 
REMARK   27  A    between atoms: C_64  and  C_66 
REMARK   28  A    between atoms: C_65  and  C_67 
REMARK   29  A    between atoms: C_68  and  C_70 
REMARK   30  A    between atoms: C_69  and  C_71 
ROOT
HETATM    1  O   UNK N   1       6.427  -6.851  -3.007  0.00  0.00    -0.648 OA
HETATM    2  O   UNK N   1       4.538  -7.721  -2.226  0.00  0.00    -0.648 OA
HETATM    3  C   UNK N   1       4.309  -5.642  -3.293  0.00  0.00     0.129 C 
HETATM    4  C   UNK N   1       5.097  -6.807  -2.806  0.00  0.00     0.168 C 
ENDROOT
TORSDOF 30
