REMARK  7 active torsions:
REMARK  status: ('A' for Active; 'I' for Inactive)
REMARK    1  A    between atoms: O_8  and  C_2 
REMARK    2  A    between atoms: C_2  and  C_13 
REMARK    3  A    between atoms: C_12  and  O_8 
REMARK    4  A    between atoms: C_10  and  O_26 
REMARK    5  A    between atoms: C_19  and  C_12 
REMARK    6  A    between atoms: O_29  and  C_13 
REMARK    7  A    between atoms: C_31  and  O_29 
ROOT
HETATM    1  C   UNK N   1       0.925   0.206  -0.503  0.00  0.00     0.004 C 
HETATM    2  C   UNK N   1       2.049   1.033   0.217  0.00  0.00     0.165 C 
HETATM    3  C   UNK N   1      -2.909  -1.676   0.369  0.00  0.00     0.004 C 
HETATM    4  C   UNK N   1      -0.252  -2.014   0.283  0.00  0.00    -0.002 C 
HETATM    5  C   UNK N   1       1.041  -1.175   0.207  0.00  0.00     0.002 C 
HETATM    6  C   UNK N   1      -1.472  -1.209   0.865  0.00  0.00     0.035 C 
HETATM    7  C   UNK N   1      -2.915  -3.032  -0.360  0.00  0.00    -0.064 C 
HETATM    8  C   UNK N   1      -0.502   0.800  -0.354  0.00  0.00     0.045 C 
HETATM    9  C   UNK N   1      -1.203   0.318   0.899  0.00  0.00     0.124 C 
HETATM   10  C   UNK N   1      -3.648  -0.690  -0.527  0.00  0.00    -0.009 C 
HETATM   11  C   UNK N   1      -4.037  -3.461  -0.965  0.00  0.00     0.058 C 
HETATM   12  C   UNK N   1       2.027   0.545   1.662  0.00  0.00     0.050 C 
HETATM   13  C   UNK N   1       1.454  -0.855   1.647  0.00  0.00     0.009 C 
HETATM   14  C   UNK N   1      -0.596  -2.755  -1.000  0.00  0.00     0.010 C 
HETATM   15  C   UNK N   1      -4.818  -1.069  -1.091  0.00  0.00     0.052 C 
HETATM   16  C   UNK N   1      -5.160  -2.515  -1.100  0.00  0.00     0.171 C 
HETATM   17  C   UNK N   1      -1.657  -3.782  -0.604  0.00  0.00     0.036 C 
HETATM   18  O   UNK N   1      -6.274  -2.902  -1.410  0.00  0.00    -0.289 OA
HETATM   19  C   UNK N   1       1.165   0.111  -2.006  0.00  0.00     0.019 C 
HETATM   20  C   UNK N   1      -3.794  -1.803   1.616  0.00  0.00     0.025 C 
ENDROOT
BRANCH   2  21
HETATM   21  O   UNK N   1       3.291   0.818  -0.388  0.00  0.00    -0.297 OA
BRANCH  21  22
HETATM   22  C   UNK N   1       4.273  -0.097  -0.135  0.00  0.00     0.293 C 
HETATM   23  O   UNK N   1       4.067  -1.072   0.568  0.00  0.00    -0.262 OA
BRANCH  22  24
HETATM   24  C   UNK N   1       5.634   0.091  -0.730  0.00  0.00     0.277 C 
HETATM   25 Cl   UNK N   1       6.820   0.270   0.587  0.00  0.00    -0.097 Cl
HETATM   26 Cl   UNK N   1       5.722   1.535  -1.777  0.00  0.00    -0.097 Cl
ENDBRANCH  22  24
ENDBRANCH  21  22
ENDBRANCH   2  21
BRANCH   2  27
HETATM   27  C   UNK N   1       1.849   2.538   0.285  0.00  0.00     0.295 C 
HETATM   28  O   UNK N   1       0.839   3.005   0.786  0.00  0.00    -0.262 OA
BRANCH  27  29
HETATM   29  O   UNK N   1       2.868   3.358  -0.091  0.00  0.00    -0.319 OA
BRANCH  29  30
HETATM   30  C   UNK N   1       2.897   4.694   0.234  0.00  0.00     0.174 C 
HETATM   31  C   UNK N   1       4.103   4.963   1.116  0.00  0.00     0.034 C 
ENDBRANCH  29  30
ENDBRANCH  27  29
ENDBRANCH   2  27
BRANCH   9  32
HETATM   32  O   UNK N   1      -2.331   1.083   1.202  0.00  0.00    -0.395 OA
HETATM   33  H   UNK N   1      -2.263   2.027   1.413  0.00  0.00     0.210 HD
ENDBRANCH   9  32
TORSDOF 7
