REMARK  7 active torsions:
REMARK  status: ('A' for Active; 'I' for Inactive)
REMARK    1  A    between atoms: O_3  and  C_17 
REMARK    2  A    between atoms: O_4  and  C_18 
REMARK    3  A    between atoms: C_20  and  O_5 
REMARK    4  A    between atoms: O_6  and  C_21 
REMARK    5  A    between atoms: O_8  and  C_22 
REMARK    6  A    between atoms: O_9  and  C_23 
REMARK       I    between atoms: N_13  and  C_24 
REMARK    7  A    between atoms: C_18  and  C_23 
ROOT
HETATM    1  O   UNK N   1       3.868   2.241   1.456  0.00  0.00    -0.322 OA
HETATM    2  O   UNK N   1       3.841   1.802  -0.836  0.00  0.00    -0.319 OA
HETATM    3  N   UNK N   1       5.071  -2.154   1.000  0.00  0.00    -0.211 N 
HETATM    4  N   UNK N   1       3.970  -2.342  -1.075  0.00  0.00    -0.200 N 
ATOM      5  HN  UNK N   1       3.586  -2.904  -1.835  1.00  0.00     0.180 HD
HETATM    6  N   UNK N   1       4.603  -4.332  -0.033  0.00  0.00    -0.235 N 
HETATM    7  C   UNK N   1       5.041  -0.697   1.079  0.00  0.00     0.119 A 
HETATM    8  C   UNK N   1       4.722  -0.167   0.202  0.00  0.00     0.101 A 
HETATM    9  C   UNK N   1       5.080   1.604   1.178  0.00  0.00     0.177 C 
HETATM   10  C   UNK N   1       6.012   0.031  -0.316  0.00  0.00     0.182 A 
HETATM   11  C   UNK N   1       5.862   2.526   0.258  0.00  0.00     0.134 C 
HETATM   12  C   UNK N   1       5.418   1.732  -0.884  0.00  0.00     0.198 C 
HETATM   13  C   UNK N   1       3.394  -0.104   1.310  0.00  0.00     0.243 C 
HETATM   14  C   UNK N   1       3.152   1.528   0.559  0.00  0.00     0.311 C 
HETATM   15  C   UNK N   1       3.881  -0.905  -1.138  0.00  0.00     0.244 C 
HETATM   16  C   UNK N   1       4.529  -2.924  -0.074  0.00  0.00     0.670 C 
HETATM   17  H   UNK N   1       5.496  -2.643   1.741  0.00  0.00     0.178 HD
HETATM   18  H   UNK N   1       3.777  -4.868  -0.005  0.00  0.00     0.174 HD
HETATM   19  H   UNK N   1       5.480  -4.779  -0.033  0.00  0.00     0.174 HD
ENDROOT
BRANCH  11  20
HETATM   20  O   UNK N   1       5.366   3.835   0.201  0.00  0.00    -0.382 OA
HETATM   21  H   UNK N   1       5.979   4.586   0.161  0.00  0.00     0.210 HD
ENDBRANCH  11  20
BRANCH  11  22
HETATM   22  C   UNK N   1       7.386   2.567   0.441  0.00  0.00     0.207 C 
BRANCH  22  23
HETATM   23  O   UNK N   1       7.810   1.821   1.545  0.00  0.00    -0.398 OA
HETATM   24  H   UNK N   1       7.510   1.307   2.311  0.00  0.00     0.209 HD
ENDBRANCH  22  23
ENDBRANCH  11  22
BRANCH  10  25
HETATM   25  O   UNK N   1       7.403  -0.155  -0.233  0.00  0.00    -0.390 OA
HETATM   26  H   UNK N   1       7.771  -1.051  -0.175  0.00  0.00     0.210 HD
ENDBRANCH  10  25
BRANCH  14  27
HETATM   27  O   UNK N   1       1.817   1.933   0.570  0.00  0.00    -0.341 OA
ATOM     28  HO  UNK N   1       1.313   1.432  -0.060  1.00  0.00     0.215 HD
ENDBRANCH  14  27
BRANCH  15  29
HETATM   29  O   UNK N   1       2.556  -0.506  -1.346  0.00  0.00    -0.376 OA
HETATM   30  H   UNK N   1       2.336   0.427  -1.490  0.00  0.00     0.212 HD
ENDBRANCH  15  29
BRANCH  13  31
HETATM   31  O   UNK N   1       2.346  -1.027   1.129  0.00  0.00    -0.385 OA
HETATM   32  H   UNK N   1       1.434  -0.719   1.005  0.00  0.00     0.210 HD
ENDBRANCH  13  31
TORSDOF 7
