REMARK  7 active torsions:
REMARK  status: ('A' for Active; 'I' for Inactive)
REMARK    1  A    between atoms: O_4  and  C_15 
REMARK    2  A    between atoms: O_4  and  C_16 
REMARK    3  A    between atoms: C_13  and  C_14 
REMARK    4  A    between atoms: C_13  and  C_15 
REMARK    5  A    between atoms: C_14  and  C_22 
REMARK    6  A    between atoms: C_19  and  C_26 
REMARK    7  A    between atoms: C_29  and  C_30 
ROOT
HETATM    1  C   UNK N   1       4.550  -0.570   0.801  0.00  0.00     0.080 A 
HETATM    2  C   UNK N   1       5.694   0.133   0.352  0.00  0.00    -0.027 A 
HETATM    3  C   UNK N   1       3.429   0.145   1.246  0.00  0.00    -0.027 A 
HETATM    4  C   UNK N   1       4.522   2.229   0.680  0.00  0.00     0.011 A 
HETATM    5  C   UNK N   1       5.673   1.530   0.303  0.00  0.00     0.025 A 
HETATM    6  C   UNK N   1       3.410   1.532   1.158  0.00  0.00     0.025 A 
HETATM    7  C   UNK N   1       6.923  -0.582  -0.097  0.00  0.00     0.051 C 
HETATM    8  C   UNK N   1       2.215  -0.563   1.741  0.00  0.00     0.051 C 
ENDROOT
BRANCH   1   9
HETATM    9  O   UNK N   1       4.490  -1.921   0.780  0.00  0.00    -0.350 OA
BRANCH   9  10
HETATM   10  C   UNK N   1       4.722  -2.637  -0.377  0.00  0.00     0.176 C 
BRANCH  10  11
HETATM   11  C   UNK N   1       3.646  -2.333  -1.432  0.00  0.00     0.033 C 
BRANCH  11  12
HETATM   12  C   UNK N   1       2.221  -2.496  -0.898  0.00  0.00     0.069 C 
BRANCH  12  13
HETATM   13  C   UNK N   1       1.951  -3.906  -0.500  0.00  0.00     0.078 A 
HETATM   14  O   UNK N   1       2.600  -4.550   0.442  0.00  0.00    -0.242 OA
HETATM   15  N   UNK N   1       2.162  -5.768   0.553  0.00  0.00    -0.266 N 
HETATM   16  C   UNK N   1       1.183  -5.918  -0.356  0.00  0.00     0.031 A 
ATOM     17  HN  UNK N   1       2.498  -6.476   1.205  1.00  0.00     0.194 HD
HETATM   18  C   UNK N   1       1.008  -4.743  -1.058  0.00  0.00     0.061 A 
HETATM   19  C   UNK N   1       0.425  -7.179  -0.562  0.00  0.00     0.070 C 
ENDBRANCH  12  13
ENDBRANCH  11  12
ENDBRANCH  10  11
ENDBRANCH   9  10
ENDBRANCH   1   9
BRANCH   4  20
HETATM   20  C   UNK N   1       4.406   3.664   0.423  0.00  0.00     0.138 A 
HETATM   21  N   UNK N   1       3.224   4.305   0.373  0.00  0.00    -0.315 N 
HETATM   22  C   UNK N   1       3.567   5.529  -0.060  0.00  0.00     0.256 A 
ATOM     23  HN  UNK N   1       2.297   3.949   0.606  1.00  0.00     0.169 HD
HETATM   24  O   UNK N   1       4.865   5.612  -0.238  0.00  0.00    -0.213 OA
HETATM   25  N   UNK N   1       5.417   4.469   0.039  0.00  0.00    -0.242 N 
ATOM     26  HN  UNK N   1       6.407   4.230  -0.020  1.00  0.00     0.196 HD
BRANCH  22  27
HETATM   27  C   UNK N   1       2.588   6.604  -0.388  0.00  0.00     0.458 C 
HETATM   28  F   UNK N   1       1.297   6.150  -0.182  0.00  0.00    -0.163 F 
HETATM   29  F   UNK N   1       2.732   6.950  -1.719  0.00  0.00    -0.163 F 
HETATM   30  F   UNK N   1       2.818   7.711   0.404  0.00  0.00    -0.163 F 
ENDBRANCH  22  27
ENDBRANCH   4  20
TORSDOF 7
