REMARK  8 active torsions:
REMARK  status: ('A' for Active; 'I' for Inactive)
REMARK    1  A    between atoms: C_2  and  C_3 
REMARK    2  A    between atoms: C_3  and  C_4 
REMARK    3  A    between atoms: C_4  and  P_5 
REMARK    4  A    between atoms: P_5  and  C_7 
REMARK    5  A    between atoms: P_5  and  O_11 
REMARK    6  A    between atoms: C_7  and  C_8 
REMARK    7  A    between atoms: C_8  and  C_9 
REMARK    8  A    between atoms: C_9  and  N_10 
ROOT
HETATM    1  P   UNK N   1       0.892   0.014  -0.347  0.00  0.00     0.098 P 
HETATM    2  O   UNK N   1       2.236  -0.477  -0.945  0.00  0.00    -0.674 OA
ENDROOT
BRANCH   1   3
HETATM    3  C   UNK N   1       0.276  -1.314   0.818  0.00  0.00     0.094 C 
BRANCH   3   4
HETATM    4  C   UNK N   1       1.322  -2.394   1.056  0.00  0.00     0.009 C 
BRANCH   4   5
HETATM    5  C   UNK N   1       1.365  -3.358  -0.116  0.00  0.00    -0.004 C 
HETATM    6  C   UNK N   1       2.416  -4.420   0.134  0.00  0.00     0.005 C 
ENDBRANCH   4   5
ENDBRANCH   3   4
ENDBRANCH   1   3
BRANCH   1   7
HETATM    7  C   UNK N   1       1.179   1.778   0.167  0.00  0.00     0.095 C 
BRANCH   7   8
HETATM    8  C   UNK N   1      -0.146   2.459   0.441  0.00  0.00     0.028 C 
BRANCH   8   9
HETATM    9  C   UNK N   1      -0.004   3.945   0.177  0.00  0.00     0.111 C 
BRANCH   9  10
HETATM   10  N   UNK N   1      -1.282   4.601   0.380  0.00  0.00    -0.430 N 
HETATM   11  H   UNK N   1      -1.332   5.610   0.523  0.00  0.00     0.149 HD
HETATM   12  H   UNK N   1      -2.139   4.048   0.380  0.00  0.00     0.149 HD
ENDBRANCH   9  10
ENDBRANCH   8   9
ENDBRANCH   7   8
ENDBRANCH   1   7
BRANCH   1  13
HETATM   13  O   UNK N   1      -0.108   0.014  -1.765  0.00  0.00    -0.349 OA
HETATM   14  H   UNK N   1      -0.387   0.499  -2.558  0.00  0.00     0.217 HD
ENDBRANCH   1  13
TORSDOF 8
