REMARK  11 active torsions:
REMARK  status: ('A' for Active; 'I' for Inactive)
REMARK    1  A    between atoms: O_1  and  C_20 
REMARK    2  A    between atoms: O_4  and  C_24 
REMARK    3  A    between atoms: C_10  and  N_6 
REMARK       I    between atoms: N_6  and  C_17 
REMARK    4  A    between atoms: C_18  and  N_8 
REMARK    5  A    between atoms: C_9  and  C_10 
REMARK    6  A    between atoms: C_9  and  C_11 
REMARK    7  A    between atoms: C_10  and  C_20 
REMARK    8  A    between atoms: C_14  and  C_15 
REMARK    9  A    between atoms: C_14  and  C_17 
REMARK   10  A    between atoms: C_15  and  C_18 
REMARK   11  A    between atoms: C_18  and  C_24 
ROOT
HETATM    1  C   UNK N   1       5.227  -0.622   0.500  0.00  0.00     0.186 C 
ENDROOT
BRANCH   1   2
HETATM    2  N   UNK N   1       5.541   0.766   0.185  0.00  0.00    -0.346 N 
HETATM    3  C   UNK N   1       6.596   1.274  -0.509  0.00  0.00     0.218 C 
HETATM    4  O   UNK N   1       7.498   0.561  -0.919  0.00  0.00    -0.274 OA
HETATM    5  H   UNK N   1       4.898   1.431   0.523  0.00  0.00     0.163 HD
BRANCH   3   6
HETATM    6  C   UNK N   1       6.651   2.742  -0.775  0.00  0.00     0.105 C 
BRANCH   6   7
HETATM    7  C   UNK N   1       6.668   3.498   0.547  0.00  0.00     0.044 C 
BRANCH   7   8
HETATM    8  C   UNK N   1       7.822   4.492   0.638  0.00  0.00     0.173 C 
BRANCH   8   9
HETATM    9  N   UNK N   1       7.609   5.596  -0.286  0.00  0.00    -0.418 N 
HETATM   10  H   UNK N   1       8.205   6.112  -0.933  0.00  0.00     0.150 HD
HETATM   11  H   UNK N   1       6.645   5.929  -0.286  0.00  0.00     0.150 HD
ENDBRANCH   8   9
BRANCH   8  12
HETATM   12  C   UNK N   1       9.153   3.830   0.401  0.00  0.00     0.163 C 
HETATM   13  O   UNK N   1       9.497   2.890   1.099  0.00  0.00    -0.648 OA
BRANCH  12  14
HETATM   14  O   UNK N   1       9.970   4.266  -0.579  0.00  0.00    -0.775 OA
HETATM   15  H   UNK N   1      10.516   3.925  -1.260  0.00  0.00     0.167 HD
ENDBRANCH  12  14
ENDBRANCH   8  12
ENDBRANCH   7   8
ENDBRANCH   6   7
ENDBRANCH   3   6
ENDBRANCH   1   2
BRANCH   1  16
HETATM   16  C   UNK N   1       3.775  -0.846   0.075  0.00  0.00     0.077 C 
BRANCH  16  17
HETATM   17  C   UNK N   1       3.178  -2.214   0.230  0.00  0.00    -0.028 A 
HETATM   18  C   UNK N   1       1.843  -2.494   0.107  0.00  0.00    -0.002 A 
HETATM   19  C   UNK N   1       1.703  -3.840   0.278  0.00  0.00     0.042 A 
HETATM   20  C   UNK N   1       0.755  -1.662  -0.140  0.00  0.00     0.014 A 
HETATM   21  N   UNK N   1       2.890  -4.427   0.507  0.00  0.00    -0.365 N 
HETATM   22  C   UNK N   1       0.457  -4.461   0.211  0.00  0.00     0.030 A 
HETATM   23  C   UNK N   1       3.813  -3.429   0.482  0.00  0.00     0.096 A 
HETATM   24  H   UNK N   1       3.058  -5.384   0.662  0.00  0.00     0.165 HD
HETATM   25  C   UNK N   1      -0.667  -3.650  -0.036  0.00  0.00     0.002 A 
HETATM   26  C   UNK N   1      -0.519  -2.254  -0.209  0.00  0.00     0.001 A 
ENDBRANCH  16  17
ENDBRANCH   1  16
BRANCH   1  27
HETATM   27  C   UNK N   1       6.181  -1.646  -0.062  0.00  0.00     0.163 C 
HETATM   28  O   UNK N   1       6.262  -1.828  -1.267  0.00  0.00    -0.648 OA
BRANCH  27  29
HETATM   29  O   UNK N   1       6.924  -2.391   0.778  0.00  0.00    -0.775 OA
HETATM   30  H   UNK N   1       6.733  -3.098   1.363  0.00  0.00     0.167 HD
ENDBRANCH  27  29
ENDBRANCH   1  27
TORSDOF 11
