REMARK  7 active torsions:
REMARK  status: ('A' for Active; 'I' for Inactive)
REMARK    1  A    between atoms: O_2  and  C_29 
REMARK       I    between atoms: N_3  and  C_23 
REMARK    2  A    between atoms: N_3  and  C_24 
REMARK    3  A    between atoms: C_7  and  C_12 
REMARK    4  A    between atoms: C_14  and  C_15 
REMARK    5  A    between atoms: C_17  and  C_18 
REMARK    6  A    between atoms: C_19  and  C_20 
REMARK    7  A    between atoms: C_21  and  C_23 
ROOT
HETATM    1  C   UNK N   1       4.854  -2.546   0.892  0.00  0.00     0.001 C 
HETATM    2  C   UNK N   1       5.814  -1.716   0.428  0.00  0.00     0.007 C 
ENDROOT
BRANCH   2   3
HETATM    3  C   UNK N   1       5.638  -0.271   0.108  0.00  0.00    -0.057 C 
HETATM    4  C   UNK N   1       6.727   0.522   0.032  0.00  0.00     0.081 C 
HETATM    5  C   UNK N   1       4.265   0.302  -0.088  0.00  0.00     0.048 C 
BRANCH   4   6
HETATM    6  C   UNK N   1       6.673   1.983  -0.245  0.00  0.00     0.246 C 
HETATM    7  O   UNK N   1       5.635   2.492  -0.648  0.00  0.00    -0.268 OA
HETATM    8  N   UNK N   1       7.766   2.759  -0.016  0.00  0.00    -0.324 N 
HETATM    9  H   UNK N   1       8.623   2.310   0.170  0.00  0.00     0.169 HD
BRANCH   8  10
HETATM   10  C   UNK N   1       7.742   4.187  -0.030  0.00  0.00     0.035 A 
HETATM   11  C   UNK N   1       6.532   4.896   0.097  0.00  0.00     0.032 A 
HETATM   12  C   UNK N   1       6.522   6.289   0.134  0.00  0.00     0.039 A 
HETATM   13  C   UNK N   1       7.721   6.994   0.050  0.00  0.00     0.065 A 
HETATM   14  C   UNK N   1       8.932   6.302  -0.067  0.00  0.00     0.039 A 
HETATM   15  C   UNK N   1       8.943   4.901  -0.098  0.00  0.00     0.032 A 
BRANCH  13  16
HETATM   16  O   UNK N   1       7.711   8.336   0.084  0.00  0.00    -0.361 OA
HETATM   17  H   UNK N   1       8.519   8.810   0.108  0.00  0.00     0.217 HD
ENDBRANCH  13  16
ENDBRANCH   8  10
ENDBRANCH   4   6
ENDBRANCH   2   3
BRANCH   1  18
HETATM   18  C   UNK N   1       3.497  -2.092   1.277  0.00  0.00     0.007 C 
HETATM   19  C   UNK N   1       2.446  -2.040   0.439  0.00  0.00    -0.062 C 
HETATM   20  C   UNK N   1       1.204  -1.365   0.909  0.00  0.00     0.048 C 
BRANCH  19  21
HETATM   21  C   UNK N   1       2.533  -2.457  -0.979  0.00  0.00     0.007 C 
HETATM   22  C   UNK N   1       2.909  -3.675  -1.402  0.00  0.00     0.009 C 
BRANCH  22  23
HETATM   23  C   UNK N   1       2.971  -4.917  -0.570  0.00  0.00    -0.048 C 
HETATM   24  C   UNK N   1       1.679  -5.489   0.053  0.00  0.00    -0.020 C 
HETATM   25  C   UNK N   1       1.905  -6.758   0.878  0.00  0.00     0.014 C 
HETATM   26  C   UNK N   1       0.707  -5.815  -1.070  0.00  0.00     0.020 C 
HETATM   27  C   UNK N   1       0.991  -4.519   0.987  0.00  0.00     0.020 C 
HETATM   28  C   UNK N   1       2.937  -7.660   0.236  0.00  0.00     0.005 C 
HETATM   29  C   UNK N   1       4.254  -6.905   0.253  0.00  0.00     0.034 C 
HETATM   30  C   UNK N   1       4.146  -5.600  -0.488  0.00  0.00    -0.077 C 
HETATM   31  C   UNK N   1       5.387  -5.090  -1.154  0.00  0.00     0.044 C 
ENDBRANCH  22  23
ENDBRANCH  19  21
ENDBRANCH   1  18
TORSDOF 7
