REMARK  4 active torsions:
REMARK  status: ('A' for Active; 'I' for Inactive)
REMARK    1  A    between atoms: N_3  and  C_7 
REMARK    2  A    between atoms: N_4  and  C_13 
REMARK    3  A    between atoms: N_5  and  C_17 
REMARK    4  A    between atoms: C_7  and  C_13 
ROOT
HETATM    1  O   UNK N   1       1.864   0.927   0.330  0.00  0.00    -0.267 OA
HETATM    2  O   UNK N   1       6.374   1.163  -0.055  0.00  0.00    -0.267 OA
HETATM    3  N   UNK N   1       4.108   1.135   0.150  0.00  0.00    -0.278 N 
HETATM    4  C   UNK N   1       4.251  -1.662   0.053  0.00  0.00     0.006 A 
HETATM    5  C   UNK N   1       3.008  -1.023   0.177  0.00  0.00     0.046 A 
HETATM    6  C   UNK N   1       5.428  -0.897  -0.028  0.00  0.00     0.044 A 
HETATM    7  C   UNK N   1       2.951   0.375   0.222  0.00  0.00     0.261 A 
HETATM    8  C   UNK N   1       4.317  -3.074   0.011  0.00  0.00    -0.022 A 
HETATM    9  C   UNK N   1       5.348   0.508   0.021  0.00  0.00     0.261 A 
HETATM   10  C   UNK N   1       1.839  -1.796   0.258  0.00  0.00     0.047 A 
HETATM   11  C   UNK N   1       6.664  -1.554  -0.155  0.00  0.00     0.018 A 
HETATM   12  C   UNK N   1       3.144  -3.829   0.095  0.00  0.00     0.041 A 
HETATM   13  C   UNK N   1       1.907  -3.190   0.218  0.00  0.00     0.027 A 
HETATM   14  C   UNK N   1       5.553  -3.709  -0.113  0.00  0.00     0.012 A 
HETATM   15  C   UNK N   1       6.724  -2.951  -0.198  0.00  0.00     0.002 A 
ENDROOT
BRANCH   3  16
HETATM   16  C   UNK N   1       3.921   2.600   0.209  0.00  0.00     0.166 C 
BRANCH  16  17
HETATM   17  C   UNK N   1       5.160   3.489   0.313  0.00  0.00     0.291 C 
BRANCH  17  18
HETATM   18  N   UNK N   1       5.144   4.527  -0.714  0.00  0.00     0.081 N 
HETATM   19  C   UNK N   1       3.968   5.371  -0.544  0.00  0.00     0.309 C 
HETATM   20  C   UNK N   1       6.294   5.377  -0.469  0.00  0.00     0.309 C 
ENDBRANCH  17  18
ENDBRANCH  16  17
ENDBRANCH   3  16
BRANCH  13  21
HETATM   21  N   UNK N   1       0.726  -3.951   0.306  0.00  0.00    -0.399 N 
HETATM   22  H   UNK N   1      -0.148  -3.503   0.367  0.00  0.00     0.156 HD
HETATM   23  H   UNK N   1       0.774  -4.935   0.306  0.00  0.00     0.156 HD
ENDBRANCH  13  21
TORSDOF 4
