REMARK  5 active torsions:
REMARK  status: ('A' for Active; 'I' for Inactive)
REMARK    1  A    between atoms: S_2  and  N_9 
REMARK    2  A    between atoms: S_3  and  N_10 
REMARK    3  A    between atoms: N_9  and  N_10 
REMARK    4  A    between atoms: N_9  and  C_12 
REMARK       I    between atoms: N_10  and  C_15 
REMARK       I    between atoms: N_11  and  C_15 
REMARK    5  A    between atoms: C_12  and  C_14 
ROOT
HETATM    1  O   UNK N   1       3.830  -2.402   0.697  0.00  0.00    -0.245 OA
HETATM    2  N   UNK N   1       3.001  -0.325   0.416  0.00  0.00    -0.135 N 
HETATM    3  N   UNK N   1       1.814  -2.271  -0.238  0.00  0.00    -0.345 N 
HETATM    4  C   UNK N   1       2.917  -1.693   0.302  0.00  0.00     0.347 C 
HETATM    5  C   UNK N   1       1.684  -3.698  -0.381  0.00  0.00     0.151 C 
HETATM    6  H   UNK N   1       1.076  -1.694  -0.542  0.00  0.00     0.163 HD
ENDROOT
BRANCH   2   7
HETATM    7  S   UNK N   1       1.564   0.635  -0.073  0.00  0.00     0.247 S 
HETATM    8  O   UNK N   1       0.406   0.007   0.721  0.00  0.00    -0.204 OA
HETATM    9  O   UNK N   1       1.228   0.125  -1.483  0.00  0.00    -0.204 OA
HETATM   10  C   UNK N   1       1.389   2.443  -0.036  0.00  0.00     0.188 C 
ENDBRANCH   2   7
BRANCH   2  11
HETATM   11  N   UNK N   1       4.145   0.260   1.017  0.00  0.00    -0.099 NA
BRANCH  11  12
HETATM   12  S   UNK N   1       5.676  -0.095   0.135  0.00  0.00     0.226 S 
HETATM   13  O   UNK N   1       6.214  -1.393   0.757  0.00  0.00    -0.210 OA
HETATM   14  O   UNK N   1       5.276  -0.552  -1.276  0.00  0.00    -0.210 OA
HETATM   15  C   UNK N   1       6.996   1.156   0.115  0.00  0.00     0.181 C 
ENDBRANCH  11  12
BRANCH  11  16
HETATM   16  C   UNK N   1       4.028   1.705   1.265  0.00  0.00     0.148 C 
BRANCH  16  17
HETATM   17  C   UNK N   1       4.292   2.554   0.019  0.00  0.00     0.132 C 
HETATM   18 Cl   UNK N   1       4.697   4.216   0.492  0.00  0.00    -0.129 Cl
ENDBRANCH  16  17
ENDBRANCH  11  16
ENDBRANCH   2  11
TORSDOF 5
