REMARK  5 active torsions:
REMARK  status: ('A' for Active; 'I' for Inactive)
REMARK    1  A    between atoms: C_3  and  C_2 
REMARK    2  A    between atoms: O_8  and  C_2 
REMARK    3  A    between atoms: C_4  and  O_9 
REMARK    4  A    between atoms: C_5  and  O_10 
REMARK    5  A    between atoms: C_6  and  O_11 
ROOT
HETATM    1  C   UNK N   1       2.075   1.058   0.375  0.00  0.00     0.148 C 
HETATM    2  C   UNK N   1       0.776  -0.957   0.135  0.00  0.00     0.131 C 
HETATM    3  C   UNK N   1       1.012   1.902  -0.327  0.00  0.00     0.166 C 
HETATM    4  C   UNK N   1      -0.365  -0.179  -0.554  0.00  0.00     0.173 C 
HETATM    5  C   UNK N   1      -0.365   1.279  -0.072  0.00  0.00     0.179 C 
HETATM    6  N   UNK N   1       2.065  -0.311  -0.147  0.00  0.00    -0.410 N 
HETATM    7  H   UNK N   1       2.843  -0.753  -0.636  0.00  0.00     0.153 HD
ENDROOT
BRANCH   2   8
HETATM    8  C   UNK N   1       0.812  -2.388  -0.391  0.00  0.00     0.191 C 
BRANCH   8   9
HETATM    9  O   UNK N   1       1.841  -3.109   0.216  0.00  0.00    -0.399 OA
HETATM   10  H   UNK N   1       1.765  -3.979   0.638  0.00  0.00     0.209 HD
ENDBRANCH   8   9
ENDBRANCH   2   8
BRANCH   4  11
HETATM   11  O   UNK N   1      -1.598  -0.771  -0.265  0.00  0.00    -0.391 OA
HETATM   12  H   UNK N   1      -2.382  -0.236  -0.064  0.00  0.00     0.210 HD
ENDBRANCH   4  11
BRANCH   5  13
HETATM   13  O   UNK N   1      -1.349   2.006  -0.746  0.00  0.00    -0.390 OA
HETATM   14  H   UNK N   1      -1.254   2.850  -1.215  0.00  0.00     0.210 HD
ENDBRANCH   5  13
BRANCH   3  15
HETATM   15  O   UNK N   1       1.050   3.205   0.170  0.00  0.00    -0.391 OA
HETATM   16  H   UNK N   1       1.848   3.636   0.516  0.00  0.00     0.210 HD
ENDBRANCH   3  15
TORSDOF 5
