REMARK  4 active torsions:
REMARK  status: ('A' for Active; 'I' for Inactive)
REMARK    1  A    between atoms: C_11  and  O_2 
REMARK    2  A    between atoms: O_5  and  C_29 
REMARK    3  A    between atoms: C_11  and  C_19 
REMARK    4  A    between atoms: C_18  and  C_23 
ROOT
HETATM    1  O   UNK N   1       5.326   6.055  -0.562  0.00  0.00    -0.314 OA
HETATM    2  O   UNK N   1       1.791   3.898  -0.171  0.00  0.00    -0.267 OA
HETATM    3  O   UNK N   1       7.544   6.092  -0.579  0.00  0.00    -0.261 OA
HETATM    4  N   UNK N   1       2.864   1.936   0.064  0.00  0.00    -0.307 N 
HETATM    5  N   UNK N   1       4.640  -1.161   0.249  0.00  0.00    -0.353 N 
ATOM      6  HN  UNK N   1       5.643  -0.976   0.223  1.00  0.00     0.166 HD
HETATM    7  C   UNK N   1       4.018   1.248   0.115  0.00  0.00     0.065 A 
HETATM    8  C   UNK N   1       5.294   3.257  -0.175  0.00  0.00     0.002 A 
HETATM    9  C   UNK N   1       6.643   3.932  -0.294  0.00  0.00     0.173 A 
HETATM   10  C   UNK N   1       1.702   1.032   0.190  0.00  0.00     0.174 A 
HETATM   11  C   UNK N   1       2.402  -0.314   0.272  0.00  0.00    -0.004 A 
HETATM   12  C   UNK N   1       3.756  -0.138   0.235  0.00  0.00     0.068 A 
HETATM   13  C   UNK N   1       4.081   3.986  -0.243  0.00  0.00     0.044 A 
HETATM   14  C   UNK N   1       5.248   1.869   0.010  0.00  0.00     0.043 A 
HETATM   15  C   UNK N   1       2.851   3.297  -0.113  0.00  0.00     0.257 A 
HETATM   16  C   UNK N   1       1.864  -1.603   0.336  0.00  0.00    -0.036 A 
HETATM   17  C   UNK N   1       4.078   5.472  -0.454  0.00  0.00     0.224 A 
HETATM   18  C   UNK N   1       6.524   5.424  -0.488  0.00  0.00     0.298 A 
HETATM   19  C   UNK N   1       2.773  -2.696   0.342  0.00  0.00     0.000 A 
HETATM   20  C   UNK N   1       4.177  -2.439   0.298  0.00  0.00     0.043 A 
HETATM   21  C   UNK N   1       2.328  -4.026   0.371  0.00  0.00     0.050 A 
HETATM   22  C   UNK N   1       5.083  -3.500   0.284  0.00  0.00     0.033 A 
HETATM   23  C   UNK N   1       3.249  -5.079   0.346  0.00  0.00     0.066 A 
HETATM   24  C   UNK N   1       4.620  -4.816   0.304  0.00  0.00     0.039 A 
ENDROOT
BRANCH   9  25
HETATM   25  O   UNK N   1       7.364   3.707   0.883  0.00  0.00    -0.375 OA
HETATM   26  H   UNK N   1       7.479   3.195   1.699  0.00  0.00     0.211 HD
ENDBRANCH   9  25
BRANCH   9  27
HETATM   27  C   UNK N   1       7.434   3.379  -1.495  0.00  0.00     0.049 C 
HETATM   28  C   UNK N   1       7.902   1.939  -1.322  0.00  0.00     0.009 C 
ENDBRANCH   9  27
BRANCH  16  29
HETATM   29  C   UNK N   1       0.376  -1.791   0.381  0.00  0.00     0.036 C 
HETATM   30  C   UNK N   1      -0.129  -2.475  -0.877  0.00  0.00     0.010 C 
ENDBRANCH  16  29
BRANCH  23  31
HETATM   31  O   UNK N   1       2.814  -6.349   0.354  0.00  0.00    -0.361 OA
HETATM   32  H   UNK N   1       1.894  -6.530   0.359  0.00  0.00     0.217 HD
ENDBRANCH  23  31
TORSDOF 4
