REMARK  6 active torsions:
REMARK  status: ('A' for Active; 'I' for Inactive)
REMARK    1  A    between atoms: C_4  and  C_7 
REMARK    2  A    between atoms: C_10  and  C_13 
REMARK    3  A    between atoms: C_13  and  C_14 
REMARK    4  A    between atoms: C_14  and  N_15 
REMARK    5  A    between atoms: C_18  and  C_21 
REMARK    6  A    between atoms: C_25  and  C_27 
ROOT
HETATM    1  N   UNK N   1       0.381  -3.303  -0.862  0.00  0.00     0.092 N 
HETATM    2  C   UNK N   1      -0.964  -2.803  -1.174  0.00  0.00     0.277 C 
HETATM    3  C   UNK N   1      -1.118  -1.291  -0.904  0.00  0.00     0.069 C 
HETATM    4  C   UNK N   1       0.176  -0.507  -1.028  0.00  0.00    -0.048 C 
HETATM    5  C   UNK N   1       1.314  -1.118  -1.407  0.00  0.00     0.011 C 
HETATM    6  C   UNK N   1       1.335  -2.585  -1.715  0.00  0.00     0.300 C 
ENDROOT
BRANCH   1   7
HETATM    7  C   UNK N   1       0.665  -3.094   0.567  0.00  0.00     0.277 C 
BRANCH   7   8
HETATM    8  C   UNK N   1       1.961  -3.764   1.018  0.00  0.00     0.068 C 
BRANCH   8   9
HETATM    9  C   UNK N   1       1.890  -5.235   0.810  0.00  0.00    -0.057 A 
HETATM   10  C   UNK N   1       0.800  -5.957   1.302  0.00  0.00     0.008 A 
HETATM   11  C   UNK N   1       0.701  -7.324   1.063  0.00  0.00     0.013 A 
HETATM   12  C   UNK N   1       1.705  -7.992   0.340  0.00  0.00    -0.026 A 
HETATM   13  C   UNK N   1       2.809  -7.266  -0.129  0.00  0.00     0.013 A 
HETATM   14  C   UNK N   1       2.899  -5.889   0.097  0.00  0.00     0.008 A 
BRANCH  12  15
HETATM   15  C   UNK N   1       1.570  -9.440   0.069  0.00  0.00    -0.026 A 
HETATM   16  C   UNK N   1       0.412 -10.130   0.452  0.00  0.00     0.012 A 
HETATM   17  C   UNK N   1       0.273 -11.492   0.179  0.00  0.00     0.001 A 
HETATM   18  C   UNK N   1       1.297 -12.179  -0.478  0.00  0.00     0.000 A 
HETATM   19  C   UNK N   1       2.457 -11.503  -0.862  0.00  0.00     0.001 A 
HETATM   20  C   UNK N   1       2.595 -10.138  -0.596  0.00  0.00     0.012 A 
ENDBRANCH  12  15
ENDBRANCH   8   9
ENDBRANCH   7   8
ENDBRANCH   1   7
BRANCH   4  21
HETATM   21  C   UNK N   1       0.230   0.896  -0.562  0.00  0.00    -0.029 A 
HETATM   22  C   UNK N   1      -0.931   1.558  -0.137  0.00  0.00     0.012 A 
HETATM   23  C   UNK N   1      -0.850   2.850   0.393  0.00  0.00     0.002 A 
HETATM   24  C   UNK N   1       0.393   3.476   0.528  0.00  0.00     0.016 A 
HETATM   25  C   UNK N   1       1.560   2.820   0.114  0.00  0.00     0.048 A 
HETATM   26  C   UNK N   1       1.469   1.539  -0.434  0.00  0.00     0.028 A 
BRANCH  25  27
HETATM   27  C   UNK N   1       2.901   3.468   0.295  0.00  0.00     0.417 C 
HETATM   28  F   UNK N   1       3.117   3.702   1.641  0.00  0.00    -0.166 F 
HETATM   29  F   UNK N   1       3.916   2.653  -0.180  0.00  0.00    -0.166 F 
HETATM   30  F   UNK N   1       2.936   4.668  -0.389  0.00  0.00    -0.166 F 
ENDBRANCH  25  27
ENDBRANCH   4  21
TORSDOF 6
