REMARK  8 active torsions:
REMARK  status: ('A' for Active; 'I' for Inactive)
REMARK    1  A    between atoms: C_2  and  C_4 
REMARK    2  A    between atoms: C_4  and  O_5 
REMARK    3  A    between atoms: O_5  and  C_6 
REMARK    4  A    between atoms: C_9  and  C_10 
REMARK    5  A    between atoms: C_10  and  N_11 
REMARK       I    between atoms: N_11  and  C_12 
REMARK       I    between atoms: C_12  and  N_14 
REMARK    6  A    between atoms: N_14  and  C_15 
REMARK    7  A    between atoms: N_14  and  C_23 
REMARK    8  A    between atoms: C_15  and  C_16 
ROOT
HETATM    1  N   UNK N   1      -0.245   2.246   0.642  0.00  0.00    -0.339 N 
HETATM    2  C   UNK N   1       0.997   2.709   0.388  0.00  0.00     0.319 C 
HETATM    3  O   UNK N   1       1.178   3.916   0.282  0.00  0.00    -0.247 OA
HETATM    4  N   UNK N   1       2.047   1.833   0.212  0.00  0.00    -0.325 N 
HETATM    5  H   UNK N   1      -0.334   1.296   0.881  0.00  0.00     0.164 HD
ENDROOT
BRANCH   1   6
HETATM    6  C   UNK N   1      -1.450   3.033   0.589  0.00  0.00     0.162 C 
BRANCH   6   7
HETATM    7  C   UNK N   1      -2.559   2.119   0.153  0.00  0.00    -0.040 A 
HETATM    8  C   UNK N   1      -3.857   2.305   0.633  0.00  0.00     0.011 A 
HETATM    9  C   UNK N   1      -4.861   1.384   0.307  0.00  0.00     0.037 A 
HETATM   10  C   UNK N   1      -4.570   0.262  -0.480  0.00  0.00     0.068 A 
HETATM   11  C   UNK N   1      -3.272   0.087  -0.977  0.00  0.00     0.037 A 
HETATM   12  C   UNK N   1      -2.279   1.012  -0.666  0.00  0.00     0.011 A 
BRANCH  10  13
HETATM   13  O   UNK N   1      -5.552  -0.633  -0.738  0.00  0.00    -0.351 OA
BRANCH  13  14
HETATM   14  C   UNK N   1      -5.349  -1.828  -1.400  0.00  0.00     0.179 C 
BRANCH  14  15
HETATM   15  C   UNK N   1      -5.969  -2.992  -0.629  0.00  0.00     0.002 C 
HETATM   16  C   UNK N   1      -5.202  -3.289   0.645  0.00  0.00     0.011 C 
HETATM   17  C   UNK N   1      -7.426  -2.711  -0.305  0.00  0.00     0.011 C 
ENDBRANCH  14  15
ENDBRANCH  13  14
ENDBRANCH  10  13
ENDBRANCH   6   7
ENDBRANCH   1   6
BRANCH   4  18
HETATM   18  C   UNK N   1       3.357   2.424  -0.077  0.00  0.00     0.166 C 
BRANCH  18  19
HETATM   19  C   UNK N   1       4.495   1.463  -0.249  0.00  0.00    -0.040 A 
HETATM   20  C   UNK N   1       5.552   1.500   0.665  0.00  0.00     0.012 A 
HETATM   21  C   UNK N   1       6.618   0.606   0.541  0.00  0.00     0.043 A 
HETATM   22  C   UNK N   1       6.630  -0.328  -0.498  0.00  0.00     0.116 A 
HETATM   23  F   UNK N   1       7.659  -1.201  -0.608  0.00  0.00    -0.206 F 
HETATM   24  C   UNK N   1       5.581  -0.360  -1.423  0.00  0.00     0.043 A 
HETATM   25  C   UNK N   1       4.517   0.539  -1.304  0.00  0.00     0.012 A 
ENDBRANCH  18  19
ENDBRANCH   4  18
BRANCH   4  26
HETATM   26  C   UNK N   1       1.877   0.361   0.174  0.00  0.00     0.092 C 
HETATM   27  C   UNK N   1       2.700  -0.411   1.206  0.00  0.00     0.055 C 
HETATM   28  C   UNK N   1       2.684  -1.924   0.881  0.00  0.00     0.274 C 
HETATM   29  N   UNK N   1       1.761  -2.256  -0.214  0.00  0.00     0.084 N 
HETATM   30  C   UNK N   1       1.657  -3.700  -0.302  0.00  0.00     0.309 C 
HETATM   31  C   UNK N   1       0.436  -1.741   0.111  0.00  0.00     0.274 C 
HETATM   32  C   UNK N   1       0.449  -0.212   0.130  0.00  0.00     0.055 C 
ENDBRANCH   4  26
TORSDOF 8
