REMARK  22 active torsions:
REMARK  status: ('A' for Active; 'I' for Inactive)
REMARK    1  A    between atoms: C_3  and  C_2 
REMARK    2  A    between atoms: C_4  and  C_3 
REMARK    3  A    between atoms: C_5  and  C_4 
REMARK    4  A    between atoms: C_6  and  C_5 
REMARK    5  A    between atoms: C_7  and  C_6 
REMARK    6  A    between atoms: C_8  and  C_7 
REMARK    7  A    between atoms: C_9  and  C_8 
REMARK    8  A    between atoms: C_11  and  C_10 
REMARK    9  A    between atoms: C_12  and  C_11 
REMARK   10  A    between atoms: C_13  and  C_12 
REMARK   11  A    between atoms: C_14  and  C_13 
REMARK   12  A    between atoms: C_15  and  C_14 
REMARK   13  A    between atoms: C_16  and  C_15 
REMARK   14  A    between atoms: C_17  and  C_16 
REMARK   15  A    between atoms: C_23  and  C_17 
REMARK   16  A    between atoms: C_21  and  C_20 
REMARK   17  A    between atoms: O_37  and  C_20 
REMARK   18  A    between atoms: O_37  and  C_23 
REMARK   19  A    between atoms: C_24  and  O_34 
REMARK   20  A    between atoms: C_25  and  O_35 
REMARK   21  A    between atoms: C_26  and  N_32 
REMARK   22  A    between atoms: O_36  and  C_27 
ROOT
HETATM    1  C   UNK N   1       2.754  -2.195  -0.160  0.00  0.00     0.180 C 
HETATM    2  C   UNK N   1       2.911  -3.653  -0.552  0.00  0.00     0.182 C 
HETATM    3  C   UNK N   1       4.330  -3.832  -0.134  0.00  0.00     0.198 C 
HETATM    4  C   UNK N   1       4.913  -2.564  -0.770  0.00  0.00     0.262 C 
HETATM    5  O   UNK N   1       3.946  -1.536  -0.559  0.00  0.00    -0.353 OA
ENDROOT
BRANCH   1   6
HETATM    6  C   UNK N   1       1.500  -1.621  -0.821  0.00  0.00     0.213 C 
BRANCH   6   7
HETATM    7  O   UNK N   1       1.036  -0.483  -0.192  0.00  0.00    -0.319 OA
BRANCH   7   8
HETATM    8  C   UNK N   1       0.375  -0.504   0.998  0.00  0.00     0.258 C 
HETATM    9  O   UNK N   1      -0.134   0.523   1.415  0.00  0.00    -0.265 OA
BRANCH   8  10
HETATM   10  C   UNK N   1       0.281  -1.759   1.828  0.00  0.00     0.111 C 
BRANCH  10  11
HETATM   11  C   UNK N   1      -1.148  -2.251   1.990  0.00  0.00     0.010 C 
BRANCH  11  12
HETATM   12  C   UNK N   1      -1.557  -3.102   0.802  0.00  0.00     0.000 C 
BRANCH  12  13
HETATM   13  C   UNK N   1      -2.032  -2.210  -0.324  0.00  0.00     0.000 C 
BRANCH  13  14
HETATM   14  C   UNK N   1      -2.421  -3.056  -1.516  0.00  0.00     0.000 C 
BRANCH  14  15
HETATM   15  C   UNK N   1      -3.709  -2.532  -2.122  0.00  0.00     0.004 C 
BRANCH  15  16
HETATM   16  C   UNK N   1      -4.913  -3.235  -1.500  0.00  0.00     0.027 C 
BRANCH  16  17
HETATM   17  C   UNK N   1      -5.616  -2.500  -0.383  0.00  0.00    -0.031 C 
HETATM   18  C   UNK N   1      -5.197  -1.331   0.126  0.00  0.00    -0.031 C 
BRANCH  18  19
HETATM   19  C   UNK N   1      -5.987  -0.653   1.203  0.00  0.00     0.027 C 
BRANCH  19  20
HETATM   20  C   UNK N   1      -6.241   0.812   0.862  0.00  0.00     0.004 C 
BRANCH  20  21
HETATM   21  C   UNK N   1      -6.793   0.993  -0.546  0.00  0.00     0.000 C 
BRANCH  21  22
HETATM   22  C   UNK N   1      -6.864   2.468  -0.877  0.00  0.00     0.000 C 
BRANCH  22  23
HETATM   23  C   UNK N   1      -8.227   2.995  -0.490  0.00  0.00     0.000 C 
BRANCH  23  24
HETATM   24  C   UNK N   1      -8.176   4.500  -0.359  0.00  0.00    -0.000 C 
BRANCH  24  25
HETATM   25  C   UNK N   1      -9.543   4.998   0.053  0.00  0.00    -0.005 C 
HETATM   26  C   UNK N   1      -9.466   6.471   0.390  0.00  0.00     0.005 C 
ENDBRANCH  24  25
ENDBRANCH  23  24
ENDBRANCH  22  23
ENDBRANCH  21  22
ENDBRANCH  20  21
ENDBRANCH  19  20
ENDBRANCH  18  19
ENDBRANCH  16  17
ENDBRANCH  15  16
ENDBRANCH  14  15
ENDBRANCH  13  14
ENDBRANCH  12  13
ENDBRANCH  11  12
ENDBRANCH  10  11
ENDBRANCH   8  10
ENDBRANCH   7   8
ENDBRANCH   6   7
ENDBRANCH   1   6
BRANCH   2  27
HETATM   27  O   UNK N   1       2.029  -4.494   0.130  0.00  0.00    -0.390 OA
HETATM   28  H   UNK N   1       1.217  -4.256   0.604  0.00  0.00     0.210 HD
ENDBRANCH   2  27
BRANCH   3  29
HETATM   29  O   UNK N   1       4.893  -5.009  -0.633  0.00  0.00    -0.388 OA
HETATM   30  H   UNK N   1       4.380  -5.756  -0.980  0.00  0.00     0.210 HD
ENDBRANCH   3  29
BRANCH   4  31
HETATM   31  N   UNK N   1       6.264  -2.129  -0.325  0.00  0.00    -0.293 N 
HETATM   32  C   UNK N   1       6.740  -0.992  -0.916  0.00  0.00     0.101 A 
HETATM   33  C   UNK N   1       7.997  -0.485  -0.604  0.00  0.00     0.065 A 
HETATM   34  C   UNK N   1       8.771  -1.161   0.325  0.00  0.00     0.102 A 
HETATM   35  N   UNK N   1       9.932  -0.725   0.633  0.00  0.00    -0.385 N 
HETATM   36  N   UNK N   1       8.294  -2.288   0.903  0.00  0.00    -0.308 N 
HETATM   37  H   UNK N   1      10.670  -1.333   0.869  0.00  0.00     0.157 HD
ATOM     38  HN  UNK N   1      10.100   0.281   0.633  1.00  0.00     0.157 HD
HETATM   39  C   UNK N   1       7.065  -2.781   0.595  0.00  0.00     0.227 A 
ATOM     40  HN  UNK N   1       8.871  -2.779   1.586  1.00  0.00     0.171 HD
BRANCH  39  41
HETATM   41  O   UNK N   1       6.673  -3.914   1.200  0.00  0.00    -0.332 OA
HETATM   42  H   UNK N   1       5.852  -4.072   1.622  0.00  0.00     0.221 HD
ENDBRANCH  39  41
ENDBRANCH   4  31
TORSDOF 22
