REMARK  31 active torsions:
REMARK  status: ('A' for Active; 'I' for Inactive)
REMARK    1  A    between atoms: C_35  and  C_7 
REMARK    2  A    between atoms: C_36  and  C_8 
REMARK    3  A    between atoms: C_11  and  C_9 
REMARK    4  A    between atoms: C_13  and  C_9 
REMARK    5  A    between atoms: C_12  and  C_10 
REMARK    6  A    between atoms: C_14  and  C_10 
REMARK    7  A    between atoms: C_37  and  C_11 
REMARK    8  A    between atoms: C_38  and  C_12 
REMARK    9  A    between atoms: O_59  and  C_13 
REMARK   10  A    between atoms: O_60  and  C_14 
REMARK   11  A    between atoms: C_17  and  C_15 
REMARK   12  A    between atoms: O_61  and  C_15 
REMARK   13  A    between atoms: C_18  and  C_16 
REMARK   14  A    between atoms: O_62  and  C_16 
REMARK   15  A    between atoms: O_63  and  C_17 
REMARK   16  A    between atoms: O_64  and  C_18 
REMARK   17  A    between atoms: C_21  and  C_19 
REMARK   18  A    between atoms: O_63  and  C_19 
REMARK   19  A    between atoms: C_22  and  C_20 
REMARK   20  A    between atoms: O_64  and  C_20 
REMARK   21  A    between atoms: O_65  and  C_21 
REMARK   22  A    between atoms: O_66  and  C_22 
REMARK   23  A    between atoms: C_25  and  C_23 
REMARK   24  A    between atoms: O_65  and  C_23 
REMARK   25  A    between atoms: C_26  and  C_24 
REMARK   26  A    between atoms: O_66  and  C_24 
REMARK   27  A    between atoms: O_67  and  C_25 
REMARK   28  A    between atoms: O_68  and  C_26 
REMARK   29  A    between atoms: O_67  and  C_47 
REMARK   30  A    between atoms: O_68  and  C_48 
REMARK   31  A    between atoms: Lu_77  and  Lu_77 
ROOT
HETATM    1  C   UNK N   1      10.070  -1.205  -0.644  0.00  0.00     0.129 C 
HETATM    2  C   UNK N   1       9.439  -0.160   0.208  0.00  0.00     0.168 C 
HETATM    3  O   UNK N   1       9.992   0.916   0.362  0.00  0.00    -0.648 OA
HETATM    4  O   UNK N   1       8.261  -0.404   0.810  0.00  0.00    -0.648 OA
ENDROOT
TORSDOF 31
