REMARK WARNING: 32 MAX_TORS EXCEEDED!!!
REMARK  55 active torsions:
REMARK  status: ('A' for Active; 'I' for Inactive)
REMARK    1  A    between atoms: S_1  and  C_98 
REMARK    2  A    between atoms: O_13  and  C_104 
REMARK    3  A    between atoms: O_14  and  C_106 
REMARK    4  A    between atoms: O_18  and  C_115 
REMARK    5  A    between atoms: O_19  and  C_118 
REMARK       I    between atoms: N_21  and  C_48 
REMARK       I    between atoms: N_22  and  C_49 
REMARK    6  A    between atoms: C_52  and  N_22 
REMARK    7  A    between atoms: C_50  and  N_23 
REMARK       I    between atoms: N_23  and  C_59 
REMARK       I    between atoms: N_24  and  C_56 
REMARK    8  A    between atoms: N_25  and  C_60 
REMARK    9  A    between atoms: N_26  and  C_61 
REMARK       I    between atoms: N_26  and  C_63 
REMARK   10  A    between atoms: C_62  and  N_27 
REMARK       I    between atoms: N_27  and  C_67 
REMARK   11  A    between atoms: C_66  and  N_28 
REMARK       I    between atoms: N_28  and  C_74 
REMARK   12  A    between atoms: C_73  and  N_30 
REMARK       I    between atoms: N_30  and  C_81 
REMARK   13  A    between atoms: N_31  and  C_79 
REMARK       I    between atoms: N_31  and  C_86 
REMARK   14  A    between atoms: N_32  and  C_76 
REMARK       I    between atoms: N_32  and  C_95 
REMARK   15  A    between atoms: C_84  and  N_33 
REMARK       I    between atoms: N_33  and  C_90 
REMARK   16  A    between atoms: C_88  and  N_34 
REMARK       I    between atoms: N_34  and  C_101 
REMARK   17  A    between atoms: C_96  and  N_36 
REMARK       I    between atoms: N_36  and  C_107 
REMARK       I    between atoms: N_39  and  C_95 
REMARK   18  A    between atoms: C_103  and  N_42 
REMARK       I    between atoms: N_42  and  C_110 
REMARK   19  A    between atoms: C_111  and  N_43 
REMARK       I    between atoms: N_43  and  C_119 
REMARK   20  A    between atoms: C_44  and  C_49 
REMARK   21  A    between atoms: C_48  and  C_50 
REMARK   22  A    between atoms: C_50  and  C_51 
REMARK   23  A    between atoms: C_51  and  C_53 
REMARK   24  A    between atoms: C_52  and  C_54 
REMARK   25  A    between atoms: C_52  and  C_56 
REMARK   26  A    between atoms: C_53  and  C_55 
REMARK   27  A    between atoms: C_55  and  C_60 
REMARK   28  A    between atoms: C_59  and  C_61 
REMARK   29  A    between atoms: C_62  and  C_63 
REMARK   30  A    between atoms: C_62  and  C_64 
REMARK   31  A    between atoms: C_64  and  C_65 
REMARK   32  A    between atoms: C_66  and  C_67 
REMARK   33  A    between atoms: C_66  and  C_68 
REMARK   34  A    between atoms: C_68  and  C_72 
REMARK   35  A    between atoms: C_72  and  C_76 
REMARK   36  A    between atoms: C_73  and  C_74 
REMARK   37  A    between atoms: C_73  and  C_77 
REMARK   38  A    between atoms: C_77  and  C_85 
REMARK   39  A    between atoms: C_79  and  C_81 
REMARK   40  A    between atoms: C_79  and  C_83 
REMARK   41  A    between atoms: C_83  and  C_89 
REMARK   42  A    between atoms: C_84  and  C_86 
REMARK   43  A    between atoms: C_84  and  C_87 
REMARK   44  A    between atoms: C_87  and  C_94 
REMARK   45  A    between atoms: C_88  and  C_90 
REMARK   46  A    between atoms: C_88  and  C_93 
REMARK   47  A    between atoms: C_93  and  C_98 
REMARK   48  A    between atoms: C_94  and  C_104 
REMARK   49  A    between atoms: C_96  and  C_101 
REMARK   50  A    between atoms: C_96  and  C_106 
REMARK   51  A    between atoms: C_103  and  C_107 
REMARK   52  A    between atoms: C_103  and  C_108 
REMARK   53  A    between atoms: C_108  and  C_109 
REMARK   54  A    between atoms: C_110  and  C_111 
REMARK   55  A    between atoms: C_111  and  C_115 
ROOT
HETATM    1  C   UNK N   1       8.075  -1.984   0.320  0.00  0.00     0.180 C 
ENDROOT
BRANCH   1   2
HETATM    2  N   UNK N   1       7.386  -0.950   1.081  0.00  0.00    -0.346 N 
HETATM    3  C   UNK N   1       6.046  -0.657   1.054  0.00  0.00     0.241 C 
HETATM    4  O   UNK N   1       5.284  -1.208   0.283  0.00  0.00    -0.271 OA
HETATM    5  H   UNK N   1       7.942  -0.403   1.681  0.00  0.00     0.163 HD
BRANCH   3   6
HETATM    6  C   UNK N   1       5.605   0.587   1.690  0.00  0.00     0.182 C 
BRANCH   6   7
HETATM    7  N   UNK N   1       6.255   1.646   0.984  0.00  0.00    -0.346 N 
HETATM    8  C   UNK N   1       6.259   1.765  -0.368  0.00  0.00     0.241 C 
HETATM    9  O   UNK N   1       5.490   1.125  -1.069  0.00  0.00    -0.271 OA
HETATM   10  H   UNK N   1       6.729   2.331   1.510  0.00  0.00     0.163 HD
BRANCH   8  11
HETATM   11  C   UNK N   1       7.209   2.687  -1.001  0.00  0.00     0.177 C 
BRANCH  11  12
HETATM   12  N   UNK N   1       7.038   3.991  -0.450  0.00  0.00    -0.346 N 
HETATM   13  C   UNK N   1       7.274   4.409   0.824  0.00  0.00     0.241 C 
HETATM   14  O   UNK N   1       7.659   3.656   1.705  0.00  0.00    -0.271 OA
HETATM   15  H   UNK N   1       6.706   4.679  -1.071  0.00  0.00     0.163 HD
BRANCH  13  16
HETATM   16  C   UNK N   1       7.265   5.856   1.058  0.00  0.00     0.177 C 
BRANCH  16  17
HETATM   17  N   UNK N   1       8.105   6.435   0.039  0.00  0.00    -0.346 N 
HETATM   18  C   UNK N   1       7.894   6.462  -1.313  0.00  0.00     0.243 C 
HETATM   19  O   UNK N   1       6.814   6.164  -1.797  0.00  0.00    -0.271 OA
HETATM   20  H   UNK N   1       8.933   6.864   0.354  0.00  0.00     0.163 HD
BRANCH  18  21
HETATM   21  C   UNK N   1       8.997   6.931  -2.210  0.00  0.00     0.200 C 
BRANCH  21  22
HETATM   22  N   UNK N   1       9.330   8.265  -1.789  0.00  0.00    -0.344 N 
HETATM   23  C   UNK N   1       9.800   8.563  -0.554  0.00  0.00     0.241 C 
HETATM   24  O   UNK N   1      10.299   7.717   0.176  0.00  0.00    -0.271 OA
HETATM   25  H   UNK N   1       9.211   9.000  -2.433  0.00  0.00     0.163 HD
BRANCH  23  26
HETATM   26  C   UNK N   1       9.454   9.879  -0.002  0.00  0.00     0.180 C 
BRANCH  26  27
HETATM   27  N   UNK N   1      10.559  10.420   0.729  0.00  0.00    -0.346 N 
HETATM   28  C   UNK N   1      11.724  10.686   0.107  0.00  0.00     0.243 C 
HETATM   29  O   UNK N   1      11.829  10.540  -1.104  0.00  0.00    -0.271 OA
HETATM   30  H   UNK N   1      10.468  10.600   1.693  0.00  0.00     0.163 HD
BRANCH  28  31
HETATM   31  C   UNK N   1      12.891  11.113   0.923  0.00  0.00     0.200 C 
BRANCH  31  32
HETATM   32  N   UNK N   1      13.900  10.070   0.972  0.00  0.00    -0.346 N 
HETATM   33  C   UNK N   1      14.586   9.594  -0.099  0.00  0.00     0.214 C 
HETATM   34  O   UNK N   1      14.425  10.065  -1.214  0.00  0.00    -0.274 OA
HETATM   35  C   UNK N   1      15.543   8.471   0.088  0.00  0.00     0.117 C 
HETATM   36  H   UNK N   1      14.103   9.678   1.852  0.00  0.00     0.163 HD
ENDBRANCH  31  32
BRANCH  31  37
HETATM   37  C   UNK N   1      13.440  12.453   0.459  0.00  0.00     0.199 C 
BRANCH  37  38
HETATM   38  O   UNK N   1      12.445  13.428   0.561  0.00  0.00    -0.398 OA
HETATM   39  H   UNK N   1      12.686  14.365   0.633  0.00  0.00     0.209 HD
ENDBRANCH  37  38
ENDBRANCH  31  37
ENDBRANCH  28  31
ENDBRANCH  26  27
BRANCH  26  40
HETATM   40  C   UNK N   1       8.220   9.755   0.877  0.00  0.00     0.073 C 
BRANCH  40  41
HETATM   41  C   UNK N   1       7.481  11.004   0.633  0.00  0.00    -0.056 A 
HETATM   42  C   UNK N   1       7.860  12.160   1.317  0.00  0.00     0.010 A 
HETATM   43  C   UNK N   1       7.353  13.395   0.925  0.00  0.00     0.037 A 
HETATM   44  C   UNK N   1       6.484  13.478  -0.166  0.00  0.00     0.065 A 
HETATM   45  C   UNK N   1       6.092  12.320  -0.844  0.00  0.00     0.037 A 
HETATM   46  C   UNK N   1       6.600  11.081  -0.452  0.00  0.00     0.010 A 
BRANCH  44  47
HETATM   47  O   UNK N   1       6.038  14.676  -0.571  0.00  0.00    -0.361 OA
HETATM   48  H   UNK N   1       6.606  15.364  -0.855  0.00  0.00     0.217 HD
ENDBRANCH  44  47
ENDBRANCH  40  41
ENDBRANCH  26  40
ENDBRANCH  23  26
ENDBRANCH  21  22
BRANCH  21  49
HETATM   49  C   UNK N   1      10.192   5.971  -2.362  0.00  0.00     0.199 C 
BRANCH  49  50
HETATM   50  O   UNK N   1      10.767   5.601  -1.147  0.00  0.00    -0.398 OA
HETATM   51  H   UNK N   1      10.743   5.125  -0.302  0.00  0.00     0.209 HD
ENDBRANCH  49  50
ENDBRANCH  21  49
ENDBRANCH  18  21
ENDBRANCH  16  17
BRANCH  16  52
HETATM   52  C   UNK N   1       5.890   6.500   1.232  0.00  0.00     0.045 C 
BRANCH  52  53
HETATM   53  C   UNK N   1       4.824   5.999   0.274  0.00  0.00     0.076 C 
BRANCH  53  54
HETATM   54  S   UNK N   1       3.231   5.952   1.141  0.00  0.00    -0.173 SA
HETATM   55  C   UNK N   1       2.969   7.733   0.913  0.00  0.00     0.089 C 
ENDBRANCH  53  54
ENDBRANCH  52  53
ENDBRANCH  16  52
ENDBRANCH  13  16
ENDBRANCH  11  12
BRANCH  11  56
HETATM   56  C   UNK N   1       8.689   2.250  -1.118  0.00  0.00     0.045 C 
BRANCH  56  57
HETATM   57  C   UNK N   1       9.571   2.607   0.079  0.00  0.00     0.112 C 
BRANCH  57  58
HETATM   58  C   UNK N   1      11.033   2.748  -0.235  0.00  0.00     0.139 C 
HETATM   59  O   UNK N   1      11.461   2.536  -1.358  0.00  0.00    -0.650 OA
BRANCH  58  60
HETATM   60  O   UNK N   1      11.880   3.136   0.738  0.00  0.00    -0.776 OA
HETATM   61  H   UNK N   1      12.409   2.761   1.415  0.00  0.00     0.167 HD
ENDBRANCH  58  60
ENDBRANCH  57  58
ENDBRANCH  56  57
ENDBRANCH  11  56
ENDBRANCH   8  11
ENDBRANCH   6   7
BRANCH   6  62
HETATM   62  C   UNK N   1       4.128   0.804   2.091  0.00  0.00     0.093 C 
BRANCH  62  63
HETATM   63  C   UNK N   1       3.013   0.578   1.103  0.00  0.00     0.028 A 
HETATM   64  N   UNK N   1       2.033   1.466   0.875  0.00  0.00    -0.354 N 
HETATM   65  C   UNK N   1       1.171   0.838   0.048  0.00  0.00     0.180 A 
HETATM   66  H   UNK N   1       1.960   2.380   1.234  0.00  0.00     0.166 HD
HETATM   67  N   UNK N   1       1.575  -0.416  -0.235  0.00  0.00    -0.360 N 
HETATM   68  C   UNK N   1       2.722  -0.590   0.443  0.00  0.00     0.114 A 
ATOM     69  HN  UNK N   1       1.108  -1.092  -0.838  1.00  0.00     0.166 HD
ENDBRANCH  62  63
ENDBRANCH   6  62
ENDBRANCH   3   6
ENDBRANCH   1   2
BRANCH   1  70
HETATM   70  C   UNK N   1       7.116  -2.864  -0.374  0.00  0.00     0.241 C 
HETATM   71  O   UNK N   1       6.298  -3.411   0.339  0.00  0.00    -0.271 OA
HETATM   72  N   UNK N   1       7.060  -3.015  -1.731  0.00  0.00    -0.346 N 
HETATM   73  H   UNK N   1       7.699  -2.528  -2.301  0.00  0.00     0.163 HD
BRANCH  72  74
HETATM   74  C   UNK N   1       6.066  -3.887  -2.345  0.00  0.00     0.176 C 
BRANCH  74  75
HETATM   75  C   UNK N   1       6.167  -5.210  -1.634  0.00  0.00     0.241 C 
HETATM   76  O   UNK N   1       7.204  -5.838  -1.770  0.00  0.00    -0.271 OA
HETATM   77  N   UNK N   1       5.324  -5.472  -0.593  0.00  0.00    -0.346 N 
HETATM   78  H   UNK N   1       4.474  -4.976  -0.561  0.00  0.00     0.163 HD
BRANCH  77  79
HETATM   79  C   UNK N   1       5.584  -6.419   0.465  0.00  0.00     0.181 C 
BRANCH  79  80
HETATM   80  C   UNK N   1       6.928  -6.270   1.130  0.00  0.00     0.241 C 
HETATM   81  O   UNK N   1       7.234  -5.251   1.727  0.00  0.00    -0.271 OA
HETATM   82  N   UNK N   1       7.802  -7.296   1.085  0.00  0.00    -0.351 N 
HETATM   83  H   UNK N   1       8.731  -7.150   1.375  0.00  0.00     0.163 HD
BRANCH  82  84
HETATM   84  C   UNK N   1       7.402  -8.604   0.620  0.00  0.00     0.225 C 
BRANCH  84  85
HETATM   85  C   UNK N   1       7.150  -8.746  -0.871  0.00  0.00     0.236 C 
HETATM   86  O   UNK N   1       6.276  -8.107  -1.420  0.00  0.00    -0.272 OA
HETATM   87  N   UNK N   1       7.741  -9.728  -1.576  0.00  0.00    -0.346 N 
HETATM   88  H   UNK N   1       7.621  -9.730  -2.553  0.00  0.00     0.163 HD
BRANCH  87  89
HETATM   89  C   UNK N   1       8.540 -10.777  -0.990  0.00  0.00     0.176 C 
BRANCH  89  90
HETATM   90  C   UNK N   1       9.867 -10.337  -0.419  0.00  0.00     0.243 C 
HETATM   91  O   UNK N   1      10.104  -9.163  -0.209  0.00  0.00    -0.271 OA
HETATM   92  N   UNK N   1      10.727 -11.317  -0.022  0.00  0.00    -0.337 N 
HETATM   93  C   UNK N   1      11.808 -11.110   0.908  0.00  0.00     0.179 C 
HETATM   94  C   UNK N   1      10.496 -12.694  -0.349  0.00  0.00     0.127 C 
HETATM   95  C   UNK N   1      12.448 -12.480   1.045  0.00  0.00     0.037 C 
HETATM   96  C   UNK N   1      11.409 -13.479   0.560  0.00  0.00     0.022 C 
BRANCH  93  97
HETATM   97  C   UNK N   1      12.827 -10.099   0.525  0.00  0.00     0.241 C 
HETATM   98  O   UNK N   1      13.179  -9.282   1.364  0.00  0.00    -0.271 OA
HETATM   99  N   UNK N   1      13.421 -10.141  -0.695  0.00  0.00    -0.346 N 
HETATM  100  H   UNK N   1      13.030 -10.723  -1.387  0.00  0.00     0.163 HD
BRANCH  99 101
HETATM  101  C   UNK N   1      14.604  -9.370  -1.028  0.00  0.00     0.179 C 
BRANCH 101 102
HETATM  102  C   UNK N   1      14.436  -7.865  -0.718  0.00  0.00     0.009 C 
HETATM  103  C   UNK N   1      15.644  -7.071  -1.186  0.00  0.00     0.012 C 
HETATM  104  C   UNK N   1      13.199  -7.296  -1.388  0.00  0.00     0.012 C 
ENDBRANCH 101 102
BRANCH 101 105
HETATM  105  C   UNK N   1      15.783 -10.022  -0.340  0.00  0.00     0.238 C 
HETATM  106  O   UNK N   1      16.052 -11.185  -0.594  0.00  0.00    -0.271 OA
HETATM  107  N   UNK N   1      16.509  -9.361   0.584  0.00  0.00    -0.368 N 
HETATM  108  H   UNK N   1      17.192  -9.579   1.259  0.00  0.00     0.159 HD
HETATM  109  H   UNK N   1      16.299  -8.399   0.584  0.00  0.00     0.159 HD
ENDBRANCH 101 105
ENDBRANCH  99 101
ENDBRANCH  93  97
ENDBRANCH  89  90
BRANCH  89 110
HETATM  110  C   UNK N   1       7.819 -11.461   0.195  0.00  0.00     0.035 C 
BRANCH 110 111
HETATM  111  C   UNK N   1       6.299 -11.484   0.159  0.00  0.00     0.004 C 
BRANCH 111 112
HETATM  112  C   UNK N   1       5.771 -12.605  -0.704  0.00  0.00     0.019 C 
BRANCH 112 113
HETATM  113  C   UNK N   1       6.013 -13.943  -0.031  0.00  0.00     0.111 C 
BRANCH 113 114
HETATM  114  N   UNK N   1       7.396 -14.347  -0.216  0.00  0.00    -0.430 N 
HETATM  115  H   UNK N   1       7.636 -15.330  -0.346  0.00  0.00     0.149 HD
HETATM  116  H   UNK N   1       8.133 -13.642  -0.216  0.00  0.00     0.149 HD
ENDBRANCH 113 114
ENDBRANCH 112 113
ENDBRANCH 111 112
ENDBRANCH 110 111
ENDBRANCH  89 110
ENDBRANCH  87  89
ENDBRANCH  84  85
ENDBRANCH  82  84
ENDBRANCH  79  80
BRANCH  79 117
HETATM  117  C   UNK N   1       4.417  -6.570   1.414  0.00  0.00     0.075 C 
BRANCH 117 118
HETATM  118  C   UNK N   1       3.776  -7.851   1.007  0.00  0.00    -0.028 A 
HETATM  119  C   UNK N   1       2.532  -8.032   0.473  0.00  0.00    -0.002 A 
HETATM  120  C   UNK N   1       2.428  -9.357   0.161  0.00  0.00     0.042 A 
HETATM  121  C   UNK N   1       1.501  -7.137   0.222  0.00  0.00     0.014 A 
HETATM  122  N   UNK N   1       3.548 -10.021   0.487  0.00  0.00    -0.365 N 
HETATM  123  C   UNK N   1       1.288  -9.887  -0.431  0.00  0.00     0.030 A 
HETATM  124  C   UNK N   1       4.387  -9.099   1.015  0.00  0.00     0.096 A 
HETATM  125  H   UNK N   1       3.723 -10.982   0.367  0.00  0.00     0.165 HD
HETATM  126  C   UNK N   1       0.221  -9.009  -0.694  0.00  0.00     0.002 A 
HETATM  127  C   UNK N   1       0.326  -7.639  -0.365  0.00  0.00     0.001 A 
ENDBRANCH 117 118
ENDBRANCH  79 117
ENDBRANCH  77  79
ENDBRANCH  74  75
BRANCH  74 128
HETATM  128  C   UNK N   1       4.693  -3.171  -2.440  0.00  0.00     0.036 C 
BRANCH 128 129
HETATM  129  C   UNK N   1       3.464  -3.882  -1.869  0.00  0.00     0.023 C 
BRANCH 129 130
HETATM  130  C   UNK N   1       3.268  -3.412  -0.437  0.00  0.00     0.138 C 
BRANCH 130 131
HETATM  131  N   UNK N   1       2.239  -4.147   0.258  0.00  0.00    -0.227 N 
HETATM  132  C   UNK N   1       0.856  -3.959   0.002  0.00  0.00     0.665 C 
HETATM  133  N   UNK N   1       0.424  -3.131  -1.058  0.00  0.00    -0.235 N 
HETATM  134  N   UNK N   1      -0.010  -4.516   0.763  0.00  0.00    -0.235 N 
HETATM  135  H   UNK N   1       0.773  -2.582  -1.797  0.00  0.00     0.174 HD
HETATM  136  H   UNK N   1      -0.559  -3.090  -1.058  0.00  0.00     0.174 HD
HETATM  137  H   UNK N   1      -0.714  -4.154   1.348  0.00  0.00     0.174 HD
ATOM    138  HN  UNK N   1       0.039  -5.535   0.763  1.00  0.00     0.174 HD
HETATM  139  H   UNK N   1       2.508  -4.806   0.938  0.00  0.00     0.177 HD
ENDBRANCH 130 131
ENDBRANCH 129 130
ENDBRANCH 128 129
ENDBRANCH  74 128
ENDBRANCH  72  74
ENDBRANCH   1  70
BRANCH   1 140
HETATM  140  C   UNK N   1       9.188  -1.405  -0.542  0.00  0.00     0.073 C 
BRANCH 140 141
HETATM  141  C   UNK N   1      10.354  -1.069   0.335  0.00  0.00    -0.056 A 
HETATM  142  C   UNK N   1      10.236  -0.085   1.324  0.00  0.00     0.007 A 
HETATM  143  C   UNK N   1      11.317   0.216   2.155  0.00  0.00     0.001 A 
HETATM  144  C   UNK N   1      12.521  -0.476   2.006  0.00  0.00     0.000 A 
HETATM  145  C   UNK N   1      12.643  -1.466   1.027  0.00  0.00     0.001 A 
HETATM  146  C   UNK N   1      11.560  -1.763   0.190  0.00  0.00     0.007 A 
ENDBRANCH 140 141
ENDBRANCH   1 140
TORSDOF 55
