REMARK  12 active torsions:
REMARK  status: ('A' for Active; 'I' for Inactive)
REMARK    1  A    between atoms: C_2  and  C_3 
REMARK    2  A    between atoms: C_2  and  N_7 
REMARK    3  A    between atoms: C_3  and  O_5 
REMARK    4  A    between atoms: N_7  and  P_8 
REMARK    5  A    between atoms: P_8  and  O_10 
REMARK    6  A    between atoms: P_8  and  O_29 
REMARK    7  A    between atoms: O_10  and  C_11 
REMARK    8  A    between atoms: C_12  and  C_11 
REMARK    9  A    between atoms: C_13  and  O_28 
REMARK   10  A    between atoms: C_15  and  N_17 
REMARK   11  A    between atoms: C_19  and  C_25 
REMARK   12  A    between atoms: O_29  and  C_30 
ROOT
HETATM    1  C   UNK N   1       3.528   1.052   0.226  0.00  0.00     0.177 C 
HETATM    2  C   UNK N   1       4.592   0.019  -0.032  0.00  0.00     0.153 C 
HETATM    3  C   UNK N   1       3.844  -0.977  -0.867  0.00  0.00     0.088 C 
HETATM    4  C   UNK N   1       2.371  -0.625  -0.614  0.00  0.00     0.235 C 
HETATM    5  O   UNK N   1       2.326   0.356   0.393  0.00  0.00    -0.356 OA
ENDROOT
BRANCH   1   6
HETATM    6  C   UNK N   1       3.396   2.034  -0.938  0.00  0.00     0.214 C 
BRANCH   6   7
HETATM    7  O   UNK N   1       2.930   3.238  -0.410  0.00  0.00    -0.295 OA
BRANCH   7   8
HETATM    8  P   UNK N   1       4.083   4.482  -0.832  0.00  0.00     0.436 P 
HETATM    9  O   UNK N   1       2.733   5.187  -0.538  0.00  0.00    -0.234 OA
BRANCH   8  10
HETATM   10  N   UNK N   1       4.349   5.662   0.498  0.00  0.00    -0.314 N 
HETATM   11  H   UNK N   1       3.707   5.826   1.274  0.00  0.00     0.166 HD
BRANCH  10  12
HETATM   12  C   UNK N   1       5.618   6.346   0.303  0.00  0.00     0.183 C 
HETATM   13  C   UNK N   1       6.367   6.323   1.624  0.00  0.00     0.043 C 
BRANCH  12  14
HETATM   14  C   UNK N   1       5.385   7.770  -0.148  0.00  0.00     0.281 C 
HETATM   15  O   UNK N   1       4.243   8.179  -0.294  0.00  0.00    -0.263 OA
BRANCH  14  16
HETATM   16  O   UNK N   1       6.418   8.610  -0.408  0.00  0.00    -0.325 OA
HETATM   17  C   UNK N   1       7.738   8.239  -0.305  0.00  0.00     0.213 C 
ENDBRANCH  14  16
ENDBRANCH  12  14
ENDBRANCH  10  12
ENDBRANCH   8  10
BRANCH   8  18
HETATM   18  O   UNK N   1       4.867   3.674   0.489  0.00  0.00    -0.256 OA
BRANCH  18  19
HETATM   19  C   UNK N   1       6.024   2.973   0.337  0.00  0.00     0.080 A 
HETATM   20  C   UNK N   1       6.583   2.739  -0.936  0.00  0.00     0.037 A 
HETATM   21  C   UNK N   1       7.742   1.971  -1.070  0.00  0.00     0.003 A 
HETATM   22  C   UNK N   1       8.356   1.432   0.063  0.00  0.00     0.000 A 
HETATM   23  C   UNK N   1       7.812   1.666   1.330  0.00  0.00     0.003 A 
HETATM   24  C   UNK N   1       6.648   2.430   1.465  0.00  0.00     0.037 A 
ENDBRANCH  18  19
ENDBRANCH   8  18
ENDBRANCH   7   8
ENDBRANCH   6   7
ENDBRANCH   1   6
BRANCH   2  25
HETATM   25  O   UNK N   1       4.941  -0.575   1.183  0.00  0.00    -0.393 OA
HETATM   26  H   UNK N   1       4.705  -0.991   2.027  0.00  0.00     0.210 HD
ENDBRANCH   2  25
BRANCH   4  27
HETATM   27  N   UNK N   1       1.545  -1.781  -0.254  0.00  0.00    -0.281 N 
HETATM   28  C   UNK N   1       2.113  -3.014  -0.184  0.00  0.00     0.115 A 
HETATM   29  C   UNK N   1       1.375  -4.135   0.140  0.00  0.00     0.048 A 
HETATM   30  C   UNK N   1      -0.002  -3.979   0.387  0.00  0.00     0.261 A 
HETATM   31  O   UNK N   1      -0.701  -4.935   0.670  0.00  0.00    -0.267 OA
HETATM   32  N   UNK N   1      -0.563  -2.731   0.312  0.00  0.00    -0.275 N 
HETATM   33  C   UNK N   1       0.196  -1.635  -0.000  0.00  0.00     0.331 A 
HETATM   34  H   UNK N   1      -1.526  -2.621   0.485  0.00  0.00     0.173 HD
HETATM   35  O   UNK N   1      -0.329  -0.534  -0.050  0.00  0.00    -0.246 OA
BRANCH  29  36
HETATM   36  C   UNK N   1       2.123  -5.401   0.233  0.00  0.00     0.026 C 
HETATM   37  C   UNK N   1       1.625  -6.548   0.681  0.00  0.00     0.057 C 
HETATM   38 Br   UNK N   1       2.791  -8.053   0.792  0.00  0.00    -0.064 Br
ENDBRANCH  29  36
ENDBRANCH   4  27
TORSDOF 12
