REMARK  12 active torsions:
REMARK  status: ('A' for Active; 'I' for Inactive)
REMARK    1  A    between atoms: C_6  and  C_5 
REMARK    2  A    between atoms: C_11  and  C_5 
REMARK    3  A    between atoms: C_14  and  C_6 
REMARK    4  A    between atoms: C_9  and  C_7 
REMARK    5  A    between atoms: C_13  and  C_7 
REMARK    6  A    between atoms: C_15  and  C_11 
REMARK    7  A    between atoms: C_11  and  N_17 
REMARK    8  A    between atoms: C_16  and  C_13 
REMARK    9  A    between atoms: C_13  and  N_19 
REMARK   10  A    between atoms: O_22  and  C_14 
REMARK   11  A    between atoms: C_15  and  O_23 
REMARK   12  A    between atoms: O_25  and  C_16 
ROOT
HETATM    1  C   UNK N   1       0.154   0.425   0.863  0.00  0.00     0.185 C 
ENDROOT
BRANCH   1   2
HETATM    2  C   UNK N   1       1.507  -0.241   1.185  0.00  0.00     0.076 C 
BRANCH   2   3
HETATM    3  C   UNK N   1       2.744   0.190   0.431  0.00  0.00    -0.028 A 
HETATM    4  C   UNK N   1       3.052   1.461  -0.058  0.00  0.00     0.096 A 
HETATM    5  N   UNK N   1       4.307   1.466  -0.572  0.00  0.00    -0.365 N 
HETATM    6  C   UNK N   1       4.787   0.222  -0.396  0.00  0.00     0.042 A 
HETATM    7  H   UNK N   1       4.772   2.226  -0.991  0.00  0.00     0.165 HD
HETATM    8  C   UNK N   1       6.055  -0.238  -0.738  0.00  0.00     0.030 A 
HETATM    9  C   UNK N   1       3.862  -0.579   0.212  0.00  0.00    -0.002 A 
HETATM   10  C   UNK N   1       6.366  -1.578  -0.442  0.00  0.00     0.002 A 
HETATM   11  C   UNK N   1       5.411  -2.412   0.184  0.00  0.00     0.001 A 
HETATM   12  C   UNK N   1       4.139  -1.910   0.523  0.00  0.00     0.014 A 
ENDBRANCH   2   3
ENDBRANCH   1   2
BRANCH   1  13
HETATM   13  C   UNK N   1       0.196   1.897   0.547  0.00  0.00     0.163 C 
HETATM   14  O   UNK N   1      -0.275   2.324  -0.496  0.00  0.00    -0.648 OA
BRANCH  13  15
HETATM   15  O   UNK N   1       0.736   2.754   1.434  0.00  0.00    -0.775 OA
HETATM   16  H   UNK N   1       1.441   2.726   2.051  0.00  0.00     0.167 HD
ENDBRANCH  13  15
ENDBRANCH   1  13
BRANCH   1  17
HETATM   17  N   UNK N   1      -0.608  -0.340  -0.100  0.00  0.00    -0.358 N 
HETATM   18  C   UNK N   1      -1.815  -0.722   0.162  0.00  0.00     0.135 C 
ATOM     19  HN  UNK N   1      -0.187  -0.581  -0.997  1.00  0.00     0.162 HD
BRANCH  18  20
HETATM   20  C   UNK N   1      -2.571  -1.548  -0.845  0.00  0.00     0.149 C 
BRANCH  20  21
HETATM   21  C   UNK N   1      -4.024  -1.794  -0.449  0.00  0.00     0.043 C 
BRANCH  21  22
HETATM   22  C   UNK N   1      -4.901  -0.633  -0.897  0.00  0.00     0.112 C 
BRANCH  22  23
HETATM   23  C   UNK N   1      -5.359   0.192   0.261  0.00  0.00     0.139 C 
HETATM   24  O   UNK N   1      -6.083  -0.293   1.116  0.00  0.00    -0.650 OA
BRANCH  23  25
HETATM   25  O   UNK N   1      -4.996   1.485   0.345  0.00  0.00    -0.776 OA
HETATM   26  H   UNK N   1      -4.089   1.716   0.404  0.00  0.00     0.167 HD
ENDBRANCH  23  25
ENDBRANCH  22  23
ENDBRANCH  21  22
ENDBRANCH  20  21
BRANCH  20  27
HETATM   27  N   UNK N   1      -1.904  -2.827  -1.011  0.00  0.00    -0.419 N 
HETATM   28  H   UNK N   1      -2.447  -3.682  -1.128  0.00  0.00     0.150 HD
HETATM   29  H   UNK N   1      -0.885  -2.871  -1.011  0.00  0.00     0.150 HD
ENDBRANCH  20  27
ENDBRANCH  18  20
BRANCH  18  30
HETATM   30  O   UNK N   1      -2.398  -0.384   1.334  0.00  0.00    -0.348 OA
HETATM   31  H   UNK N   1      -2.397   0.083   2.147  0.00  0.00     0.219 HD
ENDBRANCH  18  30
ENDBRANCH   1  17
TORSDOF 12
