REMARK  5 active torsions:
REMARK  status: ('A' for Active; 'I' for Inactive)
REMARK       I    between atoms: N_4  and  C_20 
REMARK    1  A    between atoms: N_5  and  C_19 
REMARK       I    between atoms: N_6  and  C_22 
REMARK    2  A    between atoms: N_6  and  C_30 
REMARK    3  A    between atoms: C_7  and  C_12 
REMARK    4  A    between atoms: C_12  and  C_22 
REMARK    5  A    between atoms: C_20  and  C_23 
ROOT
HETATM    1  O   UNK N   1       7.232  -3.416  -0.335  0.00  0.00    -0.267 OA
HETATM    2  N   UNK N   1       6.035  -1.640   0.387  0.00  0.00    -0.313 N 
HETATM    3  C   UNK N   1       3.491  -0.023  -0.040  0.00  0.00     0.030 C 
HETATM    4  C   UNK N   1       4.630   0.510  -0.890  0.00  0.00     0.011 C 
HETATM    5  C   UNK N   1       5.818   0.791  -0.000  0.00  0.00     0.021 C 
HETATM    6  C   UNK N   1       3.530  -1.546   0.004  0.00  0.00    -0.027 A 
HETATM    7  C   UNK N   1       6.042  -0.327   1.009  0.00  0.00     0.132 C 
HETATM    8  C   UNK N   1       4.748  -2.292   0.197  0.00  0.00     0.044 A 
HETATM    9  C   UNK N   1       2.328  -2.246  -0.208  0.00  0.00     0.010 A 
HETATM   10  C   UNK N   1       7.240  -2.262   0.067  0.00  0.00     0.260 C 
HETATM   11  C   UNK N   1       4.670  -3.700   0.152  0.00  0.00     0.030 A 
HETATM   12  C   UNK N   1       2.291  -3.636  -0.223  0.00  0.00     0.001 A 
HETATM   13  C   UNK N   1       3.461  -4.362  -0.046  0.00  0.00     0.002 A 
ENDROOT
BRANCH  10  14
HETATM   14  C   UNK N   1       8.578  -1.545   0.102  0.00  0.00     0.054 A 
HETATM   15  C   UNK N   1       9.828  -2.226   0.033  0.00  0.00     0.051 A 
HETATM   16 Cl   UNK N   1       9.964  -3.980   0.003  0.00  0.00    -0.083 Cl
HETATM   17  C   UNK N   1      11.026  -1.491   0.007  0.00  0.00     0.054 A 
HETATM   18  C   UNK N   1      11.013  -0.087   0.029  0.00  0.00     0.031 A 
HETATM   19  C   UNK N   1       9.791   0.574   0.087  0.00  0.00     0.030 A 
HETATM   20  C   UNK N   1       8.609  -0.145   0.123  0.00  0.00     0.021 A 
BRANCH  18  21
HETATM   21  N   UNK N   1      12.221   0.668  -0.002  0.00  0.00    -0.381 N 
HETATM   22  C   UNK N   1      13.517   0.059  -0.021  0.00  0.00     0.123 A 
HETATM   23  C   UNK N   1      14.500   1.217  -0.012  0.00  0.00     0.021 A 
HETATM   24  C   UNK N   1      13.681   2.506  -0.040  0.00  0.00     0.021 A 
HETATM   25  C   UNK N   1      12.221   2.103  -0.006  0.00  0.00     0.123 A 
ENDBRANCH  18  21
ENDBRANCH  10  14
BRANCH   3  26
HETATM   26  C   UNK N   1       2.191   0.553  -0.607  0.00  0.00     0.112 C 
BRANCH  26  27
HETATM   27  C   UNK N   1       1.986   1.993  -0.235  0.00  0.00     0.218 C 
HETATM   28  O   UNK N   1       2.920   2.782  -0.270  0.00  0.00    -0.274 OA
HETATM   29  N   UNK N   1       0.743   2.410   0.107  0.00  0.00    -0.357 N 
HETATM   30  H   UNK N   1       0.011   1.752   0.103  0.00  0.00     0.162 HD
BRANCH  29  31
HETATM   31  C   UNK N   1       0.439   3.773   0.478  0.00  0.00     0.076 C 
HETATM   32  C   UNK N   1       0.741   4.732  -0.662  0.00  0.00     0.032 C 
HETATM   33  C   UNK N   1      -1.034   3.870   0.813  0.00  0.00     0.032 C 
ENDBRANCH  29  31
ENDBRANCH  26  27
ENDBRANCH   3  26
TORSDOF 5
