REMARK WARNING: 32 MAX_TORS EXCEEDED!!!
REMARK  214 active torsions:
REMARK  status: ('A' for Active; 'I' for Inactive)
REMARK    1  A    between atoms: C_91  and  C_20 
REMARK    2  A    between atoms: C_29  and  C_21 
REMARK    3  A    between atoms: C_65  and  C_21 
REMARK    4  A    between atoms: C_30  and  C_22 
REMARK    5  A    between atoms: C_66  and  C_22 
REMARK    6  A    between atoms: C_31  and  C_23 
REMARK    7  A    between atoms: C_67  and  C_23 
REMARK    8  A    between atoms: C_32  and  C_24 
REMARK    9  A    between atoms: C_68  and  C_24 
REMARK   10  A    between atoms: C_107  and  C_29 
REMARK   11  A    between atoms: C_108  and  C_30 
REMARK   12  A    between atoms: C_109  and  C_31 
REMARK   13  A    between atoms: C_110  and  C_32 
REMARK   14  A    between atoms: C_58  and  C_53 
REMARK   15  A    between atoms: C_111  and  C_53 
REMARK   16  A    between atoms: C_59  and  C_54 
REMARK   17  A    between atoms: C_112  and  C_54 
REMARK   18  A    between atoms: C_60  and  C_55 
REMARK   19  A    between atoms: C_113  and  C_55 
REMARK   20  A    between atoms: C_61  and  C_56 
REMARK   21  A    between atoms: C_114  and  C_56 
REMARK   22  A    between atoms: C_62  and  C_57 
REMARK   23  A    between atoms: C_117  and  C_57 
REMARK   24  A    between atoms: C_133  and  C_58 
REMARK   25  A    between atoms: C_134  and  C_59 
REMARK   26  A    between atoms: C_135  and  C_60 
REMARK   27  A    between atoms: C_139  and  C_61 
REMARK   28  A    between atoms: C_140  and  C_62 
REMARK   29  A    between atoms: C_73  and  C_63 
REMARK   30  A    between atoms: C_115  and  C_63 
REMARK   31  A    between atoms: C_74  and  C_64 
REMARK   32  A    between atoms: C_116  and  C_64 
REMARK   33  A    between atoms: N_210  and  C_65 
REMARK   34  A    between atoms: N_211  and  C_66 
REMARK   35  A    between atoms: N_212  and  C_67 
REMARK   36  A    between atoms: N_213  and  C_68 
REMARK   37  A    between atoms: S_335  and  C_73 
REMARK   38  A    between atoms: S_336  and  C_74 
REMARK   39  A    between atoms: C_87  and  C_75 
REMARK   40  A    between atoms: C_119  and  C_75 
REMARK   41  A    between atoms: C_88  and  C_76 
REMARK   42  A    between atoms: C_120  and  C_76 
REMARK   43  A    between atoms: C_89  and  C_77 
REMARK   44  A    between atoms: C_121  and  C_77 
REMARK   45  A    between atoms: C_99  and  C_78 
REMARK   46  A    between atoms: C_118  and  C_78 
REMARK   47  A    between atoms: C_100  and  C_79 
REMARK   48  A    between atoms: C_122  and  C_79 
REMARK   49  A    between atoms: C_101  and  C_80 
REMARK   50  A    between atoms: C_123  and  C_80 
REMARK   51  A    between atoms: C_102  and  C_81 
REMARK   52  A    between atoms: C_128  and  C_81 
REMARK   53  A    between atoms: C_124  and  C_82 
REMARK   54  A    between atoms: C_136  and  C_82 
REMARK   55  A    between atoms: C_125  and  C_83 
REMARK   56  A    between atoms: C_137  and  C_83 
REMARK   57  A    between atoms: C_126  and  C_84 
REMARK   58  A    between atoms: C_141  and  C_84 
REMARK   59  A    between atoms: C_127  and  C_85 
REMARK   60  A    between atoms: C_142  and  C_85 
REMARK   61  A    between atoms: C_138  and  C_86 
REMARK   62  A    between atoms: N_214  and  C_86 
REMARK   63  A    between atoms: C_143  and  C_90 
REMARK   64  A    between atoms: C_144  and  C_91 
REMARK   65  A    between atoms: C_178  and  C_92 
REMARK   66  A    between atoms: C_92  and  N_186 
REMARK   67  A    between atoms: C_148  and  C_93 
REMARK   68  A    between atoms: N_220  and  C_93 
REMARK   69  A    between atoms: C_150  and  C_94 
REMARK   70  A    between atoms: N_216  and  C_94 
REMARK   71  A    between atoms: C_149  and  C_95 
REMARK   72  A    between atoms: N_218  and  C_95 
REMARK   73  A    between atoms: C_151  and  C_96 
REMARK   74  A    between atoms: N_222  and  C_96 
REMARK   75  A    between atoms: C_145  and  C_97 
REMARK   76  A    between atoms: C_97  and  O_280 
REMARK   77  A    between atoms: C_146  and  C_98 
REMARK   78  A    between atoms: C_98  and  O_281 
REMARK   79  A    between atoms: O_282  and  C_103 
REMARK   80  A    between atoms: O_283  and  C_104 
REMARK   81  A    between atoms: O_284  and  C_105 
REMARK   82  A    between atoms: O_285  and  C_106 
REMARK   83  A    between atoms: C_153  and  C_107 
REMARK   84  A    between atoms: C_107  and  N_232 
REMARK   85  A    between atoms: C_155  and  C_108 
REMARK   86  A    between atoms: C_108  and  N_230 
REMARK   87  A    between atoms: C_156  and  C_109 
REMARK   88  A    between atoms: C_109  and  N_228 
REMARK   89  A    between atoms: C_154  and  C_110 
REMARK   90  A    between atoms: C_110  and  N_244 
REMARK   91  A    between atoms: C_160  and  C_111 
REMARK   92  A    between atoms: C_111  and  N_226 
REMARK   93  A    between atoms: C_157  and  C_112 
REMARK   94  A    between atoms: C_112  and  N_234 
REMARK   95  A    between atoms: C_158  and  C_113 
REMARK   96  A    between atoms: C_113  and  N_236 
REMARK   97  A    between atoms: C_159  and  C_114 
REMARK   98  A    between atoms: C_114  and  N_242 
REMARK   99  A    between atoms: C_152  and  C_115 
REMARK  100  A    between atoms: C_115  and  N_238 
REMARK  101  A    between atoms: C_161  and  C_116 
REMARK  102  A    between atoms: C_116  and  N_240 
REMARK  103  A    between atoms: C_179  and  C_117 
REMARK  104  A    between atoms: C_117  and  N_246 
REMARK  105  A    between atoms: C_147  and  C_118 
REMARK  106  A    between atoms: C_118  and  N_248 
REMARK  107  A    between atoms: C_164  and  C_119 
REMARK  108  A    between atoms: C_119  and  N_254 
REMARK  109  A    between atoms: C_165  and  C_120 
REMARK  110  A    between atoms: C_120  and  N_262 
REMARK  111  A    between atoms: C_169  and  C_121 
REMARK  112  A    between atoms: C_121  and  N_252 
REMARK  113  A    between atoms: C_162  and  C_122 
REMARK  114  A    between atoms: C_122  and  N_256 
REMARK  115  A    between atoms: C_170  and  C_123 
REMARK  116  A    between atoms: C_123  and  N_258 
REMARK  117  A    between atoms: C_163  and  C_124 
REMARK  118  A    between atoms: C_124  and  N_260 
REMARK  119  A    between atoms: C_166  and  C_125 
REMARK  120  A    between atoms: C_125  and  N_264 
REMARK  121  A    between atoms: C_167  and  C_126 
REMARK  122  A    between atoms: C_126  and  N_224 
REMARK  123  A    between atoms: C_168  and  C_127 
REMARK  124  A    between atoms: C_127  and  N_250 
REMARK  125  A    between atoms: C_180  and  C_128 
REMARK  126  A    between atoms: C_128  and  N_266 
REMARK  127  A    between atoms: C_129  and  C_171 
REMARK  128  A    between atoms: C_130  and  C_173 
REMARK  129  A    between atoms: C_131  and  C_172 
REMARK  130  A    between atoms: C_132  and  C_174 
REMARK  131  A    between atoms: N_187  and  C_133 
REMARK  132  A    between atoms: O_286  and  C_133 
REMARK  133  A    between atoms: N_189  and  C_134 
REMARK  134  A    between atoms: O_287  and  C_134 
REMARK  135  A    between atoms: O_288  and  C_135 
REMARK  136  A    between atoms: N_192  and  C_136 
REMARK  137  A    between atoms: O_289  and  C_136 
REMARK  138  A    between atoms: N_194  and  C_137 
REMARK  139  A    between atoms: O_290  and  C_137 
REMARK  140  A    between atoms: N_224  and  C_138 
REMARK  141  A    between atoms: C_138  and  O_291 
REMARK  142  A    between atoms: O_293  and  C_139 
REMARK  143  A    between atoms: O_295  and  C_140 
REMARK  144  A    between atoms: O_297  and  C_141 
REMARK  145  A    between atoms: O_299  and  C_142 
REMARK  146  A    between atoms: C_175  and  C_143 
REMARK  147  A    between atoms: C_143  and  N_268 
REMARK  148  A    between atoms: C_176  and  C_144 
REMARK  149  A    between atoms: C_144  and  N_270 
REMARK  150  A    between atoms: C_177  and  C_145 
REMARK  151  A    between atoms: C_145  and  N_272 
REMARK  152  A    between atoms: C_181  and  C_146 
REMARK  153  A    between atoms: C_146  and  N_274 
REMARK  154  A    between atoms: N_196  and  C_147 
REMARK  155  A    between atoms: O_300  and  C_147 
REMARK  156  A    between atoms: N_216  and  C_148 
REMARK  157  A    between atoms: C_148  and  O_301 
REMARK  158  A    between atoms: N_226  and  C_149 
REMARK  159  A    between atoms: C_149  and  O_302 
REMARK  160  A    between atoms: N_250  and  C_150 
REMARK  161  A    between atoms: C_150  and  O_303 
REMARK  162  A    between atoms: N_274  and  C_151 
REMARK  163  A    between atoms: C_151  and  O_304 
REMARK  164  A    between atoms: N_218  and  C_152 
REMARK  165  A    between atoms: C_152  and  O_305 
REMARK  166  A    between atoms: N_228  and  C_153 
REMARK  167  A    between atoms: C_153  and  O_306 
REMARK  168  A    between atoms: N_234  and  C_154 
REMARK  169  A    between atoms: C_154  and  O_307 
REMARK  170  A    between atoms: N_248  and  C_155 
REMARK  171  A    between atoms: C_155  and  O_308 
REMARK  172  A    between atoms: N_258  and  C_156 
REMARK  173  A    between atoms: C_156  and  O_309 
REMARK  174  A    between atoms: N_230  and  C_157 
REMARK  175  A    between atoms: C_157  and  O_310 
REMARK  176  A    between atoms: N_238  and  C_158 
REMARK  177  A    between atoms: C_158  and  O_311 
REMARK  178  A    between atoms: N_236  and  C_159 
REMARK  179  A    between atoms: C_159  and  O_312 
REMARK  180  A    between atoms: N_256  and  C_160 
REMARK  181  A    between atoms: C_160  and  O_313 
REMARK  182  A    between atoms: N_252  and  C_161 
REMARK  183  A    between atoms: N_220  and  C_162 
REMARK  184  A    between atoms: C_162  and  O_315 
REMARK  185  A    between atoms: N_222  and  C_163 
REMARK  186  A    between atoms: C_163  and  O_316 
REMARK  187  A    between atoms: N_232  and  C_164 
REMARK  188  A    between atoms: C_164  and  O_317 
REMARK  189  A    between atoms: N_246  and  C_165 
REMARK  190  A    between atoms: C_165  and  O_318 
REMARK  191  A    between atoms: N_240  and  C_166 
REMARK  192  A    between atoms: C_166  and  O_319 
REMARK  193  A    between atoms: N_260  and  C_167 
REMARK  194  A    between atoms: C_167  and  O_320 
REMARK  195  A    between atoms: N_254  and  C_168 
REMARK  196  A    between atoms: C_168  and  O_321 
REMARK  197  A    between atoms: N_272  and  C_169 
REMARK  198  A    between atoms: C_169  and  O_322 
REMARK  199  A    between atoms: N_270  and  C_170 
REMARK  200  A    between atoms: C_170  and  O_323 
REMARK  201  A    between atoms: N_214  and  C_171 
REMARK  202  A    between atoms: O_324  and  C_171 
REMARK  203  A    between atoms: N_242  and  C_172 
REMARK  204  A    between atoms: C_172  and  O_325 
REMARK  205  A    between atoms: N_262  and  C_173 
REMARK  206  A    between atoms: C_173  and  O_326 
REMARK  207  A    between atoms: N_268  and  C_174 
REMARK  208  A    between atoms: C_174  and  O_327 
REMARK  209  A    between atoms: N_266  and  C_175 
REMARK  210  A    between atoms: C_175  and  O_328 
REMARK  211  A    between atoms: N_264  and  C_176 
REMARK  212  A    between atoms: C_176  and  O_329 
REMARK  213  A    between atoms: N_244  and  C_177 
REMARK  214  A    between atoms: C_177  and  O_330 
REMARK       I    between atoms: N_276  and  C_178 
REMARK       I    between atoms: N_278  and  C_179 
REMARK       I    between atoms: N_277  and  C_180 
REMARK       I    between atoms: N_279  and  C_181 
REMARK       I    between atoms: N_198  and  C_182 
REMARK       I    between atoms: N_200  and  C_182 
REMARK       I    between atoms: N_210  and  C_182 
REMARK       I    between atoms: N_201  and  C_183 
REMARK       I    between atoms: N_203  and  C_183 
REMARK       I    between atoms: N_211  and  C_183 
REMARK       I    between atoms: N_204  and  C_184 
REMARK       I    between atoms: N_206  and  C_184 
REMARK       I    between atoms: N_212  and  C_184 
REMARK       I    between atoms: N_207  and  C_185 
REMARK       I    between atoms: N_209  and  C_185 
REMARK       I    between atoms: N_213  and  C_185 
ROOT
HETATM    1  C   UNK N   1      -4.003  10.785  -0.124  0.00  0.00     0.181 C 
HETATM    2  N   UNK N   1      -4.021  11.001   1.137  0.00  0.00    -0.438 NA
HETATM    3  H   UNK N   1      -3.885  11.096   2.108  0.00  0.00     0.269 HD
ENDROOT
BRANCH   1   4
HETATM    4  C   UNK N   1      -5.285  10.694  -0.873  0.00  0.00     0.102 C 
BRANCH   4   5
HETATM    5  C   UNK N   1      -5.398   9.355  -1.564  0.00  0.00     0.042 C 
BRANCH   5   6
HETATM    6  C   UNK N   1      -5.750   8.205  -0.630  0.00  0.00     0.158 C 
BRANCH   6   7
HETATM    7  C   UNK N   1      -4.606   7.806   0.257  0.00  0.00     0.135 C 
BRANCH   7   8
HETATM    8  N   UNK N   1      -3.447   7.587  -0.264  0.00  0.00    -0.361 N 
ATOM      9  HN  UNK N   1      -3.205   8.004  -1.163  1.00  0.00     0.162 HD
BRANCH   8  10
HETATM   10  C   UNK N   1      -2.498   6.756   0.421  0.00  0.00     0.158 C 
BRANCH  10  11
HETATM   11  C   UNK N   1      -1.070   7.113   0.080  0.00  0.00     0.043 C 
BRANCH  11  12
HETATM   12  C   UNK N   1      -0.222   6.846   1.304  0.00  0.00     0.076 C 
BRANCH  12  13
HETATM   13  S   UNK N   1       1.486   6.545   0.813  0.00  0.00    -0.173 SA
HETATM   14  C   UNK N   1       1.549   5.028   1.807  0.00  0.00     0.089 C 
ENDBRANCH  12  13
ENDBRANCH  11  12
ENDBRANCH  10  11
BRANCH  10  15
HETATM   15  C   UNK N   1      -2.845   5.373  -0.044  0.00  0.00     0.135 C 
BRANCH  15  16
HETATM   16  N   UNK N   1      -2.526   4.334   0.643  0.00  0.00    -0.361 N 
ATOM     17  HN  UNK N   1      -1.870   4.430   1.419  1.00  0.00     0.162 HD
BRANCH  16  18
HETATM   18  C   UNK N   1      -3.080   3.027   0.334  0.00  0.00     0.153 C 
HETATM   19  C   UNK N   1      -4.578   3.054   0.486  0.00  0.00     0.041 C 
BRANCH  18  20
HETATM   20  C   UNK N   1      -2.675   2.451  -1.009  0.00  0.00     0.135 C 
BRANCH  20  21
HETATM   21  N   UNK N   1      -2.140   1.288  -1.087  0.00  0.00    -0.361 N 
ATOM     22  HN  UNK N   1      -1.858   0.957  -2.010  1.00  0.00     0.162 HD
BRANCH  21  23
HETATM   23  C   UNK N   1      -1.907   0.412   0.039  0.00  0.00     0.158 C 
BRANCH  23  24
HETATM   24  C   UNK N   1      -0.985   0.947   1.153  0.00  0.00     0.041 C 
BRANCH  24  25
HETATM   25  C   UNK N   1      -0.271   2.262   0.837  0.00  0.00     0.086 C 
BRANCH  25  26
HETATM   26  C   UNK N   1       0.777   2.195  -0.224  0.00  0.00     0.108 C 
BRANCH  26  27
HETATM   27  N   UNK N   1       0.510   1.786  -1.408  0.00  0.00    -0.384 N 
HETATM   28  H   UNK N   1       0.135   1.806  -2.318  0.00  0.00     0.157 HD
ATOM     29  HN  UNK N   1       0.971   0.876  -1.408  1.00  0.00     0.157 HD
ENDBRANCH  26  27
BRANCH  26  30
HETATM   30  O   UNK N   1       1.985   2.692   0.042  0.00  0.00    -0.350 OA
HETATM   31  H   UNK N   1       2.712   2.132   0.229  0.00  0.00     0.219 HD
ENDBRANCH  26  30
ENDBRANCH  25  26
ENDBRANCH  24  25
ENDBRANCH  23  24
BRANCH  23  32
HETATM   32  C   UNK N   1      -3.193  -0.246   0.508  0.00  0.00     0.135 C 
BRANCH  32  33
HETATM   33  N   UNK N   1      -3.444  -1.470   0.200  0.00  0.00    -0.360 N 
ATOM     34  HN  UNK N   1      -4.334  -1.891   0.468  1.00  0.00     0.162 HD
BRANCH  33  35
HETATM   35  C   UNK N   1      -2.469  -2.244  -0.521  0.00  0.00     0.162 C 
BRANCH  35  36
HETATM   36  C   UNK N   1      -2.998  -3.117  -1.650  0.00  0.00     0.072 C 
BRANCH  36  37
HETATM   37  C   UNK N   1      -3.845  -4.174  -1.068  0.00  0.00    -0.056 A 
HETATM   38  C   UNK N   1      -5.109  -3.851  -0.568  0.00  0.00     0.010 A 
HETATM   39  C   UNK N   1      -5.858  -4.816   0.099  0.00  0.00     0.037 A 
HETATM   40  C   UNK N   1      -5.336  -6.100   0.275  0.00  0.00     0.065 A 
HETATM   41  C   UNK N   1      -4.078  -6.427  -0.241  0.00  0.00     0.037 A 
HETATM   42  C   UNK N   1      -3.329  -5.461  -0.912  0.00  0.00     0.010 A 
BRANCH  40  43
HETATM   43  O   UNK N   1      -6.044  -7.020   0.946  0.00  0.00    -0.361 OA
HETATM   44  H   UNK N   1      -6.848  -6.914   1.415  0.00  0.00     0.217 HD
ENDBRANCH  40  43
ENDBRANCH  36  37
ENDBRANCH  35  36
BRANCH  35  45
HETATM   45  C   UNK N   1      -1.432  -2.794   0.402  0.00  0.00     0.135 C 
BRANCH  45  46
HETATM   46  N   UNK N   1      -1.088  -2.069   1.424  0.00  0.00    -0.361 N 
ATOM     47  HN  UNK N   1      -1.726  -1.323   1.700  1.00  0.00     0.162 HD
BRANCH  46  48
HETATM   48  C   UNK N   1       0.117  -2.225   2.204  0.00  0.00     0.153 C 
HETATM   49  C   UNK N   1       0.319  -3.651   2.695  0.00  0.00     0.041 C 
BRANCH  48  50
HETATM   50  C   UNK N   1       1.231  -1.776   1.322  0.00  0.00     0.135 C 
BRANCH  50  51
HETATM   51  N   UNK N   1       1.302  -2.291   0.143  0.00  0.00    -0.361 N 
ATOM     52  HN  UNK N   1       0.571  -2.958  -0.104  1.00  0.00     0.162 HD
BRANCH  51  53
HETATM   53  C   UNK N   1       2.287  -2.032  -0.852  0.00  0.00     0.153 C 
HETATM   54  C   UNK N   1       2.408  -0.565  -1.224  0.00  0.00     0.041 C 
BRANCH  53  55
HETATM   55  C   UNK N   1       3.554  -2.608  -0.401  0.00  0.00     0.135 C 
BRANCH  55  56
HETATM   56  N   UNK N   1       4.026  -3.613  -1.027  0.00  0.00    -0.360 N 
ATOM     57  HN  UNK N   1       3.462  -4.089  -1.732  1.00  0.00     0.162 HD
BRANCH  56  58
HETATM   58  C   UNK N   1       5.343  -4.070  -0.739  0.00  0.00     0.167 C 
BRANCH  58  59
HETATM   59  C   UNK N   1       5.425  -5.456  -0.085  0.00  0.00     0.143 C 
BRANCH  59  60
HETATM   60  C   UNK N   1       4.509  -6.499  -0.637  0.00  0.00     0.141 C 
HETATM   61  O   UNK N   1       4.728  -6.997  -1.728  0.00  0.00    -0.650 OA
BRANCH  60  62
HETATM   62  O   UNK N   1       3.479  -6.941   0.110  0.00  0.00    -0.776 OA
HETATM   63  H   UNK N   1       2.854  -6.475   0.629  0.00  0.00     0.167 HD
ENDBRANCH  60  62
ENDBRANCH  59  60
ENDBRANCH  58  59
BRANCH  58  64
HETATM   64  C   UNK N   1       6.150  -3.760  -1.953  0.00  0.00     0.136 C 
BRANCH  64  65
HETATM   65  N   UNK N   1       7.005  -2.794  -1.938  0.00  0.00    -0.361 N 
ATOM     66  HN  UNK N   1       7.440  -2.523  -2.819  1.00  0.00     0.162 HD
BRANCH  65  67
HETATM   67  C   UNK N   1       7.384  -2.070  -0.734  0.00  0.00     0.158 C 
BRANCH  67  68
HETATM   68  C   UNK N   1       8.052  -2.928   0.355  0.00  0.00     0.037 C 
BRANCH  68  69
HETATM   69  C   UNK N   1       8.728  -4.177  -0.209  0.00  0.00    -0.020 C 
HETATM   70  C   UNK N   1       9.715  -3.854  -1.317  0.00  0.00     0.009 C 
HETATM   71  C   UNK N   1       9.417  -4.946   0.895  0.00  0.00     0.009 C 
ENDBRANCH  68  69
ENDBRANCH  67  68
BRANCH  67  72
HETATM   72  C   UNK N   1       6.535  -0.908  -0.262  0.00  0.00     0.135 C 
BRANCH  72  73
HETATM   73  N   UNK N   1       6.747  -0.475   0.932  0.00  0.00    -0.361 N 
ATOM     74  HN  UNK N   1       7.403  -1.062   1.448  1.00  0.00     0.162 HD
BRANCH  73  75
HETATM   75  C   UNK N   1       6.274   0.652   1.718  0.00  0.00     0.158 C 
BRANCH  75  76
HETATM   76  C   UNK N   1       5.697   1.902   1.040  0.00  0.00     0.035 C 
BRANCH  76  77
HETATM   77  C   UNK N   1       4.476   1.808   0.185  0.00  0.00     0.023 C 
BRANCH  77  78
HETATM   78  C   UNK N   1       4.665   2.515  -1.172  0.00  0.00     0.138 C 
BRANCH  78  79
HETATM   79  N   UNK N   1       5.596   3.630  -1.157  0.00  0.00    -0.227 N 
HETATM   80  C   UNK N   1       5.283   4.906  -0.628  0.00  0.00     0.665 C 
HETATM   81  N   UNK N   1       6.139   5.858  -0.704  0.00  0.00    -0.235 N 
HETATM   82  N   UNK N   1       4.025   5.147  -0.052  0.00  0.00    -0.235 N 
HETATM   83  H   UNK N   1       7.100   5.654  -0.762  0.00  0.00     0.174 HD
ATOM     84  HN  UNK N   1       5.823   6.827  -0.704  1.00  0.00     0.174 HD
HETATM   85  H   UNK N   1       3.731   5.996   0.352  0.00  0.00     0.174 HD
HETATM   86  H   UNK N   1       3.381   4.403  -0.052  0.00  0.00     0.174 HD
HETATM   87  H   UNK N   1       6.494   3.490  -1.535  0.00  0.00     0.177 HD
ENDBRANCH  78  79
ENDBRANCH  77  78
ENDBRANCH  76  77
ENDBRANCH  75  76
BRANCH  75  88
HETATM   88  C   UNK N   1       7.531   1.127   2.359  0.00  0.00     0.135 C 
BRANCH  88  89
HETATM   89  N   UNK N   1       8.423   1.792   1.700  0.00  0.00    -0.361 N 
ATOM     90  HN  UNK N   1       9.293   1.986   2.196  1.00  0.00     0.162 HD
BRANCH  89  91
HETATM   91  C   UNK N   1       8.336   2.302   0.327  0.00  0.00     0.158 C 
BRANCH  91  92
HETATM   92  C   UNK N   1       8.223   3.808   0.235  0.00  0.00     0.035 C 
BRANCH  92  93
HETATM   93  C   UNK N   1       9.561   4.455  -0.004  0.00  0.00     0.023 C 
BRANCH  93  94
HETATM   94  C   UNK N   1       9.738   4.758  -1.478  0.00  0.00     0.138 C 
BRANCH  94  95
HETATM   95  N   UNK N   1      10.902   5.586  -1.678  0.00  0.00    -0.227 N 
HETATM   96  C   UNK N   1      11.001   6.906  -1.156  0.00  0.00     0.665 C 
HETATM   97  N   UNK N   1      10.044   7.411  -0.466  0.00  0.00    -0.235 N 
HETATM   98  N   UNK N   1      12.167   7.664  -1.390  0.00  0.00    -0.235 N 
HETATM   99  H   UNK N   1      10.014   8.241   0.063  0.00  0.00     0.174 HD
ATOM    100  HN  UNK N   1       9.181   6.869  -0.466  1.00  0.00     0.174 HD
HETATM  101  H   UNK N   1      13.032   7.224  -1.554  0.00  0.00     0.174 HD
HETATM  102  H   UNK N   1      12.115   8.648  -1.390  0.00  0.00     0.174 HD
HETATM  103  H   UNK N   1      11.658   5.224  -2.195  0.00  0.00     0.177 HD
ENDBRANCH  94  95
ENDBRANCH  93  94
ENDBRANCH  92  93
ENDBRANCH  91  92
BRANCH  91 104
HETATM  104  C   UNK N   1       8.397   1.491  -0.963  0.00  0.00     0.135 C 
BRANCH 104 105
HETATM  105  N   UNK N   1       9.403   0.778  -1.351  0.00  0.00    -0.360 N 
ATOM    106  HN  UNK N   1       9.300   0.355  -2.273  1.00  0.00     0.162 HD
BRANCH 105 107
HETATM  107  C   UNK N   1      10.649   0.486  -0.684  0.00  0.00     0.162 C 
BRANCH 107 108
HETATM  108  C   UNK N   1      10.509  -0.694   0.265  0.00  0.00     0.072 C 
BRANCH 108 109
HETATM  109  C   UNK N   1      11.547  -1.757   0.066  0.00  0.00    -0.056 A 
HETATM  110  C   UNK N   1      11.726  -2.712   1.071  0.00  0.00     0.010 A 
HETATM  111  C   UNK N   1      12.607  -3.780   0.881  0.00  0.00     0.037 A 
HETATM  112  C   UNK N   1      13.306  -3.904  -0.322  0.00  0.00     0.065 A 
HETATM  113  C   UNK N   1      13.142  -2.947  -1.328  0.00  0.00     0.037 A 
HETATM  114  C   UNK N   1      12.262  -1.877  -1.137  0.00  0.00     0.010 A 
BRANCH 112 115
HETATM  115  O   UNK N   1      14.130  -4.946  -0.514  0.00  0.00    -0.361 OA
HETATM  116  H   UNK N   1      13.788  -5.808  -0.648  0.00  0.00     0.217 HD
ENDBRANCH 112 115
ENDBRANCH 108 109
ENDBRANCH 107 108
BRANCH 107 117
HETATM  117  C   UNK N   1      11.286   1.609   0.042  0.00  0.00     0.135 C 
BRANCH 117 118
HETATM  118  N   UNK N   1      12.407   2.076  -0.342  0.00  0.00    -0.360 N 
ATOM    119  HN  UNK N   1      12.773   1.845  -1.266  1.00  0.00     0.162 HD
BRANCH 118 120
HETATM  120  C   UNK N   1      13.155   2.934   0.543  0.00  0.00     0.161 C 
BRANCH 120 121
HETATM  121  C   UNK N   1      12.602   4.359   0.687  0.00  0.00     0.012 C 
HETATM  122  C   UNK N   1      12.072   4.661   2.079  0.00  0.00     0.012 C 
BRANCH 121 123
HETATM  123  C   UNK N   1      13.633   5.410   0.295  0.00  0.00     0.002 C 
HETATM  124  C   UNK N   1      14.169   5.188  -1.111  0.00  0.00     0.005 C 
ENDBRANCH 121 123
ENDBRANCH 120 121
BRANCH 120 125
HETATM  125  C   UNK N   1      13.567   2.128   1.776  0.00  0.00     0.135 C 
BRANCH 125 126
HETATM  126  N   UNK N   1      14.751   1.672   1.858  0.00  0.00    -0.360 N 
ATOM    127  HN  UNK N   1      14.988   1.019   2.605  1.00  0.00     0.162 HD
BRANCH 126 128
HETATM  128  C   UNK N   1      15.752   2.063   0.919  0.00  0.00     0.165 C 
BRANCH 128 129
HETATM  129  C   UNK N   1      15.509   1.789  -0.587  0.00  0.00     0.117 C 
BRANCH 129 130
HETATM  130  C   UNK N   1      15.195   0.351  -0.939  0.00  0.00     0.111 C 
BRANCH 130 131
HETATM  131  N   UNK N   1      14.997  -0.529  -0.028  0.00  0.00    -0.384 N 
HETATM  132  H   UNK N   1      14.335  -0.735   0.672  0.00  0.00     0.157 HD
ATOM    133  HN  UNK N   1      15.746  -1.221  -0.028  1.00  0.00     0.157 HD
ENDBRANCH 130 131
BRANCH 130 134
HETATM  134  O   UNK N   1      15.148  -0.018  -2.234  0.00  0.00    -0.350 OA
HETATM  135  H   UNK N   1      14.910  -0.117  -3.135  0.00  0.00     0.219 HD
ENDBRANCH 130 134
ENDBRANCH 129 130
ENDBRANCH 128 129
BRANCH 128 136
HETATM  136  C   UNK N   1      16.370   3.365   1.375  0.00  0.00     0.135 C 
BRANCH 136 137
HETATM  137  N   UNK N   1      17.646   3.490   1.446  0.00  0.00    -0.361 N 
ATOM    138  HN  UNK N   1      18.042   4.335   1.859  1.00  0.00     0.162 HD
BRANCH 137 139
HETATM  139  C   UNK N   1      18.531   2.467   0.957  0.00  0.00     0.158 C 
BRANCH 139 140
HETATM  140  C   UNK N   1      18.438   2.536  -0.587  0.00  0.00     0.043 C 
BRANCH 140 141
HETATM  141  C   UNK N   1      19.082   3.761  -1.257  0.00  0.00     0.076 C 
BRANCH 141 142
HETATM  142  S   UNK N   1      18.425   5.378  -0.736  0.00  0.00    -0.173 SA
HETATM  143  C   UNK N   1      20.047   5.904  -0.109  0.00  0.00     0.089 C 
ENDBRANCH 141 142
ENDBRANCH 140 141
ENDBRANCH 139 140
BRANCH 139 144
HETATM  144  C   UNK N   1      18.183   1.134   1.695  0.00  0.00     0.135 C 
HETATM  145  O   UNK N   1      18.051   1.191   3.033  0.00  0.00    -0.348 OA
HETATM  146  H   UNK N   1      18.039   1.291   3.965  0.00  0.00     0.219 HD
BRANCH 144 147
HETATM  147  N   UNK N   1      17.951  -0.009   1.114  0.00  0.00    -0.361 N 
ATOM    148  HN  UNK N   1      17.576  -0.766   1.685  1.00  0.00     0.162 HD
BRANCH 147 149
HETATM  149  C   UNK N   1      18.189  -0.275  -0.287  0.00  0.00     0.158 C 
BRANCH 149 150
HETATM  150  C   UNK N   1      17.798  -1.686  -0.750  0.00  0.00     0.037 C 
BRANCH 150 151
HETATM  151  C   UNK N   1      17.984  -2.873   0.205  0.00  0.00    -0.020 C 
HETATM  152  C   UNK N   1      18.942  -2.657   1.365  0.00  0.00     0.009 C 
HETATM  153  C   UNK N   1      16.638  -3.308   0.732  0.00  0.00     0.009 C 
ENDBRANCH 150 151
ENDBRANCH 149 150
BRANCH 149 154
HETATM  154  C   UNK N   1      19.621  -0.051  -0.546  0.00  0.00     0.135 C 
BRANCH 154 155
HETATM  155  N   UNK N   1      20.444  -0.087   0.459  0.00  0.00    -0.358 N 
ATOM    156  HN  UNK N   1      20.072  -0.397   1.357  1.00  0.00     0.162 HD
BRANCH 155 157
HETATM  157  C   UNK N   1      21.831   0.275   0.410  0.00  0.00     0.186 C 
BRANCH 157 158
HETATM  158  C   UNK N   1      21.998   1.757   0.682  0.00  0.00     0.144 C 
HETATM  159  C   UNK N   1      21.511   2.122   2.077  0.00  0.00     0.042 C 
BRANCH 158 160
HETATM  160  O   UNK N   1      21.336   2.524  -0.266  0.00  0.00    -0.393 OA
HETATM  161  H   UNK N   1      21.570   3.193  -0.928  0.00  0.00     0.210 HD
ENDBRANCH 158 160
ENDBRANCH 157 158
BRANCH 157 162
HETATM  162  C   UNK N   1      22.399  -0.301  -0.844  0.00  0.00     0.138 C 
BRANCH 162 163
HETATM  163  N   UNK N   1      22.488  -1.576  -0.956  0.00  0.00    -0.361 N 
ATOM    164  HN  UNK N   1      22.621  -1.991  -1.879  1.00  0.00     0.162 HD
BRANCH 163 165
HETATM  165  C   UNK N   1      22.401  -2.438   0.210  0.00  0.00     0.158 C 
BRANCH 165 166
HETATM  166  C   UNK N   1      21.499  -3.652   0.040  0.00  0.00     0.035 C 
BRANCH 166 167
HETATM  167  C   UNK N   1      21.844  -4.538  -1.137  0.00  0.00     0.023 C 
BRANCH 167 168
HETATM  168  C   UNK N   1      21.259  -5.922  -0.905  0.00  0.00     0.138 C 
BRANCH 168 169
HETATM  169  N   UNK N   1      19.815  -5.886  -0.918  0.00  0.00    -0.227 N 
HETATM  170  C   UNK N   1      19.044  -6.289   0.206  0.00  0.00     0.665 C 
HETATM  171  N   UNK N   1      19.615  -6.641   1.300  0.00  0.00    -0.235 N 
HETATM  172  N   UNK N   1      17.636  -6.328   0.110  0.00  0.00    -0.235 N 
HETATM  173  H   UNK N   1      19.601  -7.155   2.139  0.00  0.00     0.174 HD
ATOM    174  HN  UNK N   1      20.512  -6.155   1.300  1.00  0.00     0.174 HD
HETATM  175  H   UNK N   1      17.122  -5.492   0.043  0.00  0.00     0.174 HD
HETATM  176  H   UNK N   1      17.168  -7.194   0.110  0.00  0.00     0.174 HD
HETATM  177  H   UNK N   1      19.351  -5.573  -1.728  0.00  0.00     0.177 HD
ENDBRANCH 168 169
ENDBRANCH 167 168
ENDBRANCH 166 167
ENDBRANCH 165 166
BRANCH 165 178
HETATM  178  C   UNK N   1      23.823  -2.711   0.507  0.00  0.00     0.135 C 
BRANCH 178 179
HETATM  179  N   UNK N   1      24.568  -2.970  -0.512  0.00  0.00    -0.361 N 
ATOM    180  HN  UNK N   1      24.118  -3.393  -1.325  1.00  0.00     0.162 HD
BRANCH 179 181
HETATM  181  C   UNK N   1      25.977  -2.715  -0.600  0.00  0.00     0.158 C 
BRANCH 181 182
HETATM  182  C   UNK N   1      26.895  -3.521   0.319  0.00  0.00     0.041 C 
BRANCH 182 183
HETATM  183  C   UNK N   1      26.210  -4.694   1.003  0.00  0.00     0.086 C 
BRANCH 183 184
HETATM  184  C   UNK N   1      26.996  -5.949   0.846  0.00  0.00     0.108 C 
BRANCH 184 185
HETATM  185  N   UNK N   1      28.220  -6.000   1.222  0.00  0.00    -0.384 N 
HETATM  186  H   UNK N   1      28.656  -6.834   1.512  0.00  0.00     0.157 HD
ATOM    187  HN  UNK N   1      28.766  -5.138   1.222  1.00  0.00     0.157 HD
ENDBRANCH 184 185
BRANCH 184 188
HETATM  188  O   UNK N   1      26.402  -7.045   0.340  0.00  0.00    -0.350 OA
HETATM  189  H   UNK N   1      25.535  -7.069  -0.013  0.00  0.00     0.219 HD
ENDBRANCH 184 188
ENDBRANCH 183 184
ENDBRANCH 182 183
ENDBRANCH 181 182
BRANCH 181 190
HETATM  190  C   UNK N   1      26.224  -1.226  -0.546  0.00  0.00     0.135 C 
BRANCH 190 191
HETATM  191  N   UNK N   1      26.325  -0.637   0.598  0.00  0.00    -0.361 N 
ATOM    192  HN  UNK N   1      26.100  -1.187   1.427  1.00  0.00     0.162 HD
BRANCH 191 193
HETATM  193  C   UNK N   1      26.732   0.739   0.805  0.00  0.00     0.158 C 
BRANCH 193 194
HETATM  194  C   UNK N   1      28.249   0.923   0.765  0.00  0.00     0.035 C 
BRANCH 194 195
HETATM  195  C   UNK N   1      28.845   0.916  -0.645  0.00  0.00     0.023 C 
BRANCH 195 196
HETATM  196  C   UNK N   1      29.099  -0.483  -1.208  0.00  0.00     0.138 C 
BRANCH 196 197
HETATM  197  N   UNK N   1      29.783  -1.336  -0.265  0.00  0.00    -0.227 N 
HETATM  198  C   UNK N   1      31.060  -1.018   0.262  0.00  0.00     0.665 C 
HETATM  199  N   UNK N   1      31.631   0.094  -0.027  0.00  0.00    -0.235 N 
HETATM  200  N   UNK N   1      31.698  -1.925   1.134  0.00  0.00    -0.235 N 
HETATM  201  H   UNK N   1      32.589   0.141  -0.249  0.00  0.00     0.174 HD
ATOM    202  HN  UNK N   1      31.078   0.951  -0.027  1.00  0.00     0.174 HD
HETATM  203  H   UNK N   1      31.373  -2.627   1.742  0.00  0.00     0.174 HD
HETATM  204  H   UNK N   1      32.679  -1.836   1.134  0.00  0.00     0.174 HD
HETATM  205  H   UNK N   1      29.346  -2.170   0.022  0.00  0.00     0.177 HD
ENDBRANCH 196 197
ENDBRANCH 195 196
ENDBRANCH 194 195
ENDBRANCH 193 194
BRANCH 193 206
HETATM  206  C   UNK N   1      25.944   1.860   0.172  0.00  0.00     0.135 C 
BRANCH 206 207
HETATM  207  N   UNK N   1      24.906   2.337   0.780  0.00  0.00    -0.360 N 
ATOM    208  HN  UNK N   1      24.548   1.807   1.575  1.00  0.00     0.162 HD
BRANCH 207 209
HETATM  209  C   UNK N   1      24.197   3.572   0.426  0.00  0.00     0.161 C 
BRANCH 209 210
HETATM  210  C   UNK N   1      24.804   4.799   1.109  0.00  0.00     0.072 C 
BRANCH 210 211
HETATM  211  C   UNK N   1      26.228   4.962   0.727  0.00  0.00    -0.056 A 
HETATM  212  C   UNK N   1      27.222   4.492   1.589  0.00  0.00     0.010 A 
HETATM  213  C   UNK N   1      28.558   4.522   1.191  0.00  0.00     0.037 A 
HETATM  214  C   UNK N   1      28.899   5.021  -0.070  0.00  0.00     0.065 A 
HETATM  215  C   UNK N   1      27.905   5.507  -0.925  0.00  0.00     0.037 A 
HETATM  216  C   UNK N   1      26.567   5.473  -0.530  0.00  0.00     0.010 A 
BRANCH 214 217
HETATM  217  O   UNK N   1      30.182   5.029  -0.460  0.00  0.00    -0.361 OA
HETATM  218  H   UNK N   1      30.635   4.256  -0.734  0.00  0.00     0.217 HD
ENDBRANCH 214 217
ENDBRANCH 210 211
ENDBRANCH 209 210
BRANCH 209 219
HETATM  219  C   UNK N   1      23.788   3.785  -1.020  0.00  0.00     0.132 C 
BRANCH 219 220
HETATM  220  N   UNK N   1      24.074   2.935  -1.933  0.00  0.00    -0.382 N 
HETATM  221  H   UNK N   1      23.618   2.417  -2.635  0.00  0.00     0.158 HD
ATOM    222  HN  UNK N   1      25.074   2.734  -1.933  1.00  0.00     0.158 HD
ENDBRANCH 219 220
BRANCH 219 223
HETATM  223  O   UNK N   1      23.036   4.857  -1.336  0.00  0.00    -0.348 OA
HETATM  224  H   UNK N   1      23.421   5.683  -1.556  0.00  0.00     0.219 HD
ENDBRANCH 219 223
ENDBRANCH 209 219
ENDBRANCH 207 209
ENDBRANCH 206 207
BRANCH 206 225
HETATM  225  O   UNK N   1      26.445   2.470  -0.921  0.00  0.00    -0.348 OA
HETATM  226  H   UNK N   1      26.986   2.381  -1.680  0.00  0.00     0.219 HD
ENDBRANCH 206 225
ENDBRANCH 193 206
ENDBRANCH 191 193
ENDBRANCH 190 191
BRANCH 190 227
HETATM  227  O   UNK N   1      26.345  -0.531  -1.696  0.00  0.00    -0.348 OA
HETATM  228  H   UNK N   1      26.805  -0.363  -2.495  0.00  0.00     0.219 HD
ENDBRANCH 190 227
ENDBRANCH 181 190
ENDBRANCH 179 181
ENDBRANCH 178 179
BRANCH 178 229
HETATM  229  O   UNK N   1      24.345  -2.325   1.690  0.00  0.00    -0.348 OA
HETATM  230  H   UNK N   1      24.758  -2.505   2.512  0.00  0.00     0.219 HD
ENDBRANCH 178 229
ENDBRANCH 165 178
ENDBRANCH 163 165
ENDBRANCH 162 163
BRANCH 162 231
HETATM  231  O   UNK N   1      22.694   0.485  -1.895  0.00  0.00    -0.348 OA
HETATM  232  H   UNK N   1      23.272   0.581  -2.627  0.00  0.00     0.219 HD
ENDBRANCH 162 231
ENDBRANCH 157 162
ENDBRANCH 155 157
ENDBRANCH 154 155
BRANCH 154 233
HETATM  233  O   UNK N   1      20.004   0.335  -1.783  0.00  0.00    -0.348 OA
HETATM  234  H   UNK N   1      20.368   0.239  -2.641  0.00  0.00     0.219 HD
ENDBRANCH 154 233
ENDBRANCH 149 154
ENDBRANCH 147 149
ENDBRANCH 144 147
ENDBRANCH 139 144
ENDBRANCH 137 139
ENDBRANCH 136 137
BRANCH 136 235
HETATM  235  O   UNK N   1      15.596   4.343   1.873  0.00  0.00    -0.348 OA
HETATM  236  H   UNK N   1      15.916   5.152   2.220  0.00  0.00     0.219 HD
ENDBRANCH 136 235
ENDBRANCH 128 136
ENDBRANCH 126 128
ENDBRANCH 125 126
BRANCH 125 237
HETATM  237  O   UNK N   1      12.688   1.800   2.741  0.00  0.00    -0.348 OA
HETATM  238  H   UNK N   1      12.184   2.215   3.413  0.00  0.00     0.219 HD
ENDBRANCH 125 237
ENDBRANCH 120 125
ENDBRANCH 118 120
ENDBRANCH 117 118
BRANCH 117 239
HETATM  239  O   UNK N   1      10.786   2.007   1.214  0.00  0.00    -0.348 OA
HETATM  240  H   UNK N   1      10.852   2.450   2.037  0.00  0.00     0.219 HD
ENDBRANCH 117 239
ENDBRANCH 107 117
ENDBRANCH 105 107
ENDBRANCH 104 105
BRANCH 104 241
HETATM  241  O   UNK N   1       7.364   1.601  -1.812  0.00  0.00    -0.348 OA
HETATM  242  H   UNK N   1       7.069   2.264  -2.405  0.00  0.00     0.219 HD
ENDBRANCH 104 241
ENDBRANCH  91 104
ENDBRANCH  89  91
ENDBRANCH  88  89
BRANCH  88 243
HETATM  243  O   UNK N   1       7.768   0.816   3.647  0.00  0.00    -0.348 OA
HETATM  244  H   UNK N   1       7.663   0.564   4.544  0.00  0.00     0.219 HD
ENDBRANCH  88 243
ENDBRANCH  75  88
ENDBRANCH  73  75
ENDBRANCH  72  73
BRANCH  72 245
HETATM  245  O   UNK N   1       5.646  -0.323  -1.082  0.00  0.00    -0.348 OA
HETATM  246  H   UNK N   1       5.689   0.417  -1.655  0.00  0.00     0.219 HD
ENDBRANCH  72 245
ENDBRANCH  67  72
ENDBRANCH  65  67
ENDBRANCH  64  65
BRANCH  64 247
HETATM  247  O   UNK N   1       5.906  -4.411  -3.106  0.00  0.00    -0.348 OA
HETATM  248  H   UNK N   1       5.429  -4.491  -3.908  0.00  0.00     0.219 HD
ENDBRANCH  64 247
ENDBRANCH  58  64
ENDBRANCH  56  58
ENDBRANCH  55  56
BRANCH  55 249
HETATM  249  O   UNK N   1       4.201  -2.082   0.659  0.00  0.00    -0.348 OA
HETATM  250  H   UNK N   1       4.741  -2.289   1.396  0.00  0.00     0.219 HD
ENDBRANCH  55 249
ENDBRANCH  53  55
ENDBRANCH  51  53
ENDBRANCH  50  51
BRANCH  50 251
HETATM  251  O   UNK N   1       2.078  -0.805   1.725  0.00  0.00    -0.348 OA
HETATM  252  H   UNK N   1       2.956  -0.978   2.004  0.00  0.00     0.219 HD
ENDBRANCH  50 251
ENDBRANCH  48  50
ENDBRANCH  46  48
ENDBRANCH  45  46
BRANCH  45 253
HETATM  253  O   UNK N   1      -0.765  -3.922   0.074  0.00  0.00    -0.348 OA
HETATM  254  H   UNK N   1      -1.211  -4.714  -0.154  0.00  0.00     0.219 HD
ENDBRANCH  45 253
ENDBRANCH  35  45
ENDBRANCH  33  35
ENDBRANCH  32  33
BRANCH  32 255
HETATM  255  O   UNK N   1      -4.080   0.435   1.250  0.00  0.00    -0.348 OA
HETATM  256  H   UNK N   1      -3.979   1.209   1.768  0.00  0.00     0.219 HD
ENDBRANCH  32 255
ENDBRANCH  23  32
ENDBRANCH  21  23
ENDBRANCH  20  21
BRANCH  20 257
HETATM  257  O   UNK N   1      -2.893   3.125  -2.152  0.00  0.00    -0.348 OA
HETATM  258  H   UNK N   1      -2.563   3.492  -2.949  0.00  0.00     0.219 HD
ENDBRANCH  20 257
ENDBRANCH  18  20
ENDBRANCH  16  18
ENDBRANCH  15  16
BRANCH  15 259
HETATM  259  O   UNK N   1      -3.658   5.248  -1.118  0.00  0.00    -0.348 OA
HETATM  260  H   UNK N   1      -4.014   5.692  -1.861  0.00  0.00     0.219 HD
ENDBRANCH  15 259
ENDBRANCH  10  15
ENDBRANCH   8  10
ENDBRANCH   7   8
BRANCH   7 261
HETATM  261  O   UNK N   1      -4.855   7.478   1.544  0.00  0.00    -0.348 OA
HETATM  262  H   UNK N   1      -5.139   7.513   2.437  0.00  0.00     0.219 HD
ENDBRANCH   7 261
ENDBRANCH   6   7
BRANCH   6 263
HETATM  263  N   UNK N   1      -6.081   7.096  -1.496  0.00  0.00    -0.361 N 
ATOM    264  HN  UNK N   1      -5.949   7.242  -2.497  1.00  0.00     0.162 HD
BRANCH 263 265
HETATM  265  C   UNK N   1      -6.526   5.939  -1.136  0.00  0.00     0.135 C 
BRANCH 265 266
HETATM  266  C   UNK N   1      -6.780   5.545   0.306  0.00  0.00     0.158 C 
BRANCH 266 267
HETATM  267  C   UNK N   1      -7.760   6.460   1.055  0.00  0.00     0.044 C 
BRANCH 267 268
HETATM  268  C   UNK N   1      -9.108   6.634   0.371  0.00  0.00     0.112 C 
BRANCH 268 269
HETATM  269  C   UNK N   1      -9.109   7.869  -0.467  0.00  0.00     0.139 C 
HETATM  270  O   UNK N   1      -9.506   7.825  -1.619  0.00  0.00    -0.650 OA
BRANCH 269 271
HETATM  271  O   UNK N   1      -8.683   9.037   0.052  0.00  0.00    -0.776 OA
HETATM  272  H   UNK N   1      -7.831   9.187   0.412  0.00  0.00     0.167 HD
ENDBRANCH 269 271
ENDBRANCH 268 269
ENDBRANCH 267 268
ENDBRANCH 266 267
BRANCH 266 273
HETATM  273  N   UNK N   1      -7.172   4.155   0.265  0.00  0.00    -0.361 N 
ATOM    274  HN  UNK N   1      -6.707   3.604  -0.456  1.00  0.00     0.162 HD
BRANCH 273 275
HETATM  275  C   UNK N   1      -8.006   3.500   0.982  0.00  0.00     0.135 C 
BRANCH 275 276
HETATM  276  C   UNK N   1      -8.275   2.088   0.607  0.00  0.00     0.161 C 
HETATM  277  C   UNK N   1      -7.023   1.236   0.510  0.00  0.00     0.035 C 
HETATM  278  C   UNK N   1      -6.836   0.917  -0.974  0.00  0.00     0.022 C 
HETATM  279  C   UNK N   1      -8.150   1.255  -1.664  0.00  0.00     0.127 C 
HETATM  280  N   UNK N   1      -8.909   1.980  -0.685  0.00  0.00    -0.338 N 
HETATM  281  C   UNK N   1     -10.171   2.446  -0.938  0.00  0.00     0.245 C 
HETATM  282  O   UNK N   1     -10.683   2.254  -2.033  0.00  0.00    -0.271 OA
BRANCH 281 283
HETATM  283  C   UNK N   1     -10.922   3.247   0.117  0.00  0.00     0.204 C 
BRANCH 283 284
HETATM  284  C   UNK N   1     -11.657   4.442  -0.505  0.00  0.00     0.146 C 
HETATM  285  C   UNK N   1     -12.121   5.413   0.564  0.00  0.00     0.042 C 
BRANCH 284 286
HETATM  286  O   UNK N   1     -12.766   4.007  -1.237  0.00  0.00    -0.393 OA
HETATM  287  H   UNK N   1     -13.412   4.522  -1.745  0.00  0.00     0.210 HD
ENDBRANCH 284 286
ENDBRANCH 283 284
BRANCH 283 288
HETATM  288  N   UNK N   1     -11.816   2.518   1.012  0.00  0.00    -0.357 N 
ATOM    289  HN  UNK N   1     -12.734   2.938   1.160  1.00  0.00     0.162 HD
BRANCH 288 290
HETATM  290  C   UNK N   1     -11.596   1.409   1.644  0.00  0.00     0.135 C 
BRANCH 290 291
HETATM  291  C   UNK N   1     -10.381   0.569   1.407  0.00  0.00     0.153 C 
HETATM  292  C   UNK N   1      -9.770  -0.026   2.670  0.00  0.00     0.041 C 
BRANCH 291 293
HETATM  293  N   UNK N   1     -10.707  -0.335   0.335  0.00  0.00    -0.361 N 
ATOM    294  HN  UNK N   1     -10.830   0.089  -0.585  1.00  0.00     0.162 HD
BRANCH 293 295
HETATM  295  C   UNK N   1     -10.862  -1.608   0.390  0.00  0.00     0.135 C 
BRANCH 295 296
HETATM  296  C   UNK N   1     -11.598  -2.231  -0.763  0.00  0.00     0.165 C 
BRANCH 296 297
HETATM  297  C   UNK N   1     -12.031  -3.683  -0.519  0.00  0.00     0.117 C 
BRANCH 297 298
HETATM  298  C   UNK N   1     -10.904  -4.607  -0.179  0.00  0.00     0.111 C 
BRANCH 298 299
HETATM  299  N   UNK N   1      -9.946  -4.795  -1.008  0.00  0.00    -0.384 N 
HETATM  300  H   UNK N   1      -9.703  -5.506  -1.645  0.00  0.00     0.157 HD
ATOM    301  HN  UNK N   1      -9.275  -4.027  -1.008  1.00  0.00     0.157 HD
ENDBRANCH 298 299
BRANCH 298 302
HETATM  302  O   UNK N   1     -10.905  -5.248   1.004  0.00  0.00    -0.350 OA
HETATM  303  H   UNK N   1     -11.292  -5.471   1.828  0.00  0.00     0.219 HD
ENDBRANCH 298 302
ENDBRANCH 297 298
ENDBRANCH 296 297
BRANCH 296 304
HETATM  304  N   UNK N   1     -12.784  -1.411  -1.004  0.00  0.00    -0.360 N 
ATOM    305  HN  UNK N   1     -12.966  -1.081  -1.952  1.00  0.00     0.162 HD
BRANCH 304 306
HETATM  306  C   UNK N   1     -13.618  -1.085  -0.060  0.00  0.00     0.136 C 
BRANCH 306 307
HETATM  307  C   UNK N   1     -14.870  -0.326  -0.359  0.00  0.00     0.167 C 
BRANCH 307 308
HETATM  308  C   UNK N   1     -14.703   1.181  -0.415  0.00  0.00     0.143 C 
BRANCH 308 309
HETATM  309  C   UNK N   1     -15.942   1.832   0.125  0.00  0.00     0.141 C 
HETATM  310  O   UNK N   1     -16.326   1.578   1.257  0.00  0.00    -0.650 OA
BRANCH 309 311
HETATM  311  O   UNK N   1     -16.630   2.706  -0.632  0.00  0.00    -0.776 OA
HETATM  312  H   UNK N   1     -16.343   3.426  -1.159  0.00  0.00     0.167 HD
ENDBRANCH 309 311
ENDBRANCH 308 309
ENDBRANCH 307 308
BRANCH 307 313
HETATM  313  N   UNK N   1     -15.561  -0.861  -1.510  0.00  0.00    -0.361 N 
ATOM    314  HN  UNK N   1     -15.802  -0.229  -2.273  1.00  0.00     0.162 HD
BRANCH 313 315
HETATM  315  C   UNK N   1     -15.886  -2.108  -1.612  0.00  0.00     0.130 C 
BRANCH 315 316
HETATM  316  C   UNK N   1     -15.550  -3.123  -0.536  0.00  0.00     0.205 C 
BRANCH 316 317
HETATM  317  N   UNK N   1     -16.010  -2.701   0.778  0.00  0.00    -0.365 N 
ATOM    318  HN  UNK N   1     -16.321  -1.735   0.880  1.00  0.00     0.161 HD
BRANCH 317 319
HETATM  319  C   UNK N   1     -16.056  -3.461   1.830  0.00  0.00     0.135 C 
BRANCH 319 320
HETATM  320  C   UNK N   1     -15.684  -4.940   1.814  0.00  0.00     0.161 C 
HETATM  321  C   UNK N   1     -14.176  -5.101   1.709  0.00  0.00     0.035 C 
HETATM  322  C   UNK N   1     -13.933  -6.128   0.608  0.00  0.00     0.022 C 
HETATM  323  C   UNK N   1     -15.197  -6.146  -0.226  0.00  0.00     0.127 C 
HETATM  324  N   UNK N   1     -16.194  -5.567   0.615  0.00  0.00    -0.338 N 
HETATM  325  C   UNK N   1     -17.503  -5.437   0.254  0.00  0.00     0.243 C 
HETATM  326  O   UNK N   1     -18.317  -4.992   1.034  0.00  0.00    -0.271 OA
BRANCH 325 327
HETATM  327  C   UNK N   1     -17.886  -5.652  -1.198  0.00  0.00     0.180 C 
BRANCH 327 328
HETATM  328  C   UNK N   1     -17.930  -7.121  -1.635  0.00  0.00     0.073 C 
BRANCH 328 329
HETATM  329  C   UNK N   1     -18.809  -8.036  -0.828  0.00  0.00    -0.056 A 
HETATM  330  C   UNK N   1     -20.125  -7.685  -0.528  0.00  0.00     0.010 A 
HETATM  331  C   UNK N   1     -20.957  -8.576   0.159  0.00  0.00     0.037 A 
HETATM  332  C   UNK N   1     -20.486  -9.831   0.532  0.00  0.00     0.065 A 
HETATM  333  C   UNK N   1     -19.170 -10.193   0.234  0.00  0.00     0.037 A 
HETATM  334  C   UNK N   1     -18.332  -9.296  -0.444  0.00  0.00     0.010 A 
BRANCH 332 335
HETATM  335  O   UNK N   1     -21.299 -10.689   1.170  0.00  0.00    -0.361 OA
HETATM  336  H   UNK N   1     -22.102 -10.497   1.614  0.00  0.00     0.217 HD
ENDBRANCH 332 335
ENDBRANCH 328 329
ENDBRANCH 327 328
BRANCH 327 337
HETATM  337  N   UNK N   1     -19.095  -4.941  -1.575  0.00  0.00    -0.359 N 
ATOM    338  HN  UNK N   1     -19.824  -5.478  -2.044  1.00  0.00     0.162 HD
BRANCH 337 339
HETATM  339  C   UNK N   1     -19.327  -3.680  -1.367  0.00  0.00     0.135 C 
BRANCH 339 340
HETATM  340  C   UNK N   1     -20.695  -3.147  -1.690  0.00  0.00     0.161 C 
BRANCH 340 341
HETATM  341  C   UNK N   1     -21.029  -1.698  -1.249  0.00  0.00     0.008 C 
HETATM  342  C   UNK N   1     -21.013  -1.459   0.251  0.00  0.00     0.012 C 
HETATM  343  C   UNK N   1     -20.111  -0.689  -1.918  0.00  0.00     0.012 C 
ENDBRANCH 340 341
BRANCH 340 344
HETATM  344  N   UNK N   1     -21.654  -4.150  -1.270  0.00  0.00    -0.360 N 
ATOM    345  HN  UNK N   1     -22.327  -4.488  -1.957  1.00  0.00     0.162 HD
BRANCH 344 346
HETATM  346  C   UNK N   1     -21.706  -4.643  -0.073  0.00  0.00     0.135 C 
BRANCH 346 347
HETATM  347  C   UNK N   1     -22.511  -5.877   0.198  0.00  0.00     0.161 C 
HETATM  348  C   UNK N   1     -22.937  -6.612  -1.062  0.00  0.00     0.035 C 
HETATM  349  C   UNK N   1     -24.041  -7.546  -0.570  0.00  0.00     0.022 C 
HETATM  350  C   UNK N   1     -24.526  -6.942   0.745  0.00  0.00     0.127 C 
HETATM  351  N   UNK N   1     -23.764  -5.741   0.873  0.00  0.00    -0.338 N 
HETATM  352  C   UNK N   1     -24.313  -4.535   1.216  0.00  0.00     0.243 C 
HETATM  353  O   UNK N   1     -23.596  -3.547   1.319  0.00  0.00    -0.271 OA
BRANCH 352 354
HETATM  354  C   UNK N   1     -25.816  -4.341   1.345  0.00  0.00     0.176 C 
BRANCH 354 355
HETATM  355  C   UNK N   1     -26.581  -5.033   0.203  0.00  0.00     0.045 C 
BRANCH 355 356
HETATM  356  C   UNK N   1     -27.387  -6.253   0.614  0.00  0.00     0.112 C 
BRANCH 356 357
HETATM  357  C   UNK N   1     -27.403  -7.225  -0.530  0.00  0.00     0.139 C 
HETATM  358  O   UNK N   1     -27.071  -8.384  -0.349  0.00  0.00    -0.650 OA
BRANCH 357 359
HETATM  359  O   UNK N   1     -27.751  -6.817  -1.766  0.00  0.00    -0.776 OA
HETATM  360  H   UNK N   1     -27.626  -6.466  -2.626  0.00  0.00     0.167 HD
ENDBRANCH 357 359
ENDBRANCH 356 357
ENDBRANCH 355 356
ENDBRANCH 354 355
BRANCH 354 361
HETATM  361  N   UNK N   1     -26.072  -2.914   1.217  0.00  0.00    -0.359 N 
ATOM    362  HN  UNK N   1     -26.474  -2.414   2.010  1.00  0.00     0.162 HD
BRANCH 361 363
HETATM  363  C   UNK N   1     -25.807  -2.250   0.127  0.00  0.00     0.135 C 
BRANCH 363 364
HETATM  364  C   UNK N   1     -26.094  -0.801   0.043  0.00  0.00     0.158 C 
BRANCH 364 365
HETATM  365  C   UNK N   1     -25.038   0.018   0.764  0.00  0.00     0.037 C 
BRANCH 365 366
HETATM  366  C   UNK N   1     -24.882   1.409   0.156  0.00  0.00    -0.020 C 
HETATM  367  C   UNK N   1     -24.732   1.356  -1.358  0.00  0.00     0.009 C 
HETATM  368  C   UNK N   1     -23.630   2.039   0.729  0.00  0.00     0.009 C 
ENDBRANCH 365 366
ENDBRANCH 364 365
BRANCH 364 369
HETATM  369  N   UNK N   1     -27.426  -0.596   0.541  0.00  0.00    -0.361 N 
ATOM    370  HN  UNK N   1     -27.601  -0.642   1.545  1.00  0.00     0.162 HD
BRANCH 369 371
HETATM  371  C   UNK N   1     -28.395  -0.356  -0.261  0.00  0.00     0.135 C 
BRANCH 371 372
HETATM  372  C   UNK N   1     -29.797  -0.409   0.254  0.00  0.00     0.161 C 
HETATM  373  C   UNK N   1     -30.584   0.781  -0.261  0.00  0.00     0.035 C 
HETATM  374  C   UNK N   1     -31.285   0.285  -1.525  0.00  0.00     0.022 C 
HETATM  375  C   UNK N   1     -31.369  -1.228  -1.390  0.00  0.00     0.127 C 
HETATM  376  N   UNK N   1     -30.453  -1.549  -0.333  0.00  0.00    -0.338 N 
HETATM  377  C   UNK N   1     -30.250  -2.830   0.096  0.00  0.00     0.242 C 
HETATM  378  O   UNK N   1     -29.495  -3.054   1.034  0.00  0.00    -0.271 OA
BRANCH 377 379
HETATM  379  C   UNK N   1     -30.975  -3.977  -0.558  0.00  0.00     0.163 C 
HETATM  380  C   UNK N   1     -29.998  -5.014  -1.070  0.00  0.00     0.041 C 
BRANCH 379 381
HETATM  381  N   UNK N   1     -31.892  -4.595   0.381  0.00  0.00    -0.419 N 
HETATM  382  H   UNK N   1     -32.591  -4.253   1.041  0.00  0.00     0.150 HD
HETATM  383  H   UNK N   1     -31.822  -5.612   0.381  0.00  0.00     0.150 HD
ENDBRANCH 379 381
ENDBRANCH 377 379
ENDBRANCH 371 372
BRANCH 371 384
HETATM  384  O   UNK N   1     -28.167  -0.188  -1.584  0.00  0.00    -0.348 OA
HETATM  385  H   UNK N   1     -27.988  -0.266  -2.501  0.00  0.00     0.219 HD
ENDBRANCH 371 384
ENDBRANCH 369 371
ENDBRANCH 364 369
ENDBRANCH 363 364
BRANCH 363 386
HETATM  386  O   UNK N   1     -25.310  -2.868  -0.969  0.00  0.00    -0.348 OA
HETATM  387  H   UNK N   1     -25.509  -3.380  -1.728  0.00  0.00     0.219 HD
ENDBRANCH 363 386
ENDBRANCH 361 363
ENDBRANCH 354 361
ENDBRANCH 352 354
ENDBRANCH 346 347
BRANCH 346 388
HETATM  388  O   UNK N   1     -20.936  -4.154   0.921  0.00  0.00    -0.348 OA
HETATM  389  H   UNK N   1     -20.374  -4.447   1.612  0.00  0.00     0.219 HD
ENDBRANCH 346 388
ENDBRANCH 344 346
ENDBRANCH 340 344
ENDBRANCH 339 340
BRANCH 339 390
HETATM  390  O   UNK N   1     -18.438  -2.896  -0.731  0.00  0.00    -0.348 OA
HETATM  391  H   UNK N   1     -17.656  -3.159  -0.287  0.00  0.00     0.219 HD
ENDBRANCH 339 390
ENDBRANCH 337 339
ENDBRANCH 327 337
ENDBRANCH 325 327
ENDBRANCH 319 320
BRANCH 319 392
HETATM  392  O   UNK N   1     -16.526  -2.939   2.979  0.00  0.00    -0.348 OA
HETATM  393  H   UNK N   1     -16.375  -2.475   3.779  0.00  0.00     0.219 HD
ENDBRANCH 319 392
ENDBRANCH 317 319
ENDBRANCH 316 317
ENDBRANCH 315 316
BRANCH 315 394
HETATM  394  O   UNK N   1     -16.521  -2.528  -2.722  0.00  0.00    -0.348 OA
HETATM  395  H   UNK N   1     -16.995  -2.291  -3.495  0.00  0.00     0.219 HD
ENDBRANCH 315 394
ENDBRANCH 313 315
ENDBRANCH 307 313
ENDBRANCH 306 307
BRANCH 306 396
HETATM  396  O   UNK N   1     -13.443  -1.526   1.204  0.00  0.00    -0.348 OA
HETATM  397  H   UNK N   1     -13.646  -1.784   2.081  0.00  0.00     0.219 HD
ENDBRANCH 306 396
ENDBRANCH 304 306
ENDBRANCH 296 304
ENDBRANCH 295 296
BRANCH 295 398
HETATM  398  O   UNK N   1     -10.627  -2.303   1.523  0.00  0.00    -0.348 OA
HETATM  399  H   UNK N   1     -10.963  -2.685   2.309  0.00  0.00     0.219 HD
ENDBRANCH 295 398
ENDBRANCH 293 295
ENDBRANCH 291 293
ENDBRANCH 290 291
BRANCH 290 400
HETATM  400  O   UNK N   1     -12.556   0.929   2.456  0.00  0.00    -0.348 OA
HETATM  401  H   UNK N   1     -13.179   1.340   3.022  0.00  0.00     0.219 HD
ENDBRANCH 290 400
ENDBRANCH 288 290
ENDBRANCH 283 288
ENDBRANCH 281 283
ENDBRANCH 275 276
BRANCH 275 402
HETATM  402  O   UNK N   1      -8.668   4.061   2.015  0.00  0.00    -0.348 OA
HETATM  403  H   UNK N   1      -8.560   4.654   2.733  0.00  0.00     0.219 HD
ENDBRANCH 275 402
ENDBRANCH 273 275
ENDBRANCH 266 273
ENDBRANCH 265 266
BRANCH 265 404
HETATM  404  O   UNK N   1      -6.744   5.017  -2.098  0.00  0.00    -0.348 OA
HETATM  405  H   UNK N   1      -7.374   4.829  -2.766  0.00  0.00     0.219 HD
ENDBRANCH 265 404
ENDBRANCH 263 265
ENDBRANCH   6 263
ENDBRANCH   5   6
ENDBRANCH   4   5
ENDBRANCH   1   4
BRANCH   1 406
HETATM  406  O   UNK N   1      -2.829  10.615  -0.762  0.00  0.00    -0.339 OA
HETATM  407  H   UNK N   1      -2.523   9.849  -1.206  0.00  0.00     0.220 HD
ENDBRANCH   1 406
TORSDOF 214
