REMARK  0 active torsions:
REMARK  status: ('A' for Active; 'I' for Inactive)
ROOT
HETATM    1  C   UNK N   1       6.999 -10.177   0.000  0.00  0.00     0.046 A 
HETATM    2  C   UNK N   1       8.365 -10.175   0.000  0.00  0.00     0.274 A 
HETATM    3  N   UNK N   1       8.811  -8.894  -0.000  0.00  0.00    -0.225 N 
HETATM    4  O   UNK N   1       7.747  -8.136  -0.000  0.00  0.00    -0.237 OA
HETATM    5  C   UNK N   1       6.652  -8.870  -0.000  0.00  0.00     0.105 A 
HETATM    6  O   UNK N   1       9.087 -11.156   0.000  0.00  0.00    -0.266 OA
HETATM    7  C   UNK N   1       5.257  -8.374  -0.000  0.00  0.00     0.182 A 
HETATM    8  N   UNK N   1       4.227  -9.431   0.000  0.00  0.00    -0.415 N 
HETATM    9  C   UNK N   1       4.579 -10.873  -0.000  0.00  0.00     0.119 A 
HETATM   10  C   UNK N   1       6.054 -11.307   0.000  0.00  0.00     0.066 A 
HETATM   11  H   UNK N   1       9.749  -8.595  -0.000  0.00  0.00     0.198 HD
HETATM   12  H   UNK N   1       3.243  -9.163   0.000  0.00  0.00     0.153 HD
ENDROOT
TORSDOF 0
