REMARK  9 active torsions:
REMARK  status: ('A' for Active; 'I' for Inactive)
REMARK    1  A    between atoms: C_6  and  N_1 
REMARK    2  A    between atoms: C_7  and  C_2 
REMARK    3  A    between atoms: C_13  and  C_6 
REMARK    4  A    between atoms: N_10  and  C_26 
REMARK    5  A    between atoms: O_27  and  C_14 
REMARK    6  A    between atoms: O_28  and  C_17 
REMARK    7  A    between atoms: O_25  and  C_18 
REMARK    8  A    between atoms: C_29  and  O_25 
REMARK    9  A    between atoms: C_26  and  C_29 
ROOT
HETATM    1  N   UNK N   1       1.384  -1.739  -0.355  0.00  0.00    -0.341 N 
HETATM    2  C   UNK N   1       2.169  -2.775   0.045  0.00  0.00     0.052 A 
HETATM    3  C   UNK N   1       1.352  -3.887   0.301  0.00  0.00    -0.022 A 
HETATM    4  C   UNK N   1       0.051  -3.483   0.062  0.00  0.00     0.002 A 
HETATM    5  C   UNK N   1       0.107  -2.174  -0.354  0.00  0.00     0.046 A 
HETATM    6  C   UNK N   1      -1.053  -1.489  -0.726  0.00  0.00     0.033 A 
HETATM    7  C   UNK N   1      -1.159  -4.172   0.161  0.00  0.00     0.051 A 
HETATM    8  C   UNK N   1      -2.344  -3.484  -0.174  0.00  0.00     0.066 A 
HETATM    9  C   UNK N   1       1.776  -5.250   0.733  0.00  0.00     0.051 C 
HETATM   10  C   UNK N   1      -2.287  -2.148  -0.621  0.00  0.00     0.039 A 
ENDROOT
BRANCH   1  11
HETATM   11  C   UNK N   1       1.937  -0.465  -0.835  0.00  0.00     0.168 C 
BRANCH  11  12
HETATM   12  C   UNK N   1       1.368   0.810  -0.344  0.00  0.00    -0.040 C 
HETATM   13  C   UNK N   1       0.123   0.866   0.271  0.00  0.00     0.011 C 
HETATM   14  C   UNK N   1      -0.578   2.059   0.290  0.00  0.00     0.037 C 
HETATM   15  C   UNK N   1      -0.028   3.213  -0.291  0.00  0.00     0.068 C 
HETATM   16  C   UNK N   1       1.282   3.187  -0.768  0.00  0.00     0.037 C 
HETATM   17  C   UNK N   1       1.970   1.978  -0.814  0.00  0.00     0.011 C 
BRANCH  15  18
HETATM   18  O   UNK N   1      -0.777   4.319  -0.490  0.00  0.00    -0.349 OA
BRANCH  18  19
HETATM   19  C   UNK N   1      -2.156   4.268  -0.530  0.00  0.00     0.206 C 
BRANCH  19  20
HETATM   20  C   UNK N   1      -2.731   4.172   0.881  0.00  0.00     0.299 C 
BRANCH  20  21
HETATM   21  N   UNK N   1      -3.978   3.406   0.940  0.00  0.00     0.090 N 
HETATM   22  C   UNK N   1      -5.004   4.035   0.106  0.00  0.00     0.272 C 
HETATM   23  C   UNK N   1      -6.386   3.586   0.551  0.00  0.00     0.030 C 
HETATM   24  C   UNK N   1      -6.828   2.364  -0.240  0.00  0.00     0.002 C 
HETATM   25  C   UNK N   1      -5.997   1.134   0.098  0.00  0.00     0.002 C 
HETATM   26  C   UNK N   1      -4.564   1.301  -0.382  0.00  0.00     0.030 C 
HETATM   27  C   UNK N   1      -3.703   1.977   0.689  0.00  0.00     0.272 C 
ENDBRANCH  20  21
ENDBRANCH  19  20
ENDBRANCH  18  19
ENDBRANCH  15  18
ENDBRANCH  11  12
ENDBRANCH   1  11
BRANCH   2  28
HETATM   28  C   UNK N   1       3.662  -2.695   0.128  0.00  0.00    -0.009 A 
HETATM   29  C   UNK N   1       4.295  -1.439   0.113  0.00  0.00     0.016 A 
HETATM   30  C   UNK N   1       5.678  -1.315   0.144  0.00  0.00     0.037 A 
HETATM   31  C   UNK N   1       6.466  -2.458   0.183  0.00  0.00     0.065 A 
HETATM   32  C   UNK N   1       5.864  -3.723   0.210  0.00  0.00     0.037 A 
HETATM   33  C   UNK N   1       4.465  -3.842   0.190  0.00  0.00     0.016 A 
BRANCH  31  34
HETATM   34  O   UNK N   1       7.803  -2.341   0.194  0.00  0.00    -0.361 OA
HETATM   35  H   UNK N   1       8.340  -3.108   0.202  0.00  0.00     0.217 HD
ENDBRANCH  31  34
ENDBRANCH   2  28
BRANCH   8  36
HETATM   36  O   UNK N   1      -3.532  -4.102  -0.073  0.00  0.00    -0.361 OA
HETATM   37  H   UNK N   1      -4.319  -3.599  -0.003  0.00  0.00     0.217 HD
ENDBRANCH   8  36
TORSDOF 9
