REMARK  10 active torsions:
REMARK  status: ('A' for Active; 'I' for Inactive)
REMARK    1  A    between atoms: S_1  and  C_17 
REMARK    2  A    between atoms: S_1  and  C_21 
REMARK    3  A    between atoms: S_2  and  N_11 
REMARK    4  A    between atoms: S_2  and  N_12 
REMARK    5  A    between atoms: C_19  and  O_4 
REMARK    6  A    between atoms: O_5  and  C_26 
REMARK    7  A    between atoms: N_11  and  C_27 
REMARK    8  A    between atoms: C_14  and  C_19 
REMARK    9  A    between atoms: C_18  and  C_26 
REMARK   10  A    between atoms: C_23  and  C_27 
ROOT
HETATM    1  O   UNK N   1       2.178  -3.630   0.743  0.00  0.00    -0.279 OA
HETATM    2  N   UNK N   1       3.585  -2.427  -0.531  0.00  0.00    -0.206 NA
HETATM    3  C   UNK N   1       3.490  -1.002  -0.446  0.00  0.00     0.095 A 
HETATM    4  C   UNK N   1       2.082  -1.242   0.313  0.00  0.00     0.120 A 
HETATM    5  C   UNK N   1       4.795  -0.638   0.331  0.00  0.00     0.043 A 
HETATM    6  C   UNK N   1       2.422  -2.666   0.034  0.00  0.00     0.213 A 
HETATM    7  C   UNK N   1       5.497  -1.969   0.516  0.00  0.00     0.013 A 
HETATM    8  C   UNK N   1       4.775  -2.953  -0.008  0.00  0.00     0.105 A 
HETATM    9  C   UNK N   1       4.525   0.075   1.644  0.00  0.00     0.017 C 
ENDROOT
BRANCH   7  10
HETATM   10  S   UNK N   1       7.091  -2.146   1.346  0.00  0.00    -0.125 SA
BRANCH  10  11
HETATM   11  C   UNK N   1       7.938  -0.972   0.248  0.00  0.00     0.071 C 
HETATM   12  C   UNK N   1       8.003   0.406   0.835  0.00  0.00     0.043 C 
HETATM   13  C   UNK N   1       9.120   1.039   0.027  0.00  0.00     0.096 C 
HETATM   14  N   UNK N   1      10.028  -0.045  -0.360  0.00  0.00    -0.414 N 
HETATM   15  C   UNK N   1       9.396  -1.289   0.078  0.00  0.00     0.129 C 
HETATM   16  H   UNK N   1      10.923   0.049  -0.839  0.00  0.00     0.153 HD
BRANCH  13  17
HETATM   17  C   UNK N   1       8.516   1.670  -1.228  0.00  0.00     0.158 C 
BRANCH  17  18
HETATM   18  N   UNK N   1       8.389   3.123  -1.110  0.00  0.00    -0.301 N 
HETATM   19  H   UNK N   1       8.864   3.796  -1.712  0.00  0.00     0.173 HD
BRANCH  18  20
HETATM   20  S   UNK N   1       7.300   3.558   0.223  0.00  0.00     0.312 S 
HETATM   21  O   UNK N   1       8.473   4.551   0.205  0.00  0.00    -0.183 OA
HETATM   22  O   UNK N   1       6.499   3.763  -1.072  0.00  0.00    -0.183 OA
BRANCH  20  23
HETATM   23  N   UNK N   1       6.651   5.197   0.253  0.00  0.00    -0.312 N 
HETATM   24  H   UNK N   1       7.284   5.996   0.271  0.00  0.00     0.170 HD
HETATM   25  H   UNK N   1       5.642   5.346   0.253  0.00  0.00     0.170 HD
ENDBRANCH  20  23
ENDBRANCH  18  20
ENDBRANCH  17  18
ENDBRANCH  13  17
ENDBRANCH  10  11
ENDBRANCH   7  10
BRANCH   8  26
HETATM   26  C   UNK N   1       5.103  -4.401  -0.007  0.00  0.00     0.189 C 
HETATM   27  O   UNK N   1       4.337  -5.197  -0.527  0.00  0.00    -0.645 OA
BRANCH  26  28
HETATM   28  O   UNK N   1       6.240  -4.855   0.554  0.00  0.00    -0.772 OA
HETATM   29  H   UNK N   1       6.362  -5.698   0.945  0.00  0.00     0.167 HD
ENDBRANCH  26  28
ENDBRANCH   8  26
BRANCH   4  30
HETATM   30  C   UNK N   1       0.840  -0.714  -0.407  0.00  0.00     0.128 C 
HETATM   31  C   UNK N   1       0.751   0.790  -0.236  0.00  0.00     0.040 C 
BRANCH  30  32
HETATM   32  O   UNK N   1       0.851  -1.030  -1.767  0.00  0.00    -0.395 OA
HETATM   33  H   UNK N   1       0.664  -1.146  -2.712  0.00  0.00     0.210 HD
ENDBRANCH  30  32
ENDBRANCH   4  30
TORSDOF 10
