REMARK  4 active torsions:
REMARK  status: ('A' for Active; 'I' for Inactive)
REMARK    1  A    between atoms: C_5  and  O_9 
REMARK    2  A    between atoms: O_9  and  C_10 
REMARK    3  A    between atoms: C_15  and  C_16 
REMARK    4  A    between atoms: C_19  and  N_22 
ROOT
HETATM    1  C   UNK N   1       0.596  -1.182  -0.148  0.00  0.00     0.053 A 
HETATM    2  C   UNK N   1       1.814  -1.868  -0.351  0.00  0.00     0.083 A 
HETATM    3  S   UNK N   1       1.391  -3.469  -0.441  0.00  0.00    -0.063 SA
HETATM    4  C   UNK N   1      -0.239  -3.294  -0.221  0.00  0.00     0.164 A 
HETATM    5  N   UNK N   1      -0.527  -1.983  -0.085  0.00  0.00    -0.335 N 
ATOM      6  HN  UNK N   1      -1.472  -1.622   0.050  1.00  0.00     0.168 HD
ENDROOT
BRANCH   1   7
HETATM    7  C   UNK N   1       0.518   0.296  -0.017  0.00  0.00     0.025 A 
HETATM    8  C   UNK N   1       1.703   1.048  -0.024  0.00  0.00     0.016 A 
HETATM    9  C   UNK N   1       1.666   2.438   0.088  0.00  0.00     0.001 A 
HETATM   10  C   UNK N   1       0.442   3.095   0.207  0.00  0.00     0.003 A 
HETATM   11  C   UNK N   1      -0.746   2.362   0.211  0.00  0.00     0.038 A 
HETATM   12  C   UNK N   1      -0.728   0.961   0.101  0.00  0.00     0.088 A 
BRANCH  12  13
HETATM   13  O   UNK N   1      -1.874   0.225   0.080  0.00  0.00    -0.309 OA
BRANCH  13  14
HETATM   14  C   UNK N   1      -3.179   0.607   0.111  0.00  0.00     0.082 A 
HETATM   15  C   UNK N   1      -3.567   1.947   0.273  0.00  0.00     0.038 A 
HETATM   16  C   UNK N   1      -4.919   2.297   0.284  0.00  0.00     0.009 A 
HETATM   17  C   UNK N   1      -5.897   1.312   0.131  0.00  0.00    -0.061 A 
HETATM   18  C   UNK N   1      -7.335   1.685   0.133  0.00  0.00     0.048 C 
HETATM   19  C   UNK N   1      -5.524  -0.023  -0.026  0.00  0.00     0.016 A 
HETATM   20  C   UNK N   1      -4.174  -0.379  -0.035  0.00  0.00    -0.028 A 
HETATM   21  C   UNK N   1      -3.806  -1.812  -0.214  0.00  0.00     0.051 C 
ENDBRANCH  13  14
ENDBRANCH  12  13
ENDBRANCH   1   7
BRANCH   4  22
HETATM   22  N   UNK N   1      -1.245  -4.302  -0.214  0.00  0.00    -0.170 N 
HETATM   23  C   UNK N   1      -1.039  -5.576  -0.151  0.00  0.00     0.675 C 
HETATM   24  N   UNK N   1       0.269  -6.113  -0.003  0.00  0.00    -0.226 N 
HETATM   25  N   UNK N   1      -2.150  -6.457  -0.187  0.00  0.00    -0.226 N 
HETATM   26  C   UNK N   1       0.500  -7.535   0.138  0.00  0.00     0.139 C 
HETATM   27  H   UNK N   1       1.040  -5.500   0.004  0.00  0.00     0.177 HD
HETATM   28  C   UNK N   1      -0.745  -8.262   0.644  0.00  0.00     0.040 C 
HETATM   29  C   UNK N   1      -1.948  -7.887  -0.212  0.00  0.00     0.139 C 
HETATM   30  H   UNK N   1      -3.064  -6.091  -0.194  0.00  0.00     0.177 HD
ATOM     31  HN  UNK N   1      -2.214  -3.990  -0.264  1.00  0.00     0.186 HD
ENDBRANCH   4  22
TORSDOF 4
