REMARK  5 active torsions:
REMARK  status: ('A' for Active; 'I' for Inactive)
REMARK    1  A    between atoms: S_1  and  C_7 
REMARK    2  A    between atoms: O_2  and  C_8 
REMARK    3  A    between atoms: C_6  and  N_5 
REMARK       I    between atoms: N_5  and  C_9 
REMARK    4  A    between atoms: C_6  and  C_7 
REMARK    5  A    between atoms: C_6  and  C_8 
ROOT
HETATM    1  C   UNK N   1       3.092   0.267  -0.000  0.00  0.00     0.191 C 
ENDROOT
BRANCH   1   2
HETATM    2  N   UNK N   1       4.424   0.861  -0.000  0.00  0.00    -0.346 N 
HETATM    3  C   UNK N   1       5.698   0.401   0.000  0.00  0.00     0.214 C 
HETATM    4  O   UNK N   1       5.965  -0.785  -0.000  0.00  0.00    -0.274 OA
HETATM    5  C   UNK N   1       6.802   1.398   0.000  0.00  0.00     0.117 C 
HETATM    6  H   UNK N   1       4.388   1.845   0.000  0.00  0.00     0.163 HD
ENDBRANCH   1   2
BRANCH   1   7
HETATM    7  C   UNK N   1       2.643  -1.214   0.000  0.00  0.00     0.106 C 
BRANCH   7   8
HETATM    8  S   UNK N   1       3.861  -2.555  -0.000  0.00  0.00    -0.180 SA
HETATM    9  H   UNK N   1       3.446  -3.851  -0.000  0.00  0.00     0.101 HD
ENDBRANCH   7   8
ENDBRANCH   1   7
BRANCH   1  10
HETATM   10  C   UNK N   1       2.015   1.312  -0.000  0.00  0.00     0.164 C 
HETATM   11  O   UNK N   1       2.321   2.496  -0.000  0.00  0.00    -0.648 OA
BRANCH  10  12
HETATM   12  O   UNK N   1       0.715   0.965   0.000  0.00  0.00    -0.775 OA
HETATM   13  H   UNK N   1       0.053   1.628   0.000  0.00  0.00     0.167 HD
ENDBRANCH  10  12
ENDBRANCH   1  10
TORSDOF 5
