REMARK  5 active torsions:
REMARK  status: ('A' for Active; 'I' for Inactive)
REMARK    1  A    between atoms: C_4  and  N_7 
REMARK       I    between atoms: N_7  and  C_8 
REMARK    2  A    between atoms: C_8  and  C_10 
REMARK    3  A    between atoms: C_11  and  C_12 
REMARK    4  A    between atoms: C_22  and  C_23 
REMARK    5  A    between atoms: C_23  and  O_25 
ROOT
HETATM    1  C   UNK N   1      -0.097  -0.553   0.085  0.00  0.00     0.012 A 
HETATM    2  C   UNK N   1       1.272  -0.256   0.082  0.00  0.00     0.025 A 
HETATM    3  C   UNK N   1       1.351   1.122   0.014  0.00  0.00     0.047 A 
HETATM    4  C   UNK N   1       2.560   1.805  -0.042  0.00  0.00     0.054 A 
HETATM    5  C   UNK N   1       3.743   1.057  -0.019  0.00  0.00     0.037 A 
HETATM    6  C   UNK N   1       3.693  -0.342   0.083  0.00  0.00     0.048 A 
HETATM    7  C   UNK N   1       2.466  -1.023   0.137  0.00  0.00     0.049 A 
HETATM    8 Cl   UNK N   1       2.549  -2.763   0.320  0.00  0.00    -0.083 Cl
HETATM    9 Cl   UNK N   1       5.292   1.863  -0.115  0.00  0.00    -0.084 Cl
HETATM   10  N   UNK N   1       0.134   1.693   0.002  0.00  0.00    -0.349 N 
HETATM   11  C   UNK N   1      -0.754   0.680   0.052  0.00  0.00     0.118 A 
HETATM   12  H   UNK N   1      -0.067   2.656  -0.035  0.00  0.00     0.166 HD
ENDROOT
BRANCH   1  13
HETATM   13  C   UNK N   1      -0.823  -1.836   0.068  0.00  0.00     0.020 C 
HETATM   14  C   UNK N   1      -0.266  -3.004  -0.225  0.00  0.00     0.075 C 
BRANCH  14  15
HETATM   15  C   UNK N   1      -1.052  -4.238  -0.268  0.00  0.00     0.245 C 
HETATM   16  N   UNK N   1      -2.399  -4.187  -0.081  0.00  0.00    -0.324 N 
HETATM   17  H   UNK N   1      -2.801  -3.296   0.032  0.00  0.00     0.169 HD
HETATM   18  O   UNK N   1      -0.481  -5.295  -0.487  0.00  0.00    -0.268 OA
BRANCH  16  19
HETATM   19  C   UNK N   1      -3.279  -5.302  -0.035  0.00  0.00     0.035 A 
HETATM   20  C   UNK N   1      -4.657  -5.066   0.015  0.00  0.00     0.029 A 
HETATM   21  C   UNK N   1      -5.554  -6.135   0.088  0.00  0.00     0.002 A 
HETATM   22  C   UNK N   1      -5.076  -7.448   0.122  0.00  0.00     0.000 A 
HETATM   23  C   UNK N   1      -3.701  -7.692   0.078  0.00  0.00     0.002 A 
HETATM   24  C   UNK N   1      -2.806  -6.624   0.000  0.00  0.00     0.029 A 
ENDBRANCH  16  19
ENDBRANCH  14  15
ENDBRANCH   1  13
BRANCH  11  25
HETATM   25  C   UNK N   1      -2.217   0.906   0.044  0.00  0.00     0.194 C 
HETATM   26  O   UNK N   1      -2.996  -0.032   0.101  0.00  0.00    -0.645 OA
BRANCH  25  27
HETATM   27  O   UNK N   1      -2.698   2.162  -0.020  0.00  0.00    -0.772 OA
HETATM   28  H   UNK N   1      -2.108   2.889  -0.065  0.00  0.00     0.167 HD
ENDBRANCH  25  27
ENDBRANCH  11  25
TORSDOF 5
