REMARK  10 active torsions:
REMARK  status: ('A' for Active; 'I' for Inactive)
REMARK    1  A    between atoms: C_32  and  C_11 
REMARK    2  A    between atoms: C_18  and  C_14 
REMARK    3  A    between atoms: C_15  and  C_28 
REMARK    4  A    between atoms: O_53  and  C_18 
REMARK    5  A    between atoms: C_31  and  N_47 
REMARK    6  A    between atoms: C_35  and  O_50 
REMARK    7  A    between atoms: C_37  and  O_56 
REMARK    8  A    between atoms: C_39  and  O_56 
REMARK    9  A    between atoms: O_52  and  C_40 
REMARK   10  A    between atoms: C_41  and  O_53 
ROOT
HETATM    1  C   UNK N   1      -2.462   2.514   1.489  0.00  0.00     0.018 C 
HETATM    2  C   UNK N   1      -4.050  -0.504  -1.929  0.00  0.00     0.020 C 
HETATM    3  C   UNK N   1       0.953  -2.283  -2.175  0.00  0.00     0.020 C 
HETATM    4  C   UNK N   1      -0.618  -3.349   1.945  0.00  0.00     0.029 C 
HETATM    5  C   UNK N   1      -0.573   0.376  -2.166  0.00  0.00     0.049 C 
HETATM    6  C   UNK N   1      -5.863  -2.698   1.741  0.00  0.00     0.052 C 
HETATM    7  C   UNK N   1      -1.103   0.767   0.318  0.00  0.00     0.052 C 
HETATM    8  C   UNK N   1      -2.261   1.806   0.160  0.00  0.00     0.054 C 
HETATM    9  C   UNK N   1      -3.838  -0.230  -0.443  0.00  0.00     0.077 C 
HETATM   10  C   UNK N   1       0.682  -1.991  -0.699  0.00  0.00     0.084 C 
HETATM   11  C   UNK N   1      -0.876  -3.714   0.493  0.00  0.00     0.151 C 
HETATM   12  C   UNK N   1      -4.430  -3.282  -0.249  0.00  0.00     0.168 C 
HETATM   13  C   UNK N   1      -3.589   1.249  -0.286  0.00  0.00     0.136 C 
HETATM   14  C   UNK N   1      -0.675  -2.526  -0.434  0.00  0.00     0.146 C 
HETATM   15  C   UNK N   1      -5.011  -0.715   0.440  0.00  0.00     0.134 C 
HETATM   16  C   UNK N   1       1.048  -0.511  -0.353  0.00  0.00     0.169 C 
HETATM   17  C   UNK N   1      -2.267  -4.236   0.313  0.00  0.00     0.270 C 
HETATM   18  C   UNK N   1      -6.999  -0.915  -0.516  0.00  0.00     0.259 C 
HETATM   19  C   UNK N   1       0.015   0.635  -0.777  0.00  0.00     0.085 C 
HETATM   20  C   UNK N   1      -5.434  -2.245   0.344  0.00  0.00     0.115 C 
HETATM   21  N   UNK N   1      -6.208  -0.061  -0.027  0.00  0.00    -0.342 N 
ATOM     22  HN  UNK N   1      -6.390   0.942   0.029  1.00  0.00     0.164 HD
HETATM   23  O   UNK N   1      -4.488   2.036  -0.553  0.00  0.00    -0.297 OA
HETATM   24  O   UNK N   1      -1.590  -2.134  -1.136  0.00  0.00    -0.297 OA
HETATM   25  O   UNK N   1      -2.438  -5.343  -0.178  0.00  0.00    -0.264 OA
HETATM   26  O   UNK N   1      -3.319  -3.410   0.572  0.00  0.00    -0.312 OA
HETATM   27  O   UNK N   1      -6.589  -2.179  -0.417  0.00  0.00    -0.301 OA
ENDROOT
BRANCH  19  28
HETATM   28  O   UNK N   1       0.816   1.793  -0.804  0.00  0.00    -0.374 OA
BRANCH  28  29
HETATM   29  C   UNK N   1       0.211   2.986  -1.216  0.00  0.00     0.196 C 
BRANCH  29  30
HETATM   30  C   UNK N   1       0.187   3.957  -0.062  0.00  0.00     0.000 C 
HETATM   31  C   UNK N   1       1.266   4.427   0.598  0.00  0.00     0.011 C 
BRANCH  31  32
HETATM   32  C   UNK N   1       2.678   4.019   0.402  0.00  0.00    -0.020 A 
HETATM   33  C   UNK N   1       3.698   4.904   0.748  0.00  0.00     0.026 A 
HETATM   34  C   UNK N   1       5.027   4.552   0.499  0.00  0.00    -0.009 A 
HETATM   35  C   UNK N   1       6.063   5.436   0.793  0.00  0.00     0.014 A 
HETATM   36  C   UNK N   1       5.318   3.298  -0.081  0.00  0.00     0.042 A 
HETATM   37  C   UNK N   1       7.384   5.076   0.507  0.00  0.00     0.001 A 
HETATM   38  C   UNK N   1       7.669   3.833  -0.070  0.00  0.00     0.002 A 
HETATM   39  C   UNK N   1       6.635   2.944  -0.362  0.00  0.00     0.030 A 
HETATM   40  N   UNK N   1       4.316   2.444  -0.376  0.00  0.00    -0.364 N 
HETATM   41  C   UNK N   1       3.028   2.784  -0.147  0.00  0.00     0.099 A 
ATOM     42  HN  UNK N   1       4.533   1.531  -0.776  1.00  0.00     0.165 HD
ENDBRANCH  31  32
ENDBRANCH  29  30
ENDBRANCH  28  29
ENDBRANCH  19  28
BRANCH  16  43
HETATM   43  O   UNK N   1       2.333  -0.200  -0.925  0.00  0.00    -0.349 OA
BRANCH  43  44
HETATM   44  C   UNK N   1       3.496  -0.971  -0.561  0.00  0.00     0.291 C 
HETATM   45  C   UNK N   1       4.019  -0.801   0.896  0.00  0.00     0.206 C 
HETATM   46  C   UNK N   1       5.326  -1.647   1.107  0.00  0.00     0.257 C 
HETATM   47  C   UNK N   1       5.212  -3.046   0.485  0.00  0.00     0.070 C 
HETATM   48  C   UNK N   1       3.834  -3.318  -0.099  0.00  0.00     0.122 C 
HETATM   49  C   UNK N   1       3.866  -4.657  -0.805  0.00  0.00     0.040 C 
HETATM   50  O   UNK N   1       3.445  -2.320  -1.040  0.00  0.00    -0.354 OA
BRANCH  45  51
HETATM   51  O   UNK N   1       3.055  -1.257   1.798  0.00  0.00    -0.388 OA
HETATM   52  H   UNK N   1       2.446  -0.835   2.425  0.00  0.00     0.210 HD
ENDBRANCH  45  51
BRANCH  46  53
HETATM   53  N   UNK N   1       6.588  -1.033   0.641  0.00  0.00     0.087 N 
HETATM   54  C   UNK N   1       6.859   0.230   1.311  0.00  0.00     0.310 C 
HETATM   55  C   UNK N   1       6.687  -0.840  -0.800  0.00  0.00     0.310 C 
ENDBRANCH  46  53
ENDBRANCH  43  44
ENDBRANCH  16  43
BRANCH  12  56
HETATM   56  C   UNK N   1      -5.103  -4.637  -0.557  0.00  0.00     0.031 C 
HETATM   57  C   UNK N   1      -5.492  -5.443   0.669  0.00  0.00     0.007 C 
ENDBRANCH  12  56
BRANCH  18  58
HETATM   58  O   UNK N   1      -8.177  -0.568  -1.079  0.00  0.00    -0.327 OA
HETATM   59  H   UNK N   1      -8.376   0.260  -1.469  0.00  0.00     0.221 HD
ENDBRANCH  18  58
TORSDOF 10
