REMARK  7 active torsions:
REMARK  status: ('A' for Active; 'I' for Inactive)
REMARK    1  A    between atoms: C_3  and  C_13 
REMARK    2  A    between atoms: N_5  and  C_24 
REMARK    3  A    between atoms: C_16  and  C_8 
REMARK    4  A    between atoms: C_13  and  C_14 
REMARK    5  A    between atoms: C_18  and  C_21 
REMARK    6  A    between atoms: C_22  and  C_20 
REMARK    7  A    between atoms: C_24  and  C_25 
ROOT
HETATM    1  C   UNK N   1      -0.874   1.529  -0.398  0.00  0.00     0.125 A 
HETATM    2  C   UNK N   1      -2.089   2.302  -0.634  0.00  0.00     0.192 A 
HETATM    3  C   UNK N   1      -3.432   1.658  -0.326  0.00  0.00     0.154 A 
HETATM    4  C   UNK N   1      -3.337   0.203   0.172  0.00  0.00     0.237 A 
HETATM    5  N   UNK N   1      -2.129  -0.418   0.372  0.00  0.00    -0.301 N 
HETATM    6  C   UNK N   1      -0.926   0.275   0.093  0.00  0.00     0.142 A 
HETATM    7  N   UNK N   1       0.307  -0.234   0.178  0.00  0.00    -0.330 N 
HETATM    8  C   UNK N   1       1.106   0.752  -0.288  0.00  0.00     0.088 A 
HETATM    9  N   UNK N   1       0.406   1.856  -0.663  0.00  0.00    -0.340 N 
ATOM     10  HN  UNK N   1       0.765   2.727  -1.054  1.00  0.00     0.167 HD
HETATM   11  O   UNK N   1      -2.029   3.432  -1.093  0.00  0.00    -0.290 OA
HETATM   12  O   UNK N   1      -4.373  -0.414   0.375  0.00  0.00    -0.272 OA
HETATM   13  H   UNK N   1       0.573  -1.124   0.505  0.00  0.00     0.168 HD
ENDROOT
BRANCH   8  14
HETATM   14  C   UNK N   1       2.568   0.533  -0.569  0.00  0.00     0.060 C 
HETATM   15  C   UNK N   1       3.488   1.651  -0.048  0.00  0.00     0.020 C 
HETATM   16  C   UNK N   1       4.513   0.873   0.782  0.00  0.00     0.018 C 
HETATM   17  C   UNK N   1       3.602  -0.120   1.457  0.00  0.00     0.015 C 
HETATM   18  C   UNK N   1       3.132  -0.711   0.147  0.00  0.00     0.029 C 
BRANCH  16  19
HETATM   19  C   UNK N   1       5.357  -0.002  -0.173  0.00  0.00     0.155 A 
HETATM   20  C   UNK N   1       4.433  -1.070  -0.578  0.00  0.00     0.156 A 
HETATM   21  O   UNK N   1       5.546  -1.340   0.252  0.00  0.00    -0.375 OA
BRANCH  20  22
ENDBRANCH  20  22
ENDBRANCH  16  19
BRANCH  18  22
ENDBRANCH  18  22
ENDBRANCH   8  14
BRANCH   5  22
HETATM   22  C   UNK N   1      -2.073  -1.793   0.830  0.00  0.00     0.133 C 
BRANCH  22  23
HETATM   23  C   UNK N   1      -1.467  -2.689  -0.241  0.00  0.00     0.016 C 
HETATM   24  C   UNK N   1      -0.359  -3.528   0.362  0.00  0.00     0.006 C 
ENDBRANCH  22  23
ENDBRANCH   5  22
BRANCH   3  25
HETATM   25  C   UNK N   1      -4.190   2.521   0.684  0.00  0.00     0.022 C 
BRANCH  25  26
HETATM   26  C   UNK N   1      -5.680   2.206   0.702  0.00  0.00    -0.003 C 
HETATM   27  C   UNK N   1      -6.376   2.875  -0.467  0.00  0.00     0.005 C 
ENDBRANCH  25  26
ENDBRANCH   3  25
TORSDOF 7
