REMARK  11 active torsions:
REMARK  status: ('A' for Active; 'I' for Inactive)
REMARK    1  A    between atoms: C_6  and  C_8 
REMARK    2  A    between atoms: C_8  and  C_9 
REMARK    3  A    between atoms: C_8  and  O_29 
REMARK    4  A    between atoms: C_9  and  N_10 
REMARK    5  A    between atoms: N_10  and  C_11 
REMARK    6  A    between atoms: C_11  and  C_12 
REMARK    7  A    between atoms: C_12  and  N_13 
REMARK    8  A    between atoms: N_13  and  C_14 
REMARK    9  A    between atoms: C_18  and  C_20 
REMARK   10  A    between atoms: C_24  and  C_26 
REMARK   11  A    between atoms: C_26  and  O_28 
ROOT
HETATM    1  N   UNK N   1      -3.472   2.130  -0.197  0.00  0.00    -0.388 N 
HETATM    2  H   UNK N   1      -4.070   2.897  -0.040  0.00  0.00     0.159 HD
ENDROOT
BRANCH   1   3
HETATM    3  C   UNK N   1      -2.090   2.371  -0.558  0.00  0.00     0.139 C 
BRANCH   3   4
HETATM    4  C   UNK N   1      -1.497   3.546   0.206  0.00  0.00     0.133 C 
BRANCH   4   5
HETATM    5  N   UNK N   1      -0.486   3.061   1.137  0.00  0.00    -0.417 N 
HETATM    6  H   UNK N   1      -0.667   2.413   1.903  0.00  0.00     0.153 HD
BRANCH   5   7
HETATM    7  C   UNK N   1       0.826   3.633   0.818  0.00  0.00     0.150 C 
BRANCH   7   8
HETATM    8  C   UNK N   1       1.530   2.916  -0.348  0.00  0.00     0.168 C 
BRANCH   8   9
HETATM    9  C   UNK N   1       3.027   2.866  -0.125  0.00  0.00    -0.026 A 
HETATM   10  C   UNK N   1       3.773   4.049  -0.002  0.00  0.00     0.010 A 
HETATM   11  C   UNK N   1       5.160   3.993   0.190  0.00  0.00     0.002 A 
HETATM   12  C   UNK N   1       5.811   2.756   0.257  0.00  0.00     0.024 A 
HETATM   13  C   UNK N   1       5.076   1.575   0.134  0.00  0.00     0.034 A 
HETATM   14 Cl   UNK N   1       5.884   0.023   0.210  0.00  0.00    -0.084 Cl
HETATM   15  C   UNK N   1       3.694   1.630  -0.056  0.00  0.00     0.033 A 
ENDBRANCH   8   9
BRANCH   8  16
HETATM   16  O   UNK N   1       1.026   1.618  -0.489  0.00  0.00    -0.389 OA
HETATM   17  H   UNK N   1       0.072   1.471  -0.587  0.00  0.00     0.210 HD
ENDBRANCH   8  16
ENDBRANCH   7   8
ENDBRANCH   5   7
ENDBRANCH   4   5
ENDBRANCH   3   4
ENDBRANCH   1   3
BRANCH   1  18
HETATM   18  C   UNK N   1      -3.983   0.810  -0.063  0.00  0.00     0.028 A 
HETATM   19  C   UNK N   1      -5.363   0.595   0.052  0.00  0.00     0.029 A 
HETATM   20  C   UNK N   1      -5.867  -0.711   0.133  0.00  0.00     0.003 A 
HETATM   21  C   UNK N   1      -4.994  -1.807   0.106  0.00  0.00     0.012 A 
HETATM   22  C   UNK N   1      -3.610  -1.600   0.004  0.00  0.00    -0.024 A 
HETATM   23  C   UNK N   1      -3.122  -0.289  -0.084  0.00  0.00     0.041 A 
BRANCH  22  24
HETATM   24  C   UNK N   1      -2.651  -2.728  -0.002  0.00  0.00    -0.025 A 
HETATM   25  C   UNK N   1      -3.082  -4.064   0.026  0.00  0.00     0.012 A 
HETATM   26  C   UNK N   1      -2.144  -5.104   0.027  0.00  0.00     0.002 A 
HETATM   27  C   UNK N   1      -0.774  -4.817   0.009  0.00  0.00     0.018 A 
HETATM   28  C   UNK N   1      -0.335  -3.487  -0.015  0.00  0.00     0.038 A 
HETATM   29  C   UNK N   1      -1.276  -2.456  -0.024  0.00  0.00     0.030 A 
BRANCH  28  30
HETATM   30  C   UNK N   1       1.102  -3.151  -0.020  0.00  0.00     0.176 C 
HETATM   31  O   UNK N   1       1.943  -4.039  -0.009  0.00  0.00    -0.646 OA
BRANCH  30  32
HETATM   32  O   UNK N   1       1.497  -1.864  -0.030  0.00  0.00    -0.773 OA
HETATM   33  H   UNK N   1       2.411  -1.654  -0.037  0.00  0.00     0.167 HD
ENDBRANCH  30  32
ENDBRANCH  28  30
ENDBRANCH  22  24
ENDBRANCH   1  18
TORSDOF 11
