REMARK  8 active torsions:
REMARK  status: ('A' for Active; 'I' for Inactive)
REMARK    1  A    between atoms: N_16  and  C_7 
REMARK    2  A    between atoms: N_17  and  C_8 
REMARK    3  A    between atoms: C_22  and  N_16 
REMARK    4  A    between atoms: C_23  and  N_17 
REMARK    5  A    between atoms: N_19  and  C_25 
REMARK    6  A    between atoms: N_20  and  C_24 
REMARK    7  A    between atoms: C_24  and  C_22 
REMARK    8  A    between atoms: C_25  and  C_23 
ROOT
HETATM    1  C   UNK N   1      -0.179  -0.701  -0.001  0.00  0.00     0.058 A 
HETATM    2  C   UNK N   1      -0.184   0.726   0.005  0.00  0.00     0.058 A 
HETATM    3  C   UNK N   1      -1.483  -1.439   0.003  0.00  0.00     0.198 A 
HETATM    4  C   UNK N   1      -1.492   1.455  -0.001  0.00  0.00     0.196 A 
HETATM    5  C   UNK N   1      -2.760  -0.696   0.002  0.00  0.00     0.044 A 
HETATM    6  C   UNK N   1      -2.766   0.706  -0.003  0.00  0.00     0.032 A 
HETATM    7  C   UNK N   1       1.061  -1.394  -0.019  0.00  0.00     0.043 A 
HETATM    8  C   UNK N   1       1.053   1.426   0.024  0.00  0.00     0.043 A 
HETATM    9  O   UNK N   1      -1.506  -2.662   0.011  0.00  0.00    -0.286 OA
HETATM   10  O   UNK N   1      -1.522   2.679  -0.009  0.00  0.00    -0.286 OA
HETATM   11  N   UNK N   1      -5.157  -0.695   0.000  0.00  0.00    -0.374 N 
ATOM     12  HN  UNK N   1      -6.037  -1.211   0.003  1.00  0.00     0.164 HD
HETATM   13  C   UNK N   1       2.250   0.710   0.023  0.00  0.00     0.032 A 
HETATM   14  C   UNK N   1       2.255  -0.671  -0.016  0.00  0.00     0.032 A 
HETATM   15  C   UNK N   1      -3.983  -1.382   0.004  0.00  0.00     0.104 A 
HETATM   16  C   UNK N   1      -3.989   1.387  -0.009  0.00  0.00     0.033 A 
HETATM   17  C   UNK N   1      -5.183   0.664  -0.008  0.00  0.00     0.088 A 
ENDROOT
BRANCH   7  18
HETATM   18  N   UNK N   1       1.107  -2.817  -0.058  0.00  0.00    -0.388 N 
HETATM   19  H   UNK N   1       0.282  -3.318   0.133  0.00  0.00     0.159 HD
BRANCH  18  20
HETATM   20  C   UNK N   1       2.310  -3.562  -0.366  0.00  0.00     0.139 C 
BRANCH  20  21
HETATM   21  C   UNK N   1       3.387  -3.359   0.685  0.00  0.00     0.130 C 
BRANCH  21  22
HETATM   22  N   UNK N   1       4.689  -3.532   0.067  0.00  0.00    -0.429 N 
HETATM   23  H   UNK N   1       5.042  -4.385  -0.367  0.00  0.00     0.149 HD
HETATM   24  H   UNK N   1       5.311  -2.723   0.067  0.00  0.00     0.149 HD
ENDBRANCH  21  22
ENDBRANCH  20  21
ENDBRANCH  18  20
ENDBRANCH   7  18
BRANCH   8  25
HETATM   25  N   UNK N   1       1.090   2.850   0.062  0.00  0.00    -0.388 N 
HETATM   26  H   UNK N   1       0.260   3.345  -0.127  0.00  0.00     0.159 HD
BRANCH  25  27
HETATM   27  C   UNK N   1       2.289   3.602   0.364  0.00  0.00     0.139 C 
BRANCH  27  28
HETATM   28  C   UNK N   1       3.363   3.402  -0.691  0.00  0.00     0.130 C 
BRANCH  28  29
HETATM   29  N   UNK N   1       4.668   3.534  -0.069  0.00  0.00    -0.429 N 
HETATM   30  H   UNK N   1       5.207   2.787   0.369  0.00  0.00     0.149 HD
HETATM   31  H   UNK N   1       5.087   4.465  -0.069  0.00  0.00     0.149 HD
ENDBRANCH  28  29
ENDBRANCH  27  28
ENDBRANCH  25  27
ENDBRANCH   8  25
TORSDOF 8
