REMARK  18 active torsions:
REMARK  status: ('A' for Active; 'I' for Inactive)
REMARK    1  A    between atoms: C_12  and  O_43 
REMARK    2  A    between atoms: C_13  and  O_44 
REMARK    3  A    between atoms: C_15  and  O_70 
REMARK    4  A    between atoms: C_16  and  O_69 
REMARK    5  A    between atoms: C_19  and  O_73 
REMARK    6  A    between atoms: C_20  and  O_74 
REMARK    7  A    between atoms: C_26  and  O_75 
REMARK    8  A    between atoms: C_27  and  O_76 
REMARK    9  A    between atoms: C_39  and  O_56 
REMARK   10  A    between atoms: C_40  and  O_55 
REMARK   11  A    between atoms: C_54  and  O_43 
REMARK   12  A    between atoms: C_53  and  O_44 
REMARK   13  A    between atoms: C_45  and  N_66 
REMARK   14  A    between atoms: C_46  and  N_65 
REMARK   15  A    between atoms: C_47  and  O_56 
REMARK   16  A    between atoms: C_48  and  O_55 
REMARK   17  A    between atoms: C_77  and  C_102 
REMARK   18  A    between atoms: C_78  and  C_103 
ROOT
HETATM    1  C   UNK N   1      -9.304  -2.524  -0.218  0.00  0.00    -0.010 C 
HETATM    2  C   UNK N   1      -7.117  -2.425  -0.858  0.00  0.00     0.022 C 
HETATM    3  C   UNK N   1      -8.853  -3.903   0.098  0.00  0.00     0.039 C 
HETATM    4  C   UNK N   1     -10.420  -1.852   0.441  0.00  0.00     0.162 C 
HETATM    5  C   UNK N   1      -8.450  -1.820  -0.911  0.00  0.00    -0.010 C 
HETATM    6  C   UNK N   1      -7.329  -3.815  -0.162  0.00  0.00     0.025 C 
HETATM    7  C   UNK N   1      -6.476  -1.419   0.110  0.00  0.00     0.004 C 
HETATM    8  C   UNK N   1     -10.927  -0.532  -0.102  0.00  0.00     0.085 C 
HETATM    9  C   UNK N   1      -6.519  -4.016   1.126  0.00  0.00    -0.024 C 
HETATM   10  C   UNK N   1      -5.239  -1.944   0.738  0.00  0.00     0.015 C 
HETATM   11  C   UNK N   1     -11.052  -4.883  -0.877  0.00  0.00     0.259 C 
HETATM   12  C   UNK N   1      -5.596  -3.138   1.573  0.00  0.00    -0.025 C 
HETATM   13  C   UNK N   1     -12.041   0.181   0.704  0.00  0.00     0.136 C 
HETATM   14  O   UNK N   1     -11.802  -3.753  -0.745  0.00  0.00    -0.316 OA
HETATM   15  C   UNK N   1      -9.540  -4.790  -0.976  0.00  0.00     0.121 C 
HETATM   16  C   UNK N   1      -5.094   0.463   0.467  0.00  0.00     0.126 C 
HETATM   17  C   UNK N   1      -6.085  -0.106  -0.527  0.00  0.00     0.038 C 
HETATM   18  C   UNK N   1      -4.775  -0.686   1.484  0.00  0.00     0.041 C 
HETATM   19  O   UNK N   1     -10.919  -2.385   1.421  0.00  0.00    -0.292 OA
HETATM   20  O   UNK N   1     -11.587  -5.979  -0.933  0.00  0.00    -0.265 OA
HETATM   21  C   UNK N   1     -13.173  -3.678  -0.574  0.00  0.00     0.131 C 
HETATM   22  C   UNK N   1     -11.278  -0.693  -1.581  0.00  0.00     0.021 C 
HETATM   23  C   UNK N   1     -12.906  -0.719   1.600  0.00  0.00     0.033 C 
HETATM   24  C   UNK N   1     -13.945  -1.624   0.913  0.00  0.00     0.005 C 
HETATM   25  C   UNK N   1     -13.615  -2.195  -0.482  0.00  0.00     0.032 C 
ENDROOT
BRANCH  16  26
HETATM   26  O   UNK N   1      -4.006   1.071  -0.227  0.00  0.00    -0.353 OA
BRANCH  26  27
HETATM   27  C   UNK N   1      -3.068   0.118  -0.692  0.00  0.00     0.292 C 
HETATM   28  C   UNK N   1      -1.647   0.631  -0.540  0.00  0.00     0.207 C 
HETATM   29  C   UNK N   1      -0.820  -0.649  -0.499  0.00  0.00     0.185 C 
HETATM   30  C   UNK N   1      -1.139  -1.605  -1.683  0.00  0.00     0.181 C 
HETATM   31  C   UNK N   1      -2.520  -1.368  -2.404  0.00  0.00     0.152 C 
HETATM   32  O   UNK N   1      -3.275  -0.212  -2.049  0.00  0.00    -0.351 OA
HETATM   33  C   UNK N   1      -3.404  -2.584  -2.658  0.00  0.00     0.042 C 
BRANCH  28  34
HETATM   34  O   UNK N   1      -1.429   1.494   0.564  0.00  0.00    -0.383 OA
HETATM   35  C   UNK N   1      -1.851   0.899   1.764  0.00  0.00     0.202 C 
ENDBRANCH  28  34
BRANCH  29  36
HETATM   36  O   UNK N   1       0.526  -0.424  -0.271  0.00  0.00    -0.385 OA
HETATM   37  C   UNK N   1       0.694  -0.718   1.088  0.00  0.00     0.202 C 
ENDBRANCH  29  36
BRANCH  30  38
HETATM   38  O   UNK N   1      -0.907  -2.962  -1.363  0.00  0.00    -0.385 OA
HETATM   39  C   UNK N   1      -1.786  -3.341  -0.328  0.00  0.00     0.202 C 
ENDBRANCH  30  38
ENDBRANCH  26  27
ENDBRANCH  16  26
BRANCH  13  40
HETATM   40  O   UNK N   1     -12.884   0.950  -0.117  0.00  0.00    -0.355 OA
BRANCH  40  41
HETATM   41  C   UNK N   1     -12.277   2.163  -0.503  0.00  0.00     0.260 C 
HETATM   42  O   UNK N   1     -11.880   2.912   0.652  0.00  0.00    -0.354 OA
HETATM   43  C   UNK N   1     -12.311   4.255   0.585  0.00  0.00     0.153 C 
HETATM   44  C   UNK N   1     -13.851   4.295   0.612  0.00  0.00     0.250 C 
HETATM   45  C   UNK N   1     -11.709   5.044   1.732  0.00  0.00     0.042 C 
HETATM   46  C   UNK N   1     -14.440   3.365  -0.473  0.00  0.00     0.043 C 
HETATM   47  C   UNK N   1     -13.329   2.859  -1.386  0.00  0.00     0.063 C 
BRANCH  44  48
HETATM   48  N   UNK N   1     -14.372   5.666   0.534  0.00  0.00     0.087 N 
HETATM   49  C   UNK N   1     -15.781   5.651   0.896  0.00  0.00     0.310 C 
HETATM   50  C   UNK N   1     -14.256   6.209  -0.815  0.00  0.00     0.310 C 
ENDBRANCH  44  48
ENDBRANCH  40  41
ENDBRANCH  13  40
BRANCH  21  51
HETATM   51  C   UNK N   1     -13.647  -4.517   0.612  0.00  0.00     0.028 C 
HETATM   52  C   UNK N   1     -15.159  -4.633   0.609  0.00  0.00     0.007 C 
ENDBRANCH  21  51
TORSDOF 18
