REMARK  10 active torsions:
REMARK  status: ('A' for Active; 'I' for Inactive)
REMARK    1  A    between atoms: C_1  and  O_10 
REMARK    2  A    between atoms: C_4  and  C_26 
REMARK    3  A    between atoms: O_10  and  C_11 
REMARK    4  A    between atoms: C_11  and  C_12 
REMARK    5  A    between atoms: C_12  and  C_13 
REMARK    6  A    between atoms: C_18  and  C_20 
REMARK    7  A    between atoms: C_26  and  C_27 
REMARK    8  A    between atoms: C_27  and  O_28 
REMARK    9  A    between atoms: C_27  and  C_29 
REMARK   10  A    between atoms: C_29  and  O_30 
ROOT
HETATM    1  C   UNK N   1      -3.243   1.250   0.000  0.00  0.00     0.080 A 
HETATM    2  C   UNK N   1      -4.320   0.347   0.000  0.00  0.00     0.015 A 
HETATM    3  C   UNK N   1      -4.078  -1.037  -0.000  0.00  0.00     0.024 A 
HETATM    4  C   UNK N   1      -2.782  -1.581  -0.001  0.00  0.00    -0.037 A 
HETATM    5  C   UNK N   1      -1.733  -0.685   0.000  0.00  0.00     0.011 A 
HETATM    6  C   UNK N   1      -1.956   0.682   0.001  0.00  0.00     0.038 A 
HETATM    7  C   UNK N   1      -5.701   0.686   0.000  0.00  0.00     0.023 A 
HETATM    8  C   UNK N   1      -6.546  -0.443  -0.000  0.00  0.00     0.051 A 
HETATM    9  S   UNK N   1      -5.548  -1.785  -0.001  0.00  0.00    -0.101 SA
ENDROOT
BRANCH   1  10
HETATM   10  O   UNK N   1      -3.445   2.620   0.000  0.00  0.00    -0.350 OA
BRANCH  10  11
HETATM   11  C   UNK N   1      -2.491   3.665   0.000  0.00  0.00     0.181 C 
BRANCH  11  12
HETATM   12  C   UNK N   1      -1.076   3.121  -0.000  0.00  0.00     0.086 C 
BRANCH  12  13
HETATM   13  C   UNK N   1       0.349   3.505  -0.000  0.00  0.00     0.043 A 
HETATM   14  C   UNK N   1       0.999   4.719   0.000  0.00  0.00     0.074 A 
HETATM   15  O   UNK N   1       2.295   4.475   0.000  0.00  0.00    -0.296 OA
HETATM   16  C   UNK N   1       0.385   6.073   0.000  0.00  0.00     0.079 C 
HETATM   17  C   UNK N   1       2.448   3.164  -0.000  0.00  0.00     0.158 A 
HETATM   18  N   UNK N   1       1.265   2.532  -0.000  0.00  0.00    -0.337 N 
ATOM     19  HN  UNK N   1       1.100   1.526  -0.000  1.00  0.00     0.168 HD
BRANCH  17  20
HETATM   20  C   UNK N   1       3.717   2.423   0.000  0.00  0.00     0.015 A 
HETATM   21  C   UNK N   1       4.948   3.088   0.000  0.00  0.00     0.016 A 
HETATM   22  C   UNK N   1       6.139   2.351   0.000  0.00  0.00     0.001 A 
HETATM   23  C   UNK N   1       6.102   0.952   0.000  0.00  0.00     0.000 A 
HETATM   24  C   UNK N   1       4.876   0.285  -0.000  0.00  0.00     0.001 A 
HETATM   25  C   UNK N   1       3.689   1.018  -0.000  0.00  0.00     0.016 A 
ENDBRANCH  17  20
ENDBRANCH  12  13
ENDBRANCH  11  12
ENDBRANCH  10  11
ENDBRANCH   1  10
BRANCH   4  26
HETATM   26  C   UNK N   1      -2.541  -3.071  -0.004  0.00  0.00     0.083 C 
BRANCH  26  27
HETATM   27  C   UNK N   1      -1.119  -3.766   0.006  0.00  0.00     0.222 C 
BRANCH  27  28
HETATM   28  O   UNK N   1      -1.052  -5.184  -0.005  0.00  0.00    -0.380 OA
HETATM   29  C   UNK N   1      -2.325  -5.770   0.005  0.00  0.00     0.202 C 
ENDBRANCH  27  28
BRANCH  27  30
HETATM   30  C   UNK N   1       0.282  -3.163   0.000  0.00  0.00     0.170 C 
HETATM   31  O   UNK N   1       0.480  -1.964  -0.001  0.00  0.00    -0.648 OA
BRANCH  30  32
HETATM   32  O   UNK N   1       1.347  -3.988  -0.001  0.00  0.00    -0.774 OA
HETATM   33  H   UNK N   1       1.220  -4.916  -0.001  0.00  0.00     0.167 HD
ENDBRANCH  30  32
ENDBRANCH  27  30
ENDBRANCH  26  27
ENDBRANCH   4  26
TORSDOF 10
