REMARK  5 active torsions:
REMARK  status: ('A' for Active; 'I' for Inactive)
REMARK    1  A    between atoms: C_1  and  N_2 
REMARK    2  A    between atoms: C_1  and  C_3 
REMARK       I    between atoms: N_2  and  C_4 
REMARK    3  A    between atoms: C_3  and  C_5 
REMARK       I    between atoms: C_4  and  N_6 
REMARK    4  A    between atoms: C_5  and  C_9 
REMARK    5  A    between atoms: C_9  and  N_10 
ROOT
HETATM    1  N   UNK N   1       1.370   0.466  -0.000  0.00  0.00    -0.227 N 
HETATM    2  C   UNK N   1       2.604  -0.234  -0.000  0.00  0.00     0.665 C 
HETATM    3  N   UNK N   1       3.819   0.481  -0.001  0.00  0.00    -0.235 N 
HETATM    4  N   UNK N   1       2.624  -1.519   0.001  0.00  0.00    -0.235 N 
ATOM      5  HN  UNK N   1       3.516  -2.015   0.001  1.00  0.00     0.174 HD
HETATM    6  H   UNK N   1       1.368   1.451  -0.001  0.00  0.00     0.177 HD
HETATM    7  H   UNK N   1       4.676  -0.004  -0.001  0.00  0.00     0.174 HD
HETATM    8  H   UNK N   1       3.811   1.466  -0.001  0.00  0.00     0.174 HD
HETATM    9  H   UNK N   1       1.780  -2.025   0.002  0.00  0.00     0.174 HD
ENDROOT
BRANCH   1  10
HETATM   10  C   UNK N   1       0.122  -0.249   0.000  0.00  0.00     0.138 C 
BRANCH  10  11
HETATM   11  C   UNK N   1      -1.056   0.699  -0.000  0.00  0.00     0.022 C 
BRANCH  11  12
HETATM   12  C   UNK N   1      -2.302  -0.162   0.000  0.00  0.00     0.021 C 
BRANCH  12  13
HETATM   13  C   UNK N   1      -3.555   0.682  -0.000  0.00  0.00     0.111 C 
BRANCH  13  14
HETATM   14  N   UNK N   1      -4.710  -0.197  -0.000  0.00  0.00    -0.430 N 
HETATM   15  H   UNK N   1      -5.651   0.197   0.000  0.00  0.00     0.149 HD
HETATM   16  H   UNK N   1      -4.580  -1.209  -0.000  0.00  0.00     0.149 HD
ENDBRANCH  13  14
ENDBRANCH  12  13
ENDBRANCH  11  12
ENDBRANCH  10  11
ENDBRANCH   1  10
TORSDOF 5
