REMARK  10 active torsions:
REMARK  status: ('A' for Active; 'I' for Inactive)
REMARK    1  A    between atoms: C_5  and  C_4 
REMARK    2  A    between atoms: C_16  and  C_5 
REMARK    3  A    between atoms: C_17  and  C_15 
REMARK    4  A    between atoms: N_22  and  C_15 
REMARK    5  A    between atoms: S_23  and  C_16 
REMARK    6  A    between atoms: S_24  and  C_17 
REMARK    7  A    between atoms: C_21  and  C_18 
REMARK    8  A    between atoms: C_21  and  C_19 
REMARK    9  A    between atoms: S_23  and  C_20 
REMARK   10  A    between atoms: S_24  and  C_21 
ROOT
HETATM    1  C   UNK N   1      -0.251   1.571  -0.647  0.00  0.00     0.113 C 
ENDROOT
BRANCH   1   2
HETATM    2  C   UNK N   1      -0.223   0.122  -0.193  0.00  0.00    -0.040 A 
HETATM    3  C   UNK N   1       0.710  -0.758  -0.758  0.00  0.00     0.009 A 
HETATM    4  C   UNK N   1       0.711  -2.113  -0.413  0.00  0.00     0.001 A 
HETATM    5  C   UNK N   1      -0.235  -2.603   0.490  0.00  0.00     0.000 A 
HETATM    6  C   UNK N   1      -1.181  -1.741   1.047  0.00  0.00     0.001 A 
HETATM    7  C   UNK N   1      -1.181  -0.385   0.704  0.00  0.00     0.009 A 
ENDBRANCH   1   2
BRANCH   1   8
HETATM    8  C   UNK N   1      -1.496   2.318  -0.270  0.00  0.00    -0.040 A 
HETATM    9  C   UNK N   1      -1.718   2.766   1.045  0.00  0.00     0.010 A 
HETATM   10  C   UNK N   1      -2.864   3.503   1.351  0.00  0.00     0.019 A 
HETATM   11  C   UNK N   1      -3.801   3.795   0.351  0.00  0.00     0.000 A 
HETATM   12  C   UNK N   1      -3.583   3.345  -0.956  0.00  0.00     0.019 A 
HETATM   13  C   UNK N   1      -2.436   2.613  -1.263  0.00  0.00     0.010 A 
BRANCH  11  14
HETATM   14  S   UNK N   1      -5.242   4.783   0.732  0.00  0.00    -0.130 SA
BRANCH  14  15
HETATM   15  C   UNK N   1      -6.368   3.358   0.754  0.00  0.00     0.079 C 
BRANCH  15  16
HETATM   16  C   UNK N   1      -7.044   3.229  -0.600  0.00  0.00     0.010 C 
BRANCH  16  17
HETATM   17  C   UNK N   1      -8.083   2.124  -0.571  0.00  0.00    -0.004 C 
HETATM   18  C   UNK N   1      -9.347   2.608   0.113  0.00  0.00     0.005 C 
ENDBRANCH  16  17
ENDBRANCH  15  16
ENDBRANCH  14  15
ENDBRANCH  11  14
ENDBRANCH   1   8
BRANCH   1  19
HETATM   19  S   UNK N   1       1.220   2.623  -0.255  0.00  0.00    -0.153 SA
BRANCH  19  20
HETATM   20  C   UNK N   1       2.411   1.398   0.364  0.00  0.00     0.105 C 
BRANCH  20  21
HETATM   21  C   UNK N   1       3.524   1.237  -0.674  0.00  0.00     0.281 C 
BRANCH  21  22
HETATM   22  N   UNK N   1       4.662   0.441  -0.205  0.00  0.00     0.080 N 
HETATM   23  C   UNK N   1       5.263   1.057   0.968  0.00  0.00     0.309 C 
HETATM   24  C   UNK N   1       4.231  -0.905   0.140  0.00  0.00     0.309 C 
ENDBRANCH  21  22
ENDBRANCH  20  21
ENDBRANCH  19  20
ENDBRANCH   1  19
TORSDOF 10
