REMARK  6 active torsions:
REMARK  status: ('A' for Active; 'I' for Inactive)
REMARK    1  A    between atoms: C_2  and  B_1 
REMARK    2  A    between atoms: B_1  and  O_16 
REMARK    3  A    between atoms: B_1  and  O_17 
REMARK       I    between atoms: N_6  and  C_7 
REMARK    4  A    between atoms: C_7  and  C_9 
REMARK    5  A    between atoms: C_9  and  N_10 
REMARK    6  A    between atoms: C_11  and  N_10 
ROOT
HETATM    1  C   UNK N   1       0.854  -2.817   0.604  0.00  0.00     0.113 C 
HETATM    2  C   UNK N   1       2.117  -3.572   0.225  0.00  0.00     0.022 C 
HETATM    3  C   UNK N   1       1.670  -4.926  -0.316  0.00  0.00     0.021 C 
HETATM    4  C   UNK N   1       0.194  -4.788  -0.638  0.00  0.00     0.125 C 
HETATM    5  N   UNK N   1      -0.222  -3.586   0.029  0.00  0.00    -0.350 N 
HETATM    6  C   UNK N   1      -1.539  -3.251   0.149  0.00  0.00     0.236 C 
HETATM    7  O   UNK N   1      -1.865  -2.257   0.787  0.00  0.00    -0.272 OA
ENDROOT
BRANCH   6   8
HETATM    8  C   UNK N   1      -2.599  -4.102  -0.494  0.00  0.00     0.217 C 
BRANCH   8   9
HETATM    9  N   UNK N   1      -3.936  -3.668  -0.109  0.00  0.00    -0.407 N 
HETATM   10  H   UNK N   1      -4.165  -2.794   0.365  0.00  0.00     0.154 HD
BRANCH   9  11
HETATM   11  C   UNK N   1      -4.891  -4.690  -0.517  0.00  0.00     0.095 C 
HETATM   12  C   UNK N   1      -4.669  -5.985   0.218  0.00  0.00     0.045 C 
HETATM   13  C   UNK N   1      -6.042  -6.609   0.231  0.00  0.00     0.115 C 
HETATM   14  N   UNK N   1      -7.024  -5.530   0.160  0.00  0.00    -0.419 N 
HETATM   15  C   UNK N   1      -6.277  -4.298  -0.072  0.00  0.00     0.138 C 
HETATM   16  H   UNK N   1      -8.036  -5.620   0.255  0.00  0.00     0.153 HD
ENDBRANCH   9  11
ENDBRANCH   8   9
ENDBRANCH   6   8
BRANCH   1  17
HETATM   17  B   UNK N   1       0.952  -1.330   0.005  0.00  0.00     0.515 B 
BRANCH  17  18
HETATM   18  O   UNK N   1      -0.045  -0.841  -0.946  0.00  0.00    -0.436 OA
HETATM   19  H   UNK N   1      -0.095  -0.105  -1.577  0.00  0.00     0.184 HD
ENDBRANCH  17  18
BRANCH  17  20
HETATM   20  O   UNK N   1       2.043  -0.452   0.417  0.00  0.00    -0.436 OA
HETATM   21  H   UNK N   1       2.911  -0.788   0.692  0.00  0.00     0.184 HD
ENDBRANCH  17  20
ENDBRANCH   1  17
TORSDOF 6
