REMARK  5 active torsions:
REMARK  status: ('A' for Active; 'I' for Inactive)
REMARK    1  A    between atoms: C_2  and  C_4 
REMARK    2  A    between atoms: C_2  and  S_7 
REMARK    3  A    between atoms: C_4  and  O_6 
REMARK    4  A    between atoms: S_7  and  C_8 
REMARK    5  A    between atoms: C_14  and  C_15 
ROOT
HETATM    1  C   UNK N   1       0.428  -0.024   0.246  0.00  0.00    -0.012 A 
HETATM    2  C   UNK N   1      -0.806  -0.676   0.384  0.00  0.00     0.015 A 
HETATM    3  C   UNK N   1      -0.947  -2.067   0.329  0.00  0.00     0.024 A 
HETATM    4  C   UNK N   1       0.169  -2.875   0.146  0.00  0.00     0.055 A 
HETATM    5  C   UNK N   1       1.439  -2.281   0.076  0.00  0.00    -0.004 A 
HETATM    6  C   UNK N   1       1.576  -0.859   0.122  0.00  0.00    -0.013 A 
HETATM    7  C   UNK N   1       2.861  -0.314   0.013  0.00  0.00     0.013 A 
HETATM    8  C   UNK N   1       3.981  -1.122  -0.141  0.00  0.00     0.001 A 
HETATM    9  C   UNK N   1       3.841  -2.505  -0.198  0.00  0.00     0.001 A 
HETATM   10  C   UNK N   1       2.578  -3.082  -0.091  0.00  0.00     0.014 A 
HETATM   11  C   UNK N   1      -0.019  -4.300  -0.047  0.00  0.00     0.100 C 
HETATM   12  N   UNK N   1      -0.208  -5.433  -0.196  0.00  0.00    -0.191 NA
ENDROOT
BRANCH   1  13
HETATM   13  C   UNK N   1       0.482   1.508   0.106  0.00  0.00     0.007 A 
HETATM   14  C   UNK N   1       1.656   2.121  -0.400  0.00  0.00     0.101 A 
HETATM   15  N   UNK N   1       1.741   3.459  -0.629  0.00  0.00    -0.374 N 
HETATM   16  C   UNK N   1       0.689   4.278  -0.394  0.00  0.00     0.089 A 
ATOM     17  HN  UNK N   1       2.612   3.852  -0.985  1.00  0.00     0.164 HD
HETATM   18  C   UNK N   1      -0.486   3.757   0.156  0.00  0.00     0.036 A 
HETATM   19  C   UNK N   1      -0.614   2.374   0.402  0.00  0.00     0.015 A 
BRANCH  19  20
HETATM   20  S   UNK N   1      -2.042   1.823   1.382  0.00  0.00    -0.109 SA
BRANCH  20  21
HETATM   21  C   UNK N   1      -3.441   1.162   0.349  0.00  0.00     0.091 C 
HETATM   22  C   UNK N   1      -3.110   0.236  -0.838  0.00  0.00     0.038 C 
HETATM   23  C   UNK N   1      -4.203   0.350   1.410  0.00  0.00     0.038 C 
BRANCH  21  24
HETATM   24  C   UNK N   1      -4.312   2.284  -0.177  0.00  0.00     0.158 C 
HETATM   25  O   UNK N   1      -5.506   2.104  -0.371  0.00  0.00    -0.649 OA
BRANCH  24  26
HETATM   26  O   UNK N   1      -3.753   3.447  -0.566  0.00  0.00    -0.775 OA
HETATM   27  H   UNK N   1      -2.859   3.515  -0.837  0.00  0.00     0.167 HD
ENDBRANCH  24  26
ENDBRANCH  21  24
ENDBRANCH  20  21
ENDBRANCH  19  20
ENDBRANCH   1  13
TORSDOF 5
