REMARK  13 active torsions:
REMARK  status: ('A' for Active; 'I' for Inactive)
REMARK    1  A    between atoms: C_3  and  O_2 
REMARK    2  A    between atoms: C_3  and  N_26 
REMARK    3  A    between atoms: C_8  and  C_23 
REMARK    4  A    between atoms: C_9  and  C_12 
REMARK    5  A    between atoms: C_12  and  S_13 
REMARK    6  A    between atoms: S_13  and  C_14 
REMARK    7  A    between atoms: N_19  and  C_20 
REMARK    8  A    between atoms: C_20  and  C_21 
REMARK    9  A    between atoms: C_21  and  O_22 
REMARK   10  A    between atoms: C_23  and  O_25 
REMARK       I    between atoms: N_26  and  C_27 
REMARK   11  A    between atoms: C_27  and  C_29 
REMARK   12  A    between atoms: C_29  and  S_30 
REMARK   13  A    between atoms: S_30  and  C_31 
ROOT
HETATM    1  C   UNK N   1      -0.195  -2.270  -0.505  0.00  0.00     0.265 A 
HETATM    2  C   UNK N   1       0.129  -0.826  -1.218  0.00  0.00     0.297 A 
HETATM    3  N   UNK N   1      -0.831  -0.284  -0.321  0.00  0.00    -0.274 N 
HETATM    4  C   UNK N   1      -1.084  -1.386   0.316  0.00  0.00     0.287 A 
HETATM    5  O   UNK N   1      -1.826  -1.554   1.273  0.00  0.00    -0.267 OA
HETATM    6  C   UNK N   1      -1.108   1.089  -0.203  0.00  0.00     0.119 C 
HETATM    7  C   UNK N   1      -0.104   1.891  -0.631  0.00  0.00    -0.013 C 
HETATM    8  C   UNK N   1       1.177   1.236  -1.184  0.00  0.00     0.208 C 
HETATM    9  O   UNK N   1       1.331  -0.162  -0.898  0.00  0.00    -0.356 OA
ENDROOT
BRANCH   7  10
HETATM   10  C   UNK N   1      -0.173   3.383  -0.565  0.00  0.00     0.121 C 
BRANCH  10  11
HETATM   11  S   UNK N   1       0.358   3.922   1.092  0.00  0.00    -0.087 SA
BRANCH  11  12
HETATM   12  C   UNK N   1       1.189   5.366   0.444  0.00  0.00     0.172 A 
HETATM   13  N   UNK N   1       0.561   6.478   0.026  0.00  0.00    -0.265 N 
HETATM   14  N   UNK N   1       1.523   7.304  -0.368  0.00  0.00    -0.007 NA
ATOM     15  HN  UNK N   1      -0.444   6.651   0.013  1.00  0.00     0.186 HD
HETATM   16  N   UNK N   1       2.704   6.724  -0.197  0.00  0.00    -0.004 NA
HETATM   17  N   UNK N   1       2.513   5.517   0.307  0.00  0.00    -0.254 N 
BRANCH  17  18
HETATM   18  C   UNK N   1       3.566   4.573   0.647  0.00  0.00     0.174 C 
BRANCH  18  19
HETATM   19  C   UNK N   1       4.347   4.193  -0.596  0.00  0.00     0.185 C 
BRANCH  19  20
HETATM   20  O   UNK N   1       5.312   3.242  -0.266  0.00  0.00    -0.399 OA
HETATM   21  H   UNK N   1       5.074   2.330  -0.037  0.00  0.00     0.209 HD
ENDBRANCH  19  20
ENDBRANCH  18  19
ENDBRANCH  17  18
ENDBRANCH  11  12
ENDBRANCH  10  11
ENDBRANCH   7  10
BRANCH   6  22
HETATM   22  C   UNK N   1      -2.422   1.572   0.327  0.00  0.00     0.194 C 
HETATM   23  O   UNK N   1      -2.673   2.765   0.394  0.00  0.00    -0.645 OA
BRANCH  22  24
HETATM   24  O   UNK N   1      -3.387   0.686   0.636  0.00  0.00    -0.772 OA
HETATM   25  H   UNK N   1      -4.257   0.959   0.851  0.00  0.00     0.167 HD
ENDBRANCH  22  24
ENDBRANCH   6  22
BRANCH   1  26
HETATM   26  O   UNK N   1      -0.963  -3.097  -1.350  0.00  0.00    -0.354 OA
HETATM   27  C   UNK N   1      -1.587  -4.081  -0.563  0.00  0.00     0.205 C 
ENDBRANCH   1  26
BRANCH   1  28
HETATM   28  N   UNK N   1       0.946  -3.003   0.054  0.00  0.00    -0.317 N 
HETATM   29  C   UNK N   1       1.996  -2.570   0.800  0.00  0.00     0.229 C 
HETATM   30  O   UNK N   1       2.082  -1.414   1.174  0.00  0.00    -0.273 OA
HETATM   31  H   UNK N   1       0.953  -3.967  -0.145  0.00  0.00     0.166 HD
BRANCH  29  32
HETATM   32  C   UNK N   1       3.096  -3.530   1.131  0.00  0.00     0.182 C 
BRANCH  32  33
HETATM   33  S   UNK N   1       4.254  -3.653  -0.271  0.00  0.00    -0.091 SA
BRANCH  33  34
HETATM   34  C   UNK N   1       5.307  -2.324   0.384  0.00  0.00     0.416 C 
HETATM   35  F   UNK N   1       5.132  -1.170  -0.355  0.00  0.00    -0.203 F 
HETATM   36  F   UNK N   1       6.634  -2.710   0.368  0.00  0.00    -0.203 F 
ENDBRANCH  33  34
ENDBRANCH  32  33
ENDBRANCH  29  32
ENDBRANCH   1  28
TORSDOF 13
