REMARK  6 active torsions:
REMARK  status: ('A' for Active; 'I' for Inactive)
REMARK    1  A    between atoms: C_5  and  N_8 
REMARK    2  A    between atoms: C_10  and  O_12 
REMARK    3  A    between atoms: N_14  and  C_22 
REMARK    4  A    between atoms: C_16  and  C_19 
REMARK    5  A    between atoms: C_19  and  O_21 
REMARK    6  A    between atoms: C_26  and  N_29 
ROOT
HETATM    1  C   UNK N   1      -0.566  -2.894  -0.469  0.00  0.00     0.062 C 
HETATM    2  C   UNK N   1       0.614  -2.191  -0.220  0.00  0.00     0.047 A 
HETATM    3  C   UNK N   1       0.582  -0.793   0.066  0.00  0.00     0.078 A 
HETATM    4  C   UNK N   1      -0.722  -0.187   0.237  0.00  0.00     0.086 C 
HETATM    5  C   UNK N   1      -1.894  -0.918  -0.096  0.00  0.00     0.074 C 
HETATM    6  C   UNK N   1      -1.796  -2.258  -0.460  0.00  0.00     0.140 C 
HETATM    7  F   UNK N   1      -2.910  -2.961  -0.781  0.00  0.00    -0.204 F 
HETATM    8 Cl   UNK N   1      -0.974   1.376   1.050  0.00  0.00    -0.080 Cl
HETATM    9  N   UNK N   1       1.794  -0.104   0.170  0.00  0.00    -0.302 N 
HETATM   10  C   UNK N   1       2.972  -0.801   0.138  0.00  0.00     0.121 A 
HETATM   11  C   UNK N   1       3.031  -2.179  -0.044  0.00  0.00     0.104 A 
HETATM   12  C   UNK N   1       1.838  -2.877  -0.259  0.00  0.00     0.202 A 
HETATM   13  O   UNK N   1       1.856  -4.080  -0.474  0.00  0.00    -0.286 OA
ENDROOT
BRANCH   9  14
HETATM   14  C   UNK N   1       1.925   1.350   0.093  0.00  0.00     0.153 A 
HETATM   15  C   UNK N   1       3.064   2.041   0.575  0.00  0.00     0.164 A 
HETATM   16  C   UNK N   1       3.133   3.432   0.443  0.00  0.00     0.092 A 
HETATM   17  F   UNK N   1       4.089   1.393   1.183  0.00  0.00    -0.202 F 
HETATM   18  C   UNK N   1       2.097   4.130  -0.176  0.00  0.00     0.162 A 
HETATM   19  C   UNK N   1       1.017   3.422  -0.692  0.00  0.00     0.140 A 
HETATM   20  F   UNK N   1       2.147   5.481  -0.277  0.00  0.00    -0.202 F 
HETATM   21  N   UNK N   1       0.976   2.073  -0.571  0.00  0.00    -0.324 N 
ATOM     22  HN  UNK N   1       0.196   1.572  -0.997  1.00  0.00     0.169 HD
BRANCH  19  23
HETATM   23  N   UNK N   1      -0.050   4.100  -1.318  0.00  0.00    -0.383 N 
HETATM   24  H   UNK N   1      -0.013   4.981  -1.755  0.00  0.00     0.157 HD
HETATM   25  H   UNK N   1      -0.922   3.644  -1.318  0.00  0.00     0.157 HD
ENDBRANCH  19  23
ENDBRANCH   9  14
BRANCH  11  26
HETATM   26  C   UNK N   1       4.364  -2.841  -0.057  0.00  0.00     0.181 C 
HETATM   27  O   UNK N   1       4.464  -4.048  -0.214  0.00  0.00    -0.646 OA
BRANCH  26  28
HETATM   28  O   UNK N   1       5.481  -2.105   0.107  0.00  0.00    -0.772 OA
HETATM   29  H   UNK N   1       6.313  -2.522   0.220  0.00  0.00     0.167 HD
ENDBRANCH  26  28
ENDBRANCH  11  26
BRANCH   5  30
HETATM   30  N   UNK N   1      -3.186  -0.307  -0.135  0.00  0.00    -0.275 NA
HETATM   31  C   UNK N   1      -3.833   0.128   1.054  0.00  0.00     0.128 A 
HETATM   32  C   UNK N   1      -4.057   1.506   0.383  0.00  0.00     0.145 A 
HETATM   33  C   UNK N   1      -3.348   0.916  -0.848  0.00  0.00     0.128 A 
BRANCH  32  34
HETATM   34  O   UNK N   1      -5.406   1.684   0.084  0.00  0.00    -0.393 OA
HETATM   35  H   UNK N   1      -5.769   2.559  -0.125  0.00  0.00     0.210 HD
ENDBRANCH  32  34
ENDBRANCH   5  30
TORSDOF 6
