REMARK  6 active torsions:
REMARK  status: ('A' for Active; 'I' for Inactive)
REMARK    1  A    between atoms: C_7  and  C_8 
REMARK    2  A    between atoms: C_8  and  C_9 
REMARK    3  A    between atoms: C_9  and  C_10 
REMARK    4  A    between atoms: C_15  and  N_16 
REMARK       I    between atoms: N_16  and  C_17 
REMARK    5  A    between atoms: C_17  and  C_19 
REMARK    6  A    between atoms: C_20  and  C_21 
ROOT
HETATM    1  C   UNK N   1       2.446  -2.122  -0.314  0.00  0.00    -0.031 A 
HETATM    2  C   UNK N   1       1.309  -2.933  -0.219  0.00  0.00     0.009 A 
HETATM    3  C   UNK N   1       0.076  -2.373   0.128  0.00  0.00     0.001 A 
HETATM    4  C   UNK N   1      -0.026  -1.001   0.375  0.00  0.00     0.002 A 
HETATM    5  C   UNK N   1       1.107  -0.186   0.283  0.00  0.00     0.030 A 
HETATM    6  C   UNK N   1       2.349  -0.742  -0.065  0.00  0.00     0.041 A 
ENDROOT
BRANCH   6   7
HETATM    7  N   UNK N   1       3.533   0.041  -0.147  0.00  0.00    -0.323 N 
HETATM    8  C   UNK N   1       3.661   1.386  -0.046  0.00  0.00     0.245 C 
HETATM    9  O   UNK N   1       2.691   2.117   0.076  0.00  0.00    -0.268 OA
HETATM   10  H   UNK N   1       4.368  -0.460  -0.297  0.00  0.00     0.169 HD
BRANCH   8  11
HETATM   11  C   UNK N   1       5.025   1.926  -0.080  0.00  0.00     0.075 C 
HETATM   12  C   UNK N   1       5.344   3.219  -0.010  0.00  0.00     0.017 C 
BRANCH  12  13
HETATM   13  C   UNK N   1       6.765   3.619  -0.008  0.00  0.00    -0.036 A 
HETATM   14  C   UNK N   1       7.107   4.974   0.022  0.00  0.00     0.011 A 
HETATM   15  C   UNK N   1       8.453   5.359   0.034  0.00  0.00     0.001 A 
HETATM   16  C   UNK N   1       9.462   4.389   0.020  0.00  0.00     0.000 A 
HETATM   17  C   UNK N   1       9.127   3.034  -0.008  0.00  0.00     0.001 A 
HETATM   18  C   UNK N   1       7.786   2.650  -0.023  0.00  0.00     0.011 A 
ENDBRANCH  12  13
ENDBRANCH   8  11
ENDBRANCH   6   7
BRANCH   1  19
HETATM   19  C   UNK N   1       3.759  -2.706  -0.737  0.00  0.00     0.043 C 
BRANCH  19  20
HETATM   20  C   UNK N   1       4.391  -3.602   0.315  0.00  0.00     0.040 C 
BRANCH  20  21
HETATM   21  C   UNK N   1       5.799  -3.978  -0.149  0.00  0.00     0.223 C 
HETATM   22  C   UNK N   1       6.080  -5.416   0.285  0.00  0.00     0.036 C 
HETATM   23  C   UNK N   1       7.452  -5.846  -0.218  0.00  0.00     0.004 C 
HETATM   24  C   UNK N   1       8.511  -4.876   0.286  0.00  0.00     0.030 C 
HETATM   25  C   UNK N   1       8.142  -3.459  -0.139  0.00  0.00     0.272 C 
HETATM   26  N   UNK N   1       6.834  -3.078   0.399  0.00  0.00     0.088 N 
HETATM   27  C   UNK N   1       6.609  -1.714  -0.059  0.00  0.00     0.310 C 
ENDBRANCH  20  21
ENDBRANCH  19  20
ENDBRANCH   1  19
TORSDOF 6
