REMARK  23 active torsions:
REMARK  status: ('A' for Active; 'I' for Inactive)
REMARK    1  A    between atoms: C_7  and  C_4 
REMARK    2  A    between atoms: C_8  and  C_5 
REMARK    3  A    between atoms: C_9  and  C_6 
REMARK    4  A    between atoms: C_10  and  C_7 
REMARK    5  A    between atoms: C_11  and  C_8 
REMARK    6  A    between atoms: C_12  and  C_9 
REMARK    7  A    between atoms: C_13  and  C_10 
REMARK    8  A    between atoms: C_14  and  C_11 
REMARK    9  A    between atoms: C_15  and  C_12 
REMARK   10  A    between atoms: C_16  and  C_13 
REMARK   11  A    between atoms: C_17  and  C_14 
REMARK   12  A    between atoms: C_18  and  C_15 
REMARK   13  A    between atoms: C_22  and  C_16 
REMARK   14  A    between atoms: C_23  and  C_17 
REMARK   15  A    between atoms: C_24  and  C_18 
REMARK   16  A    between atoms: C_21  and  C_19 
REMARK   17  A    between atoms: O_28  and  C_19 
REMARK   18  A    between atoms: C_21  and  C_20 
REMARK   19  A    between atoms: O_29  and  C_20 
REMARK   20  A    between atoms: O_30  and  C_21 
REMARK   21  A    between atoms: O_28  and  C_22 
REMARK   22  A    between atoms: O_29  and  C_23 
REMARK   23  A    between atoms: O_30  and  C_24 
ROOT
HETATM    1  C   UNK N   1      -0.397   4.495   0.253  0.00  0.00     0.180 C 
ENDROOT
BRANCH   1   2
HETATM    2  C   UNK N   1      -1.563   5.387  -0.181  0.00  0.00     0.213 C 
BRANCH   2   3
HETATM    3  O   UNK N   1      -2.737   4.759   0.153  0.00  0.00    -0.319 OA
BRANCH   3   4
HETATM    4  C   UNK N   1      -3.978   5.245  -0.057  0.00  0.00     0.258 C 
HETATM    5  O   UNK N   1      -4.151   6.379  -0.485  0.00  0.00    -0.265 OA
BRANCH   4   6
HETATM    6  C   UNK N   1      -5.129   4.334   0.238  0.00  0.00     0.111 C 
BRANCH   6   7
HETATM    7  C   UNK N   1      -6.505   4.885  -0.075  0.00  0.00     0.010 C 
BRANCH   7   8
HETATM    8  C   UNK N   1      -7.469   3.723   0.054  0.00  0.00     0.000 C 
BRANCH   8   9
HETATM    9  C   UNK N   1      -8.904   4.177  -0.088  0.00  0.00    -0.000 C 
BRANCH   9  10
HETATM   10  C   UNK N   1      -9.802   2.963   0.029  0.00  0.00    -0.005 C 
HETATM   11  C   UNK N   1     -11.252   3.389  -0.029  0.00  0.00     0.005 C 
ENDBRANCH   9  10
ENDBRANCH   8   9
ENDBRANCH   7   8
ENDBRANCH   6   7
ENDBRANCH   4   6
ENDBRANCH   3   4
ENDBRANCH   2   3
ENDBRANCH   1   2
BRANCH   1  12
HETATM   12  C   UNK N   1       0.921   5.166  -0.081  0.00  0.00     0.213 C 
BRANCH  12  13
HETATM   13  O   UNK N   1       1.965   4.303   0.174  0.00  0.00    -0.319 OA
BRANCH  13  14
HETATM   14  C   UNK N   1       3.258   4.668   0.026  0.00  0.00     0.258 C 
HETATM   15  O   UNK N   1       3.547   5.832  -0.235  0.00  0.00    -0.265 OA
BRANCH  14  16
HETATM   16  C   UNK N   1       4.335   3.630   0.172  0.00  0.00     0.111 C 
BRANCH  16  17
HETATM   17  C   UNK N   1       5.718   4.220  -0.049  0.00  0.00     0.010 C 
BRANCH  17  18
HETATM   18  C   UNK N   1       6.791   3.160   0.064  0.00  0.00     0.000 C 
BRANCH  18  19
HETATM   19  C   UNK N   1       8.134   3.849  -0.051  0.00  0.00    -0.000 C 
BRANCH  19  20
HETATM   20  C   UNK N   1       9.258   2.843   0.048  0.00  0.00    -0.005 C 
HETATM   21  C   UNK N   1      10.581   3.577  -0.008  0.00  0.00     0.005 C 
ENDBRANCH  19  20
ENDBRANCH  18  19
ENDBRANCH  17  18
ENDBRANCH  16  17
ENDBRANCH  14  16
ENDBRANCH  13  14
ENDBRANCH  12  13
ENDBRANCH   1  12
BRANCH   1  22
HETATM   22  O   UNK N   1      -0.456   3.245  -0.343  0.00  0.00    -0.312 OA
BRANCH  22  23
HETATM   23  C   UNK N   1      -1.228   2.236   0.137  0.00  0.00     0.259 C 
HETATM   24  O   UNK N   1      -1.978   2.428   1.087  0.00  0.00    -0.265 OA
BRANCH  23  25
HETATM   25  C   UNK N   1      -1.141   0.871  -0.488  0.00  0.00     0.111 C 
BRANCH  25  26
HETATM   26  C   UNK N   1      -2.162  -0.066   0.139  0.00  0.00     0.010 C 
BRANCH  26  27
HETATM   27  C   UNK N   1      -2.000  -1.495  -0.321  0.00  0.00     0.000 C 
BRANCH  27  28
HETATM   28  C   UNK N   1      -3.256  -2.232   0.093  0.00  0.00    -0.000 C 
BRANCH  28  29
HETATM   29  C   UNK N   1      -3.144  -3.708  -0.210  0.00  0.00    -0.005 C 
HETATM   30  C   UNK N   1      -4.490  -4.357   0.036  0.00  0.00     0.005 C 
ENDBRANCH  28  29
ENDBRANCH  27  28
ENDBRANCH  26  27
ENDBRANCH  25  26
ENDBRANCH  23  25
ENDBRANCH  22  23
ENDBRANCH   1  22
TORSDOF 23
