REMARK  5 active torsions:
REMARK  status: ('A' for Active; 'I' for Inactive)
REMARK    1  A    between atoms: C_16  and  C_15 
REMARK    2  A    between atoms: N_31  and  C_15 
REMARK    3  A    between atoms: C_22  and  C_17 
REMARK    4  A    between atoms: N_32  and  C_23 
REMARK    5  A    between atoms: S_38  and  N_33 
ROOT
HETATM    1  C   UNK N   1      -0.856   0.767  -0.226  0.00  0.00     0.047 A 
HETATM    2  C   UNK N   1      -1.853  -0.228  -0.321  0.00  0.00     0.014 A 
HETATM    3  C   UNK N   1       0.452   0.188  -0.188  0.00  0.00     0.055 A 
HETATM    4  C   UNK N   1       0.466  -1.195  -0.248  0.00  0.00     0.076 A 
HETATM    5  C   UNK N   1       2.805   0.184  -0.029  0.00  0.00     0.118 A 
HETATM    6  C   UNK N   1       1.654  -1.911  -0.150  0.00  0.00     0.124 A 
HETATM    7  N   UNK N   1       1.621   0.875  -0.081  0.00  0.00    -0.340 N 
ATOM      8  HN  UNK N   1       1.617   1.894  -0.040  1.00  0.00     0.167 HD
HETATM    9  N   UNK N   1       2.805  -1.187  -0.052  0.00  0.00    -0.327 N 
ATOM     10  HN  UNK N   1       3.695  -1.681   0.007  1.00  0.00     0.169 HD
HETATM   11  S   UNK N   1      -1.083  -1.687  -0.409  0.00  0.00    -0.087 SA
ENDROOT
BRANCH   2  12
HETATM   12  C   UNK N   1      -3.346  -0.050  -0.389  0.00  0.00     0.318 C 
BRANCH  12  13
HETATM   13  N   UNK N   1      -4.137  -0.613   0.736  0.00  0.00     0.095 N 
HETATM   14  C   UNK N   1      -5.395  -1.165   0.247  0.00  0.00     0.288 C 
HETATM   15  C   UNK N   1      -5.141  -2.399  -0.619  0.00  0.00     0.137 C 
HETATM   16  N   UNK N   1      -4.374  -3.458   0.068  0.00  0.00    -0.208 NA
HETATM   17  C   UNK N   1      -3.305  -2.982   0.963  0.00  0.00     0.137 C 
HETATM   18  C   UNK N   1      -3.522  -1.610   1.623  0.00  0.00     0.288 C 
BRANCH  16  19
HETATM   19  S   UNK N   1      -5.356  -4.726   0.861  0.00  0.00     0.207 S 
HETATM   20  C   UNK N   1      -5.444  -6.525   0.634  0.00  0.00     0.180 C 
HETATM   21  O   UNK N   1      -4.100  -5.475   0.374  0.00  0.00    -0.212 OA
HETATM   22  O   UNK N   1      -6.149  -4.832  -0.452  0.00  0.00    -0.212 OA
ENDBRANCH  16  19
ENDBRANCH  12  13
ENDBRANCH   2  12
BRANCH   6  23
HETATM   23  N   UNK N   1       1.704  -3.343  -0.093  0.00  0.00    -0.362 N 
HETATM   24  C   UNK N   1       0.499  -4.142   0.052  0.00  0.00     0.150 C 
HETATM   25  C   UNK N   1       0.681  -5.462  -0.690  0.00  0.00     0.187 C 
HETATM   26  O   UNK N   1       1.829  -6.106  -0.196  0.00  0.00    -0.388 OA
HETATM   27  C   UNK N   1       2.930  -5.358  -0.655  0.00  0.00     0.187 C 
HETATM   28  C   UNK N   1       2.977  -4.013   0.076  0.00  0.00     0.150 C 
ENDBRANCH   6  23
BRANCH   5  29
HETATM   29  C   UNK N   1       4.095   0.908   0.051  0.00  0.00     0.022 A 
HETATM   30  C   UNK N   1       4.130   2.319   0.086  0.00  0.00     0.016 A 
HETATM   31  C   UNK N   1       5.365   3.006   0.148  0.00  0.00     0.003 A 
HETATM   32  C   UNK N   1       6.579   2.295   0.173  0.00  0.00     0.032 A 
HETATM   33  C   UNK N   1       6.511   0.907   0.137  0.00  0.00     0.060 A 
HETATM   34  C   UNK N   1       5.328   0.235   0.079  0.00  0.00     0.023 A 
HETATM   35  N   UNK N   1       7.529   0.036   0.147  0.00  0.00    -0.300 N 
HETATM   36  C   UNK N   1       5.661  -1.104   0.055  0.00  0.00     0.121 A 
HETATM   37  N   UNK N   1       7.014  -1.189   0.098  0.00  0.00    -0.311 N 
ATOM     38  HN  UNK N   1       7.551  -2.056   0.093  1.00  0.00     0.186 HD
HETATM   39  H   UNK N   1       8.486   0.262   0.185  0.00  0.00     0.187 HD
ENDBRANCH   5  29
TORSDOF 5
