REMARK  1 active torsions:
REMARK  status: ('A' for Active; 'I' for Inactive)
REMARK    1  A    between atoms: C_10  and  C_3 
ROOT
HETATM    1  C   UNK N   1      -0.030   2.933  -0.483  0.00  0.00     0.023 A 
HETATM    2  C   UNK N   1       0.418   1.613  -0.330  0.00  0.00     0.014 A 
HETATM    3  C   UNK N   1      -0.482   0.611   0.081  0.00  0.00     0.004 A 
HETATM    4  C   UNK N   1      -1.815   0.938   0.332  0.00  0.00     0.126 A 
HETATM    5  C   UNK N   1      -2.252   2.243   0.185  0.00  0.00     0.065 A 
HETATM    6  C   UNK N   1      -1.372   3.239  -0.216  0.00  0.00     0.047 A 
HETATM    7  C   UNK N   1      -1.885   4.566  -0.353  0.00  0.00     0.099 C 
HETATM    8  N   UNK N   1      -2.357   5.617  -0.445  0.00  0.00    -0.191 NA
HETATM    9  F   UNK N   1      -2.689  -0.008   0.751  0.00  0.00    -0.205 F 
ENDROOT
BRANCH   3  10
HETATM   10  C   UNK N   1      -0.047  -0.786   0.380  0.00  0.00     0.127 C 
HETATM   11  C   UNK N   1      -0.733  -1.988  -0.310  0.00  0.00     0.036 C 
HETATM   12  C   UNK N   1       0.309  -3.143  -0.212  0.00  0.00     0.061 C 
HETATM   13  C   UNK N   1       1.542  -2.351  -0.008  0.00  0.00     0.028 A 
HETATM   14  N   UNK N   1       1.339  -1.092   0.246  0.00  0.00    -0.336 N 
HETATM   15  C   UNK N   1       2.892  -2.595  -0.050  0.00  0.00     0.114 A 
HETATM   16  C   UNK N   1       2.533  -0.500   0.371  0.00  0.00     0.183 A 
HETATM   17  N   UNK N   1       3.518  -1.411   0.181  0.00  0.00    -0.360 N 
ATOM     18  HN  UNK N   1       4.523  -1.242   0.206  1.00  0.00     0.166 HD
ENDBRANCH   3  10
TORSDOF 1
