REMARK  4 active torsions:
REMARK  status: ('A' for Active; 'I' for Inactive)
REMARK       I    between atoms: C_2  and  N_4 
REMARK    1  A    between atoms: N_4  and  C_5 
REMARK    2  A    between atoms: C_6  and  C_5 
REMARK    3  A    between atoms: N_8  and  C_12 
REMARK    4  A    between atoms: C_15  and  N_19 
ROOT
HETATM    1  C   UNK N   1       1.231  -5.697  -0.182  0.00  0.00     0.042 A 
HETATM    2  C   UNK N   1       2.615  -5.495  -0.220  0.00  0.00     0.032 A 
HETATM    3  C   UNK N   1       3.494  -6.566  -0.089  0.00  0.00     0.035 A 
HETATM    4  C   UNK N   1       3.021  -7.878   0.065  0.00  0.00     0.069 A 
HETATM    5  C   UNK N   1       1.617  -8.091   0.065  0.00  0.00     0.145 A 
HETATM    6  C   UNK N   1       0.741  -7.003  -0.046  0.00  0.00     0.074 A 
HETATM    7  F   UNK N   1       1.085  -9.331   0.200  0.00  0.00    -0.204 F 
ENDROOT
BRANCH   1   8
HETATM    8  N   UNK N   1       0.360  -4.566  -0.259  0.00  0.00    -0.291 N 
HETATM    9  C   UNK N   1       0.828  -3.237  -0.522  0.00  0.00     0.168 A 
HETATM   10  C   UNK N   1      -0.470  -2.398  -0.447  0.00  0.00     0.170 A 
HETATM   11  O   UNK N   1      -1.474  -3.312  -0.160  0.00  0.00    -0.295 OA
HETATM   12  C   UNK N   1      -0.963  -4.543  -0.067  0.00  0.00     0.368 A 
HETATM   13  O   UNK N   1      -1.635  -5.524   0.201  0.00  0.00    -0.238 OA
BRANCH  10  14
HETATM   14  C   UNK N   1      -0.315  -1.402   0.685  0.00  0.00     0.156 C 
BRANCH  14  15
HETATM   15  N   UNK N   1      -1.192  -0.279   0.482  0.00  0.00    -0.359 N 
HETATM   16  C   UNK N   1      -0.707   0.929   0.109  0.00  0.00     0.213 C 
HETATM   17  C   UNK N   1      -1.638   2.076  -0.063  0.00  0.00     0.117 C 
HETATM   18  O   UNK N   1       0.489   1.085  -0.098  0.00  0.00    -0.274 OA
HETATM   19  H   UNK N   1      -2.161  -0.390   0.616  0.00  0.00     0.162 HD
ENDBRANCH  14  15
ENDBRANCH  10  14
ENDBRANCH   1   8
BRANCH   4  20
HETATM   20  N   UNK N   1       3.965  -8.942   0.264  0.00  0.00    -0.377 N 
HETATM   21  C   UNK N   1       5.376  -8.629   0.426  0.00  0.00     0.133 C 
HETATM   22  C   UNK N   1       6.230  -9.507  -0.476  0.00  0.00     0.093 C 
HETATM   23  S   UNK N   1       6.065 -11.230   0.080  0.00  0.00    -0.166 SA
HETATM   24  C   UNK N   1       4.317 -11.260  -0.423  0.00  0.00     0.093 C 
HETATM   25  C   UNK N   1       3.536 -10.312   0.477  0.00  0.00     0.133 C 
ENDBRANCH   4  20
TORSDOF 4
