REMARK  6 active torsions:
REMARK  status: ('A' for Active; 'I' for Inactive)
REMARK    1  A    between atoms: C_4  and  N_20 
REMARK    2  A    between atoms: C_7  and  O_8 
REMARK    3  A    between atoms: O_8  and  C_9 
REMARK    4  A    between atoms: N_20  and  C_21 
REMARK    5  A    between atoms: C_24  and  N_33 
REMARK    6  A    between atoms: N_33  and  C_34 
ROOT
HETATM    1  C   UNK N   1       1.675  -0.042   0.816  0.00  0.00     0.119 A 
HETATM    2  C   UNK N   1       2.536  -0.628  -0.111  0.00  0.00     0.037 A 
HETATM    3  C   UNK N   1       3.823  -0.129  -0.330  0.00  0.00     0.047 A 
HETATM    4  C   UNK N   1       4.634  -0.708  -1.311  0.00  0.00     0.036 A 
HETATM    5  C   UNK N   1       4.157  -1.776  -2.076  0.00  0.00     0.032 A 
HETATM    6  C   UNK N   1       2.875  -2.281  -1.859  0.00  0.00     0.033 A 
HETATM    7  C   UNK N   1       2.067  -1.722  -0.870  0.00  0.00     0.047 A 
HETATM    8  N   UNK N   1       0.819  -2.209  -0.660  0.00  0.00    -0.352 N 
ATOM      9  HN  UNK N   1       0.488  -3.005  -1.206  1.00  0.00     0.166 HD
HETATM   10  C   UNK N   1       0.006  -1.647   0.269  0.00  0.00     0.182 A 
HETATM   11  N   UNK N   1       0.424  -0.565   0.975  0.00  0.00    -0.338 N 
ATOM     12  HN  UNK N   1      -0.214  -0.131   1.642  1.00  0.00     0.168 HD
ENDROOT
BRANCH   1  13
HETATM   13  N   UNK N   1       2.029   1.195   1.439  0.00  0.00    -0.342 N 
HETATM   14  H   UNK N   1       2.915   1.326   1.847  0.00  0.00     0.167 HD
BRANCH  13  15
HETATM   15  C   UNK N   1       1.058   2.223   1.448  0.00  0.00     0.034 C 
HETATM   16  C   UNK N   1       1.269   3.339   0.622  0.00  0.00     0.039 C 
HETATM   17  C   UNK N   1       0.185   4.110   0.177  0.00  0.00    -0.026 C 
HETATM   18  C   UNK N   1       0.425   5.220  -0.787  0.00  0.00     0.051 C 
HETATM   19  C   UNK N   1      -1.118   3.713   0.520  0.00  0.00     0.082 C 
HETATM   20  C   UNK N   1      -1.301   2.665   1.436  0.00  0.00     0.040 C 
HETATM   21  C   UNK N   1      -0.230   1.927   1.886  0.00  0.00     0.032 C 
BRANCH  19  22
HETATM   22  O   UNK N   1      -2.212   4.235  -0.092  0.00  0.00    -0.310 OA
BRANCH  22  23
HETATM   23  C   UNK N   1      -3.183   3.353  -0.451  0.00  0.00     0.081 A 
HETATM   24  C   UNK N   1      -2.836   2.225  -1.248  0.00  0.00     0.056 A 
HETATM   25  C   UNK N   1      -3.756   1.186  -1.425  0.00  0.00     0.121 A 
HETATM   26  N   UNK N   1      -4.949   1.296  -0.802  0.00  0.00    -0.250 N 
HETATM   27  C   UNK N   1      -5.313   2.349  -0.071  0.00  0.00     0.130 A 
HETATM   28  N   UNK N   1      -5.927   0.414  -0.786  0.00  0.00    -0.288 N 
HETATM   29  C   UNK N   1      -4.457   3.430   0.134  0.00  0.00     0.087 A 
HETATM   30  N   UNK N   1      -6.540   2.180   0.444  0.00  0.00    -0.336 N 
HETATM   31  C   UNK N   1      -6.906   0.953  -0.019  0.00  0.00     0.199 A 
ATOM     32  HN  UNK N   1      -7.071   2.817   1.039  1.00  0.00     0.168 HD
ATOM     33  HN  UNK N   1      -5.944  -0.492  -1.254  1.00  0.00     0.188 HD
ENDBRANCH  22  23
ENDBRANCH  19  22
ENDBRANCH  13  15
ENDBRANCH   1  13
BRANCH   4  34
HETATM   34  N   UNK N   1       5.990  -0.346  -1.413  0.00  0.00    -0.322 N 
HETATM   35  H   UNK N   1       6.319   0.153  -2.196  0.00  0.00     0.169 HD
BRANCH  34  36
HETATM   36  C   UNK N   1       6.873  -0.714  -0.369  0.00  0.00     0.220 A 
HETATM   37  N   UNK N   1       8.130  -0.590  -0.459  0.00  0.00    -0.346 N 
HETATM   38  C   UNK N   1       8.755  -1.158   0.704  0.00  0.00     0.048 A 
ATOM     39  HN  UNK N   1       8.623  -0.154  -1.238  1.00  0.00     0.164 HD
HETATM   40  C   UNK N   1       7.549  -1.627   1.547  0.00  0.00     0.209 A 
HETATM   41  C   UNK N   1       9.570  -0.121   1.447  0.00  0.00     0.040 C 
HETATM   42  C   UNK N   1       9.616  -2.341   0.305  0.00  0.00     0.040 C 
HETATM   43  O   UNK N   1       6.465  -1.308   0.757  0.00  0.00    -0.320 OA
ENDBRANCH  34  36
ENDBRANCH   4  34
TORSDOF 6
