REMARK  8 active torsions:
REMARK  status: ('A' for Active; 'I' for Inactive)
REMARK       I    between atoms: C_2  and  N_4 
REMARK    1  A    between atoms: C_5  and  N_4 
REMARK    2  A    between atoms: C_10  and  O_29 
REMARK    3  A    between atoms: C_11  and  O_27 
REMARK    4  A    between atoms: C_12  and  O_25 
REMARK    5  A    between atoms: C_17  and  O_20 
REMARK    6  A    between atoms: O_20  and  P_21 
REMARK    7  A    between atoms: P_21  and  O_23 
REMARK    8  A    between atoms: P_21  and  O_24 
ROOT
HETATM    1  C   UNK N   1       2.440   2.343  -0.724  0.00  0.00     0.119 C 
HETATM    2  C   UNK N   1       3.900   2.691  -0.859  0.00  0.00     0.034 C 
HETATM    3  C   UNK N   1       4.591   2.451   0.450  0.00  0.00     0.042 C 
HETATM    4  C   UNK N   1       5.240   1.133   0.353  0.00  0.00    -0.041 A 
HETATM    5  C   UNK N   1       6.632   1.127   0.385  0.00  0.00     0.047 A 
HETATM    6  C   UNK N   1       7.361  -0.057   0.266  0.00  0.00     0.104 A 
HETATM    7  C   UNK N   1       6.692  -1.271   0.137  0.00  0.00     0.136 A 
HETATM    8  C   UNK N   1       5.268  -1.301   0.140  0.00  0.00     0.116 A 
HETATM    9  C   UNK N   1       4.510  -0.074   0.224  0.00  0.00     0.017 A 
HETATM   10  C   UNK N   1       2.982  -0.132   0.116  0.00  0.00    -0.014 C 
HETATM   11  C   UNK N   1       2.098   0.907  -0.363  0.00  0.00    -0.022 C 
HETATM   12  C   UNK N   1       0.755   0.573  -0.611  0.00  0.00     0.047 C 
HETATM   13  C   UNK N   1       0.225  -0.680  -0.341  0.00  0.00     0.081 C 
HETATM   14  C   UNK N   1       1.037  -1.627   0.264  0.00  0.00     0.038 C 
HETATM   15  C   UNK N   1       2.379  -1.356   0.461  0.00  0.00     0.016 C 
ENDROOT
BRANCH  13  16
HETATM   16  O   UNK N   1      -1.060  -0.949  -0.725  0.00  0.00    -0.255 OA
BRANCH  16  17
HETATM   17  P   UNK N   1      -2.147  -2.211  -0.202  0.00  0.00     0.396 P 
HETATM   18  O   UNK N   1      -1.512  -2.877   1.048  0.00  0.00    -0.631 OA
BRANCH  17  19
HETATM   19  O   UNK N   1      -0.836  -3.143  -0.868  0.00  0.00    -0.307 OA
HETATM   20  H   UNK N   1      -0.920  -4.035  -1.239  0.00  0.00     0.222 HD
ENDBRANCH  17  19
BRANCH  17  21
HETATM   21  O   UNK N   1      -2.154  -0.972   1.014  0.00  0.00    -0.307 OA
HETATM   22  H   UNK N   1      -1.556  -0.623   1.693  0.00  0.00     0.222 HD
ENDBRANCH  17  21
ENDBRANCH  16  17
ENDBRANCH  13  16
BRANCH   1  23
HETATM   23  N   UNK N   1       1.825   3.263   0.221  0.00  0.00    -0.353 N 
HETATM   24  C   UNK N   1       0.504   3.577   0.248  0.00  0.00     0.214 C 
HETATM   25  C   UNK N   1      -0.009   4.490   1.305  0.00  0.00     0.117 C 
HETATM   26  O   UNK N   1      -0.270   3.127  -0.582  0.00  0.00    -0.274 OA
HETATM   27  H   UNK N   1       2.409   3.689   0.889  0.00  0.00     0.163 HD
ENDBRANCH   1  23
BRANCH   8  28
HETATM   28  O   UNK N   1       4.624  -2.481   0.018  0.00  0.00    -0.352 OA
HETATM   29  C   UNK N   1       4.606  -3.397   1.049  0.00  0.00     0.210 C 
ENDBRANCH   8  28
BRANCH   7  30
HETATM   30  O   UNK N   1       7.464  -2.387  -0.027  0.00  0.00    -0.351 OA
HETATM   31  C   UNK N   1       7.044  -3.605  -0.508  0.00  0.00     0.210 C 
ENDBRANCH   7  30
BRANCH   6  32
HETATM   32  O   UNK N   1       8.716  -0.046   0.240  0.00  0.00    -0.353 OA
HETATM   33  C   UNK N   1       9.471   1.104   0.282  0.00  0.00     0.210 C 
ENDBRANCH   6  32
TORSDOF 8
