REMARK  17 active torsions:
REMARK  status: ('A' for Active; 'I' for Inactive)
REMARK    1  A    between atoms: C_3  and  C_2 
REMARK    2  A    between atoms: C_11  and  C_81 
REMARK    3  A    between atoms: C_15  and  C_78 
REMARK    4  A    between atoms: C_19  and  C_73 
REMARK    5  A    between atoms: C_31  and  C_66 
REMARK    6  A    between atoms: C_35  and  C_61 
REMARK    7  A    between atoms: C_39  and  C_57 
REMARK    8  A    between atoms: C_43  and  C_47 
REMARK    9  A    between atoms: C_47  and  C_48 
REMARK   10  A    between atoms: C_47  and  O_55 
REMARK   11  A    between atoms: C_48  and  C_50 
REMARK   12  A    between atoms: C_50  and  C_51 
REMARK   13  A    between atoms: C_52  and  C_53 
REMARK   14  A    between atoms: C_61  and  C_62 
REMARK   15  A    between atoms: C_66  and  C_67 
REMARK   16  A    between atoms: C_73  and  C_74 
REMARK   17  A    between atoms: C_81  and  C_82 
ROOT
HETATM    1  C   UNK N   1       3.787   1.818   0.533  0.00  0.00     0.176 C 
HETATM    2  C   UNK N   1       2.589   1.661  -0.398  0.00  0.00     0.242 C 
HETATM    3  O   UNK N   1       2.162   2.695  -0.911  0.00  0.00    -0.271 OA
HETATM    4  N   UNK N   1       1.914   0.489  -0.650  0.00  0.00    -0.346 N 
HETATM    5  C   UNK N   1       0.661   0.521  -1.327  0.00  0.00     0.228 C 
HETATM    6  C   UNK N   1      -0.343   1.241  -0.468  0.00  0.00     0.238 C 
HETATM    7  O   UNK N   1      -0.833   2.249  -0.926  0.00  0.00    -0.272 OA
HETATM    8  N   UNK N   1      -0.717   0.764   0.775  0.00  0.00    -0.342 N 
HETATM    9  C   UNK N   1      -1.904   1.266   1.468  0.00  0.00     0.179 C 
HETATM   10  C   UNK N   1      -3.071   0.641   0.804  0.00  0.00     0.241 C 
HETATM   11  O   UNK N   1      -3.113   0.673  -0.414  0.00  0.00    -0.271 OA
HETATM   12  N   UNK N   1      -3.870  -0.206   1.504  0.00  0.00    -0.346 N 
HETATM   13  C   UNK N   1      -4.577  -1.288   0.839  0.00  0.00     0.180 C 
HETATM   14  C   UNK N   1      -3.481  -2.213   0.271  0.00  0.00     0.243 C 
HETATM   15  O   UNK N   1      -2.379  -2.154   0.802  0.00  0.00    -0.271 OA
HETATM   16  N   UNK N   1      -3.647  -3.092  -0.757  0.00  0.00    -0.341 N 
HETATM   17  C   UNK N   1      -4.947  -3.597  -1.091  0.00  0.00     0.179 C 
HETATM   18  C   UNK N   1      -5.206  -4.919  -0.496  0.00  0.00     0.241 C 
HETATM   19  O   UNK N   1      -5.383  -4.983   0.709  0.00  0.00    -0.271 OA
HETATM   20  N   UNK N   1      -5.211  -6.033  -1.265  0.00  0.00    -0.346 N 
HETATM   21  C   UNK N   1      -5.432  -7.351  -0.718  0.00  0.00     0.172 C 
HETATM   22  C   UNK N   1      -4.312  -7.793   0.173  0.00  0.00     0.240 C 
HETATM   23  O   UNK N   1      -4.024  -7.178   1.191  0.00  0.00    -0.271 OA
HETATM   24  N   UNK N   1      -3.667  -8.926  -0.144  0.00  0.00    -0.346 N 
HETATM   25  C   UNK N   1      -2.676  -9.519   0.703  0.00  0.00     0.172 C 
HETATM   26  C   UNK N   1      -1.293  -8.928   0.617  0.00  0.00     0.242 C 
HETATM   27  O   UNK N   1      -0.607  -9.035   1.622  0.00  0.00    -0.271 OA
HETATM   28  N   UNK N   1      -0.702  -8.635  -0.596  0.00  0.00    -0.341 N 
HETATM   29  C   UNK N   1       0.671  -9.061  -0.816  0.00  0.00     0.179 C 
HETATM   30  C   UNK N   1       1.863  -8.158  -0.715  0.00  0.00     0.243 C 
HETATM   31  O   UNK N   1       2.749  -8.372  -1.531  0.00  0.00    -0.271 OA
HETATM   32  N   UNK N   1       2.142  -7.413   0.393  0.00  0.00    -0.341 N 
HETATM   33  C   UNK N   1       3.514  -7.319   0.844  0.00  0.00     0.179 C 
HETATM   34  C   UNK N   1       4.301  -6.065   0.762  0.00  0.00     0.243 C 
HETATM   35  O   UNK N   1       4.657  -5.552   1.809  0.00  0.00    -0.271 OA
HETATM   36  N   UNK N   1       4.734  -5.586  -0.443  0.00  0.00    -0.341 N 
HETATM   37  C   UNK N   1       5.649  -4.483  -0.549  0.00  0.00     0.182 C 
HETATM   38  C   UNK N   1       5.026  -3.168  -0.231  0.00  0.00     0.243 C 
HETATM   39  O   UNK N   1       4.512  -2.578  -1.167  0.00  0.00    -0.271 OA
HETATM   40  N   UNK N   1       4.707  -2.820   1.049  0.00  0.00    -0.339 N 
HETATM   41  C   UNK N   1       5.226  -1.566   1.589  0.00  0.00     0.207 C 
HETATM   42  C   UNK N   1       4.868  -0.362   0.764  0.00  0.00     0.243 C 
HETATM   43  O   UNK N   1       5.204  -0.302  -0.408  0.00  0.00    -0.271 OA
HETATM   44  N   UNK N   1       4.147   0.643   1.304  0.00  0.00    -0.346 N 
HETATM   45  C   UNK N   1       3.357  -3.112   1.470  0.00  0.00     0.153 C 
HETATM   46  C   UNK N   1       4.328  -6.188  -1.682  0.00  0.00     0.153 C 
HETATM   47  C   UNK N   1       1.113  -6.980   1.301  0.00  0.00     0.153 C 
HETATM   48  C   UNK N   1      -1.497  -8.473  -1.787  0.00  0.00     0.153 C 
HETATM   49  C   UNK N   1      -2.549 -10.984   0.325  0.00  0.00     0.042 C 
HETATM   50  C   UNK N   1      -6.773  -7.435  -0.004  0.00  0.00     0.042 C 
HETATM   51  C   UNK N   1      -2.493  -3.820  -1.243  0.00  0.00     0.153 C 
HETATM   52  C   UNK N   1      -0.144  -0.447   1.301  0.00  0.00     0.153 C 
HETATM   53  C   UNK N   1       2.326  -0.808  -0.195  0.00  0.00     0.153 C 
HETATM   54  H   UNK N   1      -3.971  -0.085   2.475  0.00  0.00     0.163 HD
HETATM   55  H   UNK N   1      -5.058  -5.941  -2.233  0.00  0.00     0.163 HD
HETATM   56  H   UNK N   1      -3.885  -9.370  -0.995  0.00  0.00     0.163 HD
HETATM   57  H   UNK N   1       3.858   0.577   2.243  0.00  0.00     0.163 HD
ENDROOT
BRANCH  41  58
HETATM   58  C   UNK N   1       6.727  -1.652   1.922  0.00  0.00     0.154 C 
BRANCH  58  59
HETATM   59  C   UNK N   1       7.637  -1.614   0.679  0.00  0.00     0.016 C 
HETATM   60  C   UNK N   1       8.999  -2.228   0.944  0.00  0.00     0.013 C 
BRANCH  59  61
HETATM   61  C   UNK N   1       7.872  -0.166   0.276  0.00  0.00     0.034 C 
BRANCH  61  62
HETATM   62  C   UNK N   1       7.891  -0.015  -1.214  0.00  0.00    -0.026 C 
HETATM   63  C   UNK N   1       8.146   1.145  -1.843  0.00  0.00    -0.005 C 
BRANCH  63  64
HETATM   64  C   UNK N   1       8.533   2.428  -1.205  0.00  0.00    -0.011 C 
HETATM   65  C   UNK N   1       8.939   2.532   0.061  0.00  0.00     0.011 C 
ENDBRANCH  63  64
ENDBRANCH  61  62
ENDBRANCH  59  61
ENDBRANCH  58  59
BRANCH  58  66
HETATM   66  O   UNK N   1       6.948  -2.789   2.703  0.00  0.00    -0.393 OA
HETATM   67  H   UNK N   1       6.340  -3.317   3.245  0.00  0.00     0.210 HD
ENDBRANCH  58  66
ENDBRANCH  41  58
BRANCH  37  68
HETATM   68  C   UNK N   1       7.112  -4.771  -0.156  0.00  0.00     0.009 C 
HETATM   69  C   UNK N   1       7.707  -5.792  -1.105  0.00  0.00     0.012 C 
HETATM   70  C   UNK N   1       7.323  -5.257   1.265  0.00  0.00     0.012 C 
ENDBRANCH  37  68
BRANCH   1  71
HETATM   71  C   UNK N   1       5.029   2.436  -0.128  0.00  0.00     0.030 C 
HETATM   72  C   UNK N   1       4.779   3.821  -0.690  0.00  0.00     0.007 C 
ENDBRANCH   1  71
BRANCH  33  73
HETATM   73  C   UNK N   1       4.279  -8.629   1.042  0.00  0.00     0.039 C 
BRANCH  73  74
HETATM   74  C   UNK N   1       5.522  -8.679   0.160  0.00  0.00    -0.020 C 
HETATM   75  C   UNK N   1       6.695  -9.185   0.966  0.00  0.00     0.009 C 
HETATM   76  C   UNK N   1       5.315  -9.568  -1.049  0.00  0.00     0.009 C 
ENDBRANCH  73  74
ENDBRANCH  33  73
BRANCH  29  77
HETATM   77  C   UNK N   1       0.958 -10.420  -0.156  0.00  0.00     0.039 C 
BRANCH  77  78
HETATM   78  C   UNK N   1       2.222 -11.091  -0.641  0.00  0.00    -0.020 C 
HETATM   79  C   UNK N   1       2.928 -11.702   0.549  0.00  0.00     0.009 C 
HETATM   80  C   UNK N   1       1.853 -12.177  -1.625  0.00  0.00     0.009 C 
ENDBRANCH  77  78
ENDBRANCH  29  77
BRANCH   9  81
HETATM   81  C   UNK N   1      -1.980   2.780   1.731  0.00  0.00     0.039 C 
BRANCH  81  82
HETATM   82  C   UNK N   1      -2.505   3.639   0.577  0.00  0.00    -0.020 C 
HETATM   83  C   UNK N   1      -2.240   5.096   0.868  0.00  0.00     0.009 C 
HETATM   84  C   UNK N   1      -3.989   3.441   0.322  0.00  0.00     0.009 C 
ENDBRANCH  81  82
ENDBRANCH   9  81
BRANCH  13  85
HETATM   85  C   UNK N   1      -5.715  -0.773  -0.091  0.00  0.00     0.009 C 
HETATM   86  C   UNK N   1      -5.330  -0.164  -1.432  0.00  0.00     0.012 C 
HETATM   87  C   UNK N   1      -6.644   0.182   0.636  0.00  0.00     0.012 C 
ENDBRANCH  13  85
BRANCH  17  88
HETATM   88  C   UNK N   1      -5.850  -2.970  -2.149  0.00  0.00     0.039 C 
BRANCH  88  89
HETATM   89  C   UNK N   1      -7.344  -3.195  -1.838  0.00  0.00    -0.020 C 
HETATM   90  C   UNK N   1      -7.783  -4.580  -2.260  0.00  0.00     0.009 C 
HETATM   91  C   UNK N   1      -7.713  -2.978  -0.372  0.00  0.00     0.009 C 
ENDBRANCH  88  89
ENDBRANCH  17  88
TORSDOF 17
