REMARK  3 active torsions:
REMARK  status: ('A' for Active; 'I' for Inactive)
REMARK    1  A    between atoms: C_8  and  C_6 
REMARK    2  A    between atoms: O_21  and  C_6 
REMARK    3  A    between atoms: O_21  and  C_11 
REMARK       I    between atoms: N_13  and  C_12 
ROOT
HETATM    1  C   UNK N   1      -1.605  -1.001   0.419  0.00  0.00     0.182 A 
HETATM    2  C   UNK N   1       0.488  -0.632   0.301  0.00  0.00     0.130 A 
HETATM    3  C   UNK N   1       0.256  -1.894  -0.092  0.00  0.00     0.153 A 
HETATM    4  C   UNK N   1       1.774  -0.126   0.296  0.00  0.00     0.188 A 
HETATM    5  C   UNK N   1       2.530  -2.243  -0.501  0.00  0.00     0.679 A 
HETATM    6  N   UNK N   1       3.491  -3.000  -0.865  0.00  0.00    -0.234 N 
ATOM      7  HN  UNK N   1       4.438  -2.621  -0.865  1.00  0.00     0.174 HD
HETATM    8  N   UNK N   1      -0.666  -0.038   0.631  0.00  0.00    -0.346 N 
ATOM      9  HN  UNK N   1      -0.808   0.916   0.964  1.00  0.00     0.167 HD
HETATM   10  N   UNK N   1      -1.054  -2.162  -0.030  0.00  0.00    -0.336 N 
HETATM   11  N   UNK N   1       1.246  -2.725  -0.493  0.00  0.00    -0.174 N 
HETATM   12  N   UNK N   1       2.786  -0.948  -0.116  0.00  0.00    -0.168 N 
ATOM     13  HN  UNK N   1       3.743  -0.596  -0.138  1.00  0.00     0.186 HD
HETATM   14  H   UNK N   1       3.357  -3.933  -1.147  0.00  0.00     0.174 HD
HETATM   15  H   UNK N   1      -1.513  -3.003  -0.256  0.00  0.00     0.168 HD
HETATM   16  H   UNK N   1       1.050  -3.649  -0.771  0.00  0.00     0.186 HD
ENDROOT
BRANCH   4  17
HETATM   17  O   UNK N   1       2.003   1.142   0.680  0.00  0.00    -0.329 OA
BRANCH  17  18
HETATM   18  C   UNK N   1       3.080   1.868   0.235  0.00  0.00     0.216 C 
BRANCH  18  19
HETATM   19  C   UNK N   1       2.624   3.268  -0.006  0.00  0.00    -0.034 A 
HETATM   20  C   UNK N   1       1.316   3.520  -0.450  0.00  0.00     0.009 A 
HETATM   21  C   UNK N   1       0.864   4.832  -0.598  0.00  0.00     0.001 A 
HETATM   22  C   UNK N   1       1.719   5.898  -0.309  0.00  0.00     0.000 A 
HETATM   23  C   UNK N   1       3.026   5.651   0.124  0.00  0.00     0.001 A 
HETATM   24  C   UNK N   1       3.477   4.337   0.282  0.00  0.00     0.009 A 
ENDBRANCH  18  19
ENDBRANCH  17  18
ENDBRANCH   4  17
TORSDOF 3
