REMARK  11 active torsions:
REMARK  status: ('A' for Active; 'I' for Inactive)
REMARK    1  A    between atoms: N_2  and  C_3 
REMARK       I    between atoms: N_2  and  C_27 
REMARK    2  A    between atoms: C_3  and  C_4 
REMARK    3  A    between atoms: C_4  and  N_5 
REMARK    4  A    between atoms: C_8  and  O_11 
REMARK    5  A    between atoms: O_11  and  C_12 
REMARK       I    between atoms: C_12  and  N_14 
REMARK    6  A    between atoms: N_14  and  C_15 
REMARK    7  A    between atoms: C_20  and  C_21 
REMARK    8  A    between atoms: C_27  and  C_29 
REMARK    9  A    between atoms: C_32  and  C_35 
REMARK   10  A    between atoms: C_35  and  N_36 
REMARK   11  A    between atoms: C_39  and  C_42 
REMARK       I    between atoms: C_42  and  N_44 
ROOT
HETATM    1  C   UNK N   1      -1.121  -4.583   0.159  0.00  0.00     0.292 C 
ENDROOT
BRANCH   1   2
HETATM    2  C   UNK N   1      -2.187  -4.013   1.110  0.00  0.00     0.156 C 
BRANCH   2   3
HETATM    3  N   UNK N   1      -2.625  -2.693   0.689  0.00  0.00    -0.351 N 
HETATM    4  C   UNK N   1      -1.603  -1.717   0.392  0.00  0.00     0.153 C 
HETATM    5  C   UNK N   1      -3.968  -2.379   0.687  0.00  0.00     0.253 C 
HETATM    6  O   UNK N   1      -4.776  -3.230   1.030  0.00  0.00    -0.267 OA
BRANCH   5   7
HETATM    7  C   UNK N   1      -4.501  -1.018   0.328  0.00  0.00     0.032 A 
HETATM    8  C   UNK N   1      -5.863  -0.737   0.542  0.00  0.00     0.017 A 
HETATM    9  C   UNK N   1      -6.380   0.538   0.279  0.00  0.00     0.010 A 
HETATM   10  C   UNK N   1      -5.544   1.548  -0.221  0.00  0.00    -0.030 A 
HETATM   11  C   UNK N   1      -4.201   1.266  -0.462  0.00  0.00     0.010 A 
HETATM   12  C   UNK N   1      -3.685   0.000  -0.185  0.00  0.00     0.017 A 
BRANCH  10  13
HETATM   13  C   UNK N   1      -6.037   2.942  -0.491  0.00  0.00     0.311 C 
BRANCH  13  14
HETATM   14  N   UNK N   1      -7.389   3.187  -0.003  0.00  0.00     0.092 N 
HETATM   15  C   UNK N   1      -8.332   2.685  -1.004  0.00  0.00     0.273 C 
HETATM   16  C   UNK N   1      -9.764   2.949  -0.549  0.00  0.00     0.044 C 
HETATM   17  C   UNK N   1      -9.965   4.458  -0.394  0.00  0.00     0.081 C 
HETATM   18  C   UNK N   1      -8.927   5.014   0.579  0.00  0.00     0.044 C 
HETATM   19  C   UNK N   1      -7.528   4.641   0.095  0.00  0.00     0.273 C 
BRANCH  17  20
HETATM   20  C   UNK N   1     -11.354   4.820   0.055  0.00  0.00     0.219 C 
HETATM   21  O   UNK N   1     -12.172   3.953   0.324  0.00  0.00    -0.273 OA
HETATM   22  N   UNK N   1     -11.709   6.117   0.145  0.00  0.00    -0.370 N 
HETATM   23  H   UNK N   1     -11.017   6.815   0.211  0.00  0.00     0.159 HD
HETATM   24  H   UNK N   1     -12.661   6.367   0.145  0.00  0.00     0.159 HD
ENDBRANCH  17  20
ENDBRANCH  13  14
ENDBRANCH  10  13
ENDBRANCH   5   7
ENDBRANCH   2   3
ENDBRANCH   1   2
BRANCH   1  25
HETATM   25  N   UNK N   1      -1.616  -5.381  -0.975  0.00  0.00     0.090 N 
HETATM   26  C   UNK N   1      -1.440  -6.817  -0.742  0.00  0.00     0.275 C 
HETATM   27  C   UNK N   1      -2.496  -7.361   0.212  0.00  0.00     0.063 C 
HETATM   28  C   UNK N   1      -3.887  -7.067  -0.333  0.00  0.00     0.137 C 
HETATM   29  C   UNK N   1      -4.062  -5.579  -0.573  0.00  0.00     0.063 C 
HETATM   30  C   UNK N   1      -2.955  -5.046  -1.484  0.00  0.00     0.275 C 
BRANCH  28  31
HETATM   31  O   UNK N   1      -4.811  -7.504   0.581  0.00  0.00    -0.298 OA
BRANCH  31  32
HETATM   32  C   UNK N   1      -5.846  -8.269   0.191  0.00  0.00     0.365 C 
HETATM   33  O   UNK N   1      -6.680  -7.822  -0.584  0.00  0.00    -0.238 OA
HETATM   34  N   UNK N   1      -5.882  -9.562   0.583  0.00  0.00    -0.302 N 
HETATM   35  H   UNK N   1      -5.137  -9.884   1.139  0.00  0.00     0.171 HD
BRANCH  34  36
HETATM   36  C   UNK N   1      -6.901 -10.495   0.260  0.00  0.00     0.048 A 
HETATM   37  C   UNK N   1      -8.239 -10.077   0.178  0.00  0.00     0.030 A 
HETATM   38  C   UNK N   1      -9.253 -10.992  -0.101  0.00  0.00     0.002 A 
HETATM   39  C   UNK N   1      -8.943 -12.337  -0.295  0.00  0.00     0.001 A 
HETATM   40  C   UNK N   1      -7.617 -12.766  -0.223  0.00  0.00     0.014 A 
HETATM   41  C   UNK N   1      -6.574 -11.863   0.051  0.00  0.00     0.001 A 
BRANCH  41  42
HETATM   42  C   UNK N   1      -5.162 -12.372   0.061  0.00  0.00    -0.024 A 
HETATM   43  C   UNK N   1      -4.062 -11.502   0.182  0.00  0.00     0.012 A 
HETATM   44  C   UNK N   1      -2.753 -11.984   0.147  0.00  0.00     0.001 A 
HETATM   45  C   UNK N   1      -2.519 -13.350  -0.009  0.00  0.00     0.000 A 
HETATM   46  C   UNK N   1      -3.596 -14.231  -0.131  0.00  0.00     0.001 A 
HETATM   47  C   UNK N   1      -4.908 -13.746  -0.102  0.00  0.00     0.012 A 
ENDBRANCH  41  42
ENDBRANCH  34  36
ENDBRANCH  31  32
ENDBRANCH  28  31
ENDBRANCH   1  25
TORSDOF 11
