REMARK  9 active torsions:
REMARK  status: ('A' for Active; 'I' for Inactive)
REMARK    1  A    between atoms: C_2  and  C_4 
REMARK    2  A    between atoms: C_5  and  C_4 
REMARK    3  A    between atoms: C_12  and  O_29 
REMARK    4  A    between atoms: C_13  and  O_27 
REMARK    5  A    between atoms: C_18  and  O_19 
REMARK    6  A    between atoms: O_19  and  C_20 
REMARK    7  A    between atoms: C_20  and  C_22 
REMARK    8  A    between atoms: C_22  and  C_23 
REMARK    9  A    between atoms: C_22  and  N_26 
ROOT
HETATM    1  C   UNK N   1       3.970  -2.202  -0.726  0.00  0.00     0.044 C 
HETATM    2  C   UNK N   1       2.655  -2.814  -0.229  0.00  0.00     0.280 C 
HETATM    3  N   UNK N   1       1.550  -1.875  -0.381  0.00  0.00     0.098 N 
HETATM    4  C   UNK N   1       0.302  -2.643  -0.180  0.00  0.00     0.278 C 
HETATM    5  C   UNK N   1      -0.821  -1.898   0.575  0.00  0.00     0.069 C 
HETATM    6  C   UNK N   1      -0.714  -0.417   0.404  0.00  0.00    -0.045 A 
HETATM    7  C   UNK N   1      -1.850   0.363   0.204  0.00  0.00     0.047 A 
HETATM    8  C   UNK N   1      -1.747   1.748   0.027  0.00  0.00     0.102 A 
HETATM    9  C   UNK N   1      -0.458   2.354   0.048  0.00  0.00     0.102 A 
HETATM   10  C   UNK N   1       0.682   1.546   0.244  0.00  0.00     0.049 A 
HETATM   11  C   UNK N   1       0.550   0.165   0.428  0.00  0.00    -0.016 A 
HETATM   12  C   UNK N   1       1.715  -0.773   0.594  0.00  0.00     0.259 C 
HETATM   13  C   UNK N   1       3.107  -0.096   0.516  0.00  0.00     0.073 C 
HETATM   14  C   UNK N   1       3.932  -0.664  -0.648  0.00  0.00     0.140 C 
ENDROOT
BRANCH  14  15
HETATM   15  O   UNK N   1       5.163  -0.059  -0.856  0.00  0.00    -0.314 OA
BRANCH  15  16
HETATM   16  C   UNK N   1       6.136   0.112   0.082  0.00  0.00     0.281 C 
HETATM   17  O   UNK N   1       5.927  -0.148   1.259  0.00  0.00    -0.263 OA
BRANCH  16  18
HETATM   18  C   UNK N   1       7.461   0.683  -0.342  0.00  0.00     0.178 C 
BRANCH  18  19
HETATM   19  C   UNK N   1       8.658  -0.015   0.322  0.00  0.00     0.009 C 
HETATM   20  C   UNK N   1       9.965   0.561  -0.195  0.00  0.00     0.012 C 
HETATM   21  C   UNK N   1       8.660  -1.513   0.074  0.00  0.00     0.012 C 
ENDBRANCH  18  19
BRANCH  18  22
HETATM   22  N   UNK N   1       7.485   2.105  -0.043  0.00  0.00    -0.418 N 
HETATM   23  H   UNK N   1       8.358   2.590   0.167  0.00  0.00     0.150 HD
HETATM   24  H   UNK N   1       6.610   2.630  -0.043  0.00  0.00     0.150 HD
ENDBRANCH  18  22
ENDBRANCH  16  18
ENDBRANCH  15  16
ENDBRANCH  14  15
BRANCH   1  25
HETATM   25  C   UNK N   1       5.160  -2.823   0.000  0.00  0.00     0.012 C 
BRANCH  25  26
HETATM   26  C   UNK N   1       5.360  -4.275  -0.405  0.00  0.00    -0.022 C 
HETATM   27  C   UNK N   1       4.595  -5.190   0.531  0.00  0.00     0.009 C 
HETATM   28  C   UNK N   1       6.832  -4.618  -0.338  0.00  0.00     0.009 C 
ENDBRANCH  25  26
ENDBRANCH   1  25
BRANCH   9  29
HETATM   29  O   UNK N   1      -0.327   3.693  -0.125  0.00  0.00    -0.353 OA
HETATM   30  C   UNK N   1       0.886   4.345  -0.124  0.00  0.00     0.210 C 
ENDBRANCH   9  29
BRANCH   8  31
HETATM   31  O   UNK N   1      -2.902   2.441  -0.158  0.00  0.00    -0.353 OA
HETATM   32  C   UNK N   1      -3.001   3.801  -0.343  0.00  0.00     0.210 C 
ENDBRANCH   8  31
TORSDOF 9
