REMARK  22 active torsions:
REMARK  status: ('A' for Active; 'I' for Inactive)
REMARK    1  A    between atoms: C_4  and  O_47 
REMARK    2  A    between atoms: C_7  and  C_8 
REMARK    3  A    between atoms: C_8  and  C_9 
REMARK    4  A    between atoms: C_9  and  C_10 
REMARK    5  A    between atoms: C_9  and  N_33 
REMARK       I    between atoms: C_10  and  N_12 
REMARK    6  A    between atoms: C_13  and  N_12 
REMARK    7  A    between atoms: C_13  and  C_14 
REMARK    8  A    between atoms: C_13  and  C_19 
REMARK    9  A    between atoms: C_14  and  C_15 
REMARK   10  A    between atoms: C_15  and  C_16 
REMARK   11  A    between atoms: C_16  and  C_17 
REMARK   12  A    between atoms: C_17  and  N_18 
REMARK       I    between atoms: C_19  and  N_21 
REMARK   13  A    between atoms: C_22  and  N_21 
REMARK   14  A    between atoms: C_22  and  C_23 
REMARK   15  A    between atoms: C_22  and  C_30 
REMARK   16  A    between atoms: C_23  and  C_24 
REMARK       I    between atoms: C_30  and  N_32 
REMARK       I    between atoms: N_33  and  C_34 
REMARK   17  A    between atoms: C_34  and  C_36 
REMARK   18  A    between atoms: C_36  and  C_37 
REMARK   19  A    between atoms: C_36  and  N_45 
REMARK   20  A    between atoms: C_37  and  C_38 
REMARK   21  A    between atoms: C_38  and  C_39 
REMARK   22  A    between atoms: C_39  and  N_40 
REMARK       I    between atoms: N_40  and  C_41 
REMARK       I    between atoms: C_41  and  N_44 
ROOT
HETATM    1  C   UNK N   1       6.005  -1.627   0.012  0.00  0.00     0.180 C 
ENDROOT
BRANCH   1   2
HETATM    2  C   UNK N   1       5.952  -2.557   1.231  0.00  0.00     0.074 C 
BRANCH   2   3
HETATM    3  C   UNK N   1       5.331  -3.923   1.007  0.00  0.00    -0.044 A 
HETATM    4  C   UNK N   1       3.979  -4.080   0.623  0.00  0.00    -0.052 A 
HETATM    5  C   UNK N   1       3.430  -5.355   0.476  0.00  0.00     0.043 A 
HETATM    6  C   UNK N   1       3.092  -2.920   0.390  0.00  0.00     0.049 C 
HETATM    7  C   UNK N   1       4.204  -6.488   0.709  0.00  0.00     0.066 A 
HETATM    8  C   UNK N   1       5.538  -6.352   1.089  0.00  0.00     0.043 A 
HETATM    9  C   UNK N   1       6.106  -5.082   1.239  0.00  0.00    -0.052 A 
HETATM   10  C   UNK N   1       7.532  -4.987   1.669  0.00  0.00     0.049 C 
BRANCH   7  11
HETATM   11  O   UNK N   1       3.660  -7.709   0.577  0.00  0.00    -0.361 OA
HETATM   12  H   UNK N   1       2.733  -7.807   0.484  0.00  0.00     0.217 HD
ENDBRANCH   7  11
ENDBRANCH   2   3
ENDBRANCH   1   2
BRANCH   1  13
HETATM   13  C   UNK N   1       4.955  -0.559   0.106  0.00  0.00     0.241 C 
HETATM   14  O   UNK N   1       4.914   0.172   1.084  0.00  0.00    -0.271 OA
HETATM   15  N   UNK N   1       4.080  -0.410  -0.924  0.00  0.00    -0.346 N 
HETATM   16  H   UNK N   1       4.167  -1.052  -1.666  0.00  0.00     0.163 HD
BRANCH  15  17
HETATM   17  C   UNK N   1       3.030   0.589  -1.055  0.00  0.00     0.176 C 
BRANCH  17  18
HETATM   18  C   UNK N   1       3.160   1.821  -0.170  0.00  0.00     0.035 C 
BRANCH  18  19
HETATM   19  C   UNK N   1       3.614   2.993  -1.019  0.00  0.00     0.004 C 
BRANCH  19  20
HETATM   20  C   UNK N   1       3.094   4.302  -0.445  0.00  0.00     0.019 C 
BRANCH  20  21
HETATM   21  C   UNK N   1       1.624   4.506  -0.784  0.00  0.00     0.111 C 
BRANCH  21  22
HETATM   22  N   UNK N   1       0.787   3.736   0.121  0.00  0.00    -0.430 N 
HETATM   23  H   UNK N   1       0.025   3.975   0.755  0.00  0.00     0.149 HD
HETATM   24  H   UNK N   1       1.009   2.741   0.121  0.00  0.00     0.149 HD
ENDBRANCH  21  22
ENDBRANCH  20  21
ENDBRANCH  19  20
ENDBRANCH  18  19
ENDBRANCH  17  18
BRANCH  17  25
HETATM   25  C   UNK N   1       1.682  -0.042  -0.939  0.00  0.00     0.241 C 
HETATM   26  O   UNK N   1       0.980  -0.125  -1.935  0.00  0.00    -0.271 OA
HETATM   27  N   UNK N   1       1.245  -0.523   0.251  0.00  0.00    -0.346 N 
HETATM   28  H   UNK N   1       1.794  -0.397   1.058  0.00  0.00     0.163 HD
BRANCH  27  29
HETATM   29  C   UNK N   1      -0.016  -1.216   0.346  0.00  0.00     0.180 C 
BRANCH  29  30
HETATM   30  C   UNK N   1       0.076  -2.443   1.239  0.00  0.00     0.073 C 
BRANCH  30  31
HETATM   31  C   UNK N   1      -0.601  -3.566   0.527  0.00  0.00    -0.056 A 
HETATM   32  C   UNK N   1       0.167  -4.579  -0.057  0.00  0.00     0.007 A 
HETATM   33  C   UNK N   1      -0.452  -5.594  -0.793  0.00  0.00     0.001 A 
HETATM   34  C   UNK N   1      -1.842  -5.596  -0.947  0.00  0.00     0.000 A 
HETATM   35  C   UNK N   1      -2.613  -4.588  -0.360  0.00  0.00     0.001 A 
HETATM   36  C   UNK N   1      -1.993  -3.572   0.372  0.00  0.00     0.007 A 
ENDBRANCH  30  31
ENDBRANCH  29  30
BRANCH  29  37
HETATM   37  C   UNK N   1      -1.155  -0.300   0.660  0.00  0.00     0.238 C 
HETATM   38  O   UNK N   1      -2.121  -0.272  -0.084  0.00  0.00    -0.271 OA
HETATM   39  N   UNK N   1      -1.112   0.509   1.737  0.00  0.00    -0.368 N 
HETATM   40  H   UNK N   1      -0.585   0.778   2.523  0.00  0.00     0.159 HD
HETATM   41  H   UNK N   1      -1.938   1.045   1.737  0.00  0.00     0.159 HD
ENDBRANCH  29  37
ENDBRANCH  27  29
ENDBRANCH  17  25
ENDBRANCH  15  17
ENDBRANCH   1  13
BRANCH   1  42
HETATM   42  N   UNK N   1       7.289  -0.971  -0.043  0.00  0.00    -0.346 N 
HETATM   43  C   UNK N   1       8.016  -0.908  -1.191  0.00  0.00     0.240 C 
HETATM   44  O   UNK N   1       7.603  -1.428  -2.213  0.00  0.00    -0.271 OA
HETATM   45  H   UNK N   1       7.650  -0.557   0.774  0.00  0.00     0.163 HD
BRANCH  43  46
HETATM   46  C   UNK N   1       9.321  -0.153  -1.215  0.00  0.00     0.167 C 
BRANCH  46  47
HETATM   47  C   UNK N   1      10.501  -1.029  -1.649  0.00  0.00     0.036 C 
BRANCH  47  48
HETATM   48  C   UNK N   1      10.629  -2.340  -0.871  0.00  0.00     0.023 C 
BRANCH  48  49
HETATM   49  C   UNK N   1      10.954  -2.125   0.602  0.00  0.00     0.138 C 
BRANCH  49  50
HETATM   50  N   UNK N   1      12.251  -1.513   0.766  0.00  0.00    -0.227 N 
HETATM   51  C   UNK N   1      13.456  -2.205   0.480  0.00  0.00     0.665 C 
HETATM   52  N   UNK N   1      14.580  -1.617   0.652  0.00  0.00    -0.235 N 
HETATM   53  N   UNK N   1      13.428  -3.544   0.028  0.00  0.00    -0.235 N 
HETATM   54  H   UNK N   1      15.404  -2.139   0.784  0.00  0.00     0.174 HD
ATOM     55  HN  UNK N   1      14.622  -0.598   0.652  1.00  0.00     0.174 HD
HETATM   56  H   UNK N   1      12.611  -3.994  -0.287  0.00  0.00     0.174 HD
HETATM   57  H   UNK N   1      14.271  -4.054   0.028  0.00  0.00     0.174 HD
HETATM   58  H   UNK N   1      12.301  -0.584   1.088  0.00  0.00     0.177 HD
ENDBRANCH  49  50
ENDBRANCH  48  49
ENDBRANCH  47  48
ENDBRANCH  46  47
BRANCH  46  59
HETATM   59  N   UNK N   1       9.601   0.489   0.060  0.00  0.00    -0.418 N 
HETATM   60  H   UNK N   1      10.089   0.545   0.954  0.00  0.00     0.150 HD
HETATM   61  H   UNK N   1       8.995   1.310   0.060  0.00  0.00     0.150 HD
ENDBRANCH  46  59
ENDBRANCH  43  46
ENDBRANCH   1  42
TORSDOF 22
