REMARK  7 active torsions:
REMARK  status: ('A' for Active; 'I' for Inactive)
REMARK    1  A    between atoms: C_2  and  C_3 
REMARK    2  A    between atoms: C_3  and  C_4 
REMARK    3  A    between atoms: C_3  and  N_10 
REMARK       I    between atoms: N_10  and  C_11 
REMARK    4  A    between atoms: C_11  and  C_13 
REMARK    5  A    between atoms: C_22  and  C_29 
REMARK    6  A    between atoms: C_23  and  N_24 
REMARK    7  A    between atoms: N_24  and  S_25 
ROOT
HETATM    1  C   UNK N   1       1.860  -0.132  -0.610  0.00  0.00     0.074 A 
HETATM    2  C   UNK N   1       3.075  -0.805  -0.368  0.00  0.00     0.009 A 
HETATM    3  C   UNK N   1       4.317  -0.209  -0.626  0.00  0.00     0.015 A 
HETATM    4  C   UNK N   1       5.502  -0.911  -0.379  0.00  0.00     0.001 A 
HETATM    5  C   UNK N   1       5.455  -2.218   0.112  0.00  0.00     0.002 A 
HETATM    6  C   UNK N   1       4.224  -2.832   0.348  0.00  0.00     0.030 A 
HETATM    7  C   UNK N   1       3.034  -2.136   0.113  0.00  0.00     0.044 A 
HETATM    8  N   UNK N   1       1.846  -2.761   0.303  0.00  0.00    -0.353 N 
ATOM      9  HN  UNK N   1       1.848  -3.735   0.606  1.00  0.00     0.166 HD
HETATM   10  C   UNK N   1       0.647  -2.140   0.105  0.00  0.00     0.071 A 
HETATM   11  C   UNK N   1       0.648  -0.785  -0.318  0.00  0.00     0.086 A 
ENDROOT
BRANCH   1  12
HETATM   12  C   UNK N   1       1.789   1.207  -1.276  0.00  0.00     0.255 C 
HETATM   13  N   UNK N   1       2.373   2.336  -0.816  0.00  0.00    -0.348 N 
HETATM   14  H   UNK N   1       2.368   3.117  -1.416  0.00  0.00     0.163 HD
HETATM   15  O   UNK N   1       1.096   1.297  -2.279  0.00  0.00    -0.268 OA
BRANCH  13  16
HETATM   16  C   UNK N   1       3.003   2.504   0.467  0.00  0.00     0.117 C 
BRANCH  16  17
HETATM   17  C   UNK N   1       2.058   3.302   1.380  0.00  0.00     0.025 C 
HETATM   18  C   UNK N   1       1.492   4.559   0.723  0.00  0.00     0.007 C 
ENDBRANCH  16  17
BRANCH  16  19
HETATM   19  C   UNK N   1       4.313   3.215   0.300  0.00  0.00    -0.035 A 
HETATM   20  C   UNK N   1       4.387   4.449  -0.369  0.00  0.00     0.009 A 
HETATM   21  C   UNK N   1       5.613   5.103  -0.508  0.00  0.00     0.001 A 
HETATM   22  C   UNK N   1       6.771   4.532   0.025  0.00  0.00     0.000 A 
HETATM   23  C   UNK N   1       6.702   3.305   0.693  0.00  0.00     0.001 A 
HETATM   24  C   UNK N   1       5.476   2.646   0.827  0.00  0.00     0.009 A 
ENDBRANCH  16  19
ENDBRANCH  13  16
ENDBRANCH   1  12
BRANCH  11  25
HETATM   25  N   UNK N   1      -0.546  -0.009  -0.361  0.00  0.00    -0.282 N 
HETATM   26  H   UNK N   1      -0.901   0.287  -1.230  0.00  0.00     0.178 HD
BRANCH  25  27
HETATM   27  S   UNK N   1      -1.405   0.433   1.134  0.00  0.00     0.227 S 
HETATM   28  O   UNK N   1      -0.003   0.899   1.567  0.00  0.00    -0.206 OA
HETATM   29  O   UNK N   1      -1.820   1.566   0.187  0.00  0.00    -0.206 OA
HETATM   30  C   UNK N   1      -1.419   2.062   1.934  0.00  0.00     0.186 C 
ENDBRANCH  25  27
ENDBRANCH  11  25
BRANCH  10  31
HETATM   31  C   UNK N   1      -0.602  -2.952   0.250  0.00  0.00    -0.007 A 
HETATM   32  C   UNK N   1      -0.505  -4.324   0.541  0.00  0.00     0.014 A 
HETATM   33  C   UNK N   1      -1.649  -5.130   0.580  0.00  0.00     0.001 A 
HETATM   34  C   UNK N   1      -2.905  -4.576   0.327  0.00  0.00     0.000 A 
HETATM   35  C   UNK N   1      -3.019  -3.218   0.032  0.00  0.00     0.001 A 
HETATM   36  C   UNK N   1      -1.875  -2.419  -0.019  0.00  0.00     0.014 A 
ENDBRANCH  10  31
TORSDOF 7
