REMARK  7 active torsions:
REMARK  status: ('A' for Active; 'I' for Inactive)
REMARK    1  A    between atoms: C_3  and  C_25 
REMARK    2  A    between atoms: C_6  and  C_7 
REMARK    3  A    between atoms: C_7  and  O_8 
REMARK    4  A    between atoms: O_8  and  C_9 
REMARK    5  A    between atoms: C_9  and  C_10 
REMARK    6  A    between atoms: C_9  and  C_17 
REMARK    7  A    between atoms: C_10  and  N_11 
ROOT
HETATM    1  C   UNK N   1       1.499  -1.100  -0.757  0.00  0.00     0.174 C 
ENDROOT
BRANCH   1   2
HETATM    2  O   UNK N   1       0.393  -1.582  -1.506  0.00  0.00    -0.375 OA
BRANCH   2   3
HETATM    3  C   UNK N   1       0.347  -2.978  -1.602  0.00  0.00     0.207 C 
BRANCH   3   4
HETATM    4  C   UNK N   1      -0.966  -3.470  -1.069  0.00  0.00    -0.035 A 
HETATM    5  C   UNK N   1      -1.898  -2.572  -0.525  0.00  0.00     0.010 A 
HETATM    6  C   UNK N   1      -3.129  -3.027  -0.057  0.00  0.00     0.017 A 
HETATM    7  C   UNK N   1      -3.449  -4.388  -0.128  0.00  0.00     0.047 A 
HETATM    8  C   UNK N   1      -2.516  -5.289  -0.664  0.00  0.00     0.017 A 
HETATM    9  C   UNK N   1      -1.278  -4.831  -1.132  0.00  0.00     0.010 A 
BRANCH   7  10
HETATM   10  C   UNK N   1      -4.782  -4.881   0.351  0.00  0.00     0.417 C 
HETATM   11  F   UNK N   1      -5.456  -5.477  -0.699  0.00  0.00    -0.166 F 
HETATM   12  F   UNK N   1      -5.553  -3.838   0.838  0.00  0.00    -0.166 F 
HETATM   13  F   UNK N   1      -4.600  -5.808   1.360  0.00  0.00    -0.166 F 
ENDBRANCH   7  10
ENDBRANCH   3   4
ENDBRANCH   2   3
ENDBRANCH   1   2
BRANCH   1  14
HETATM   14  C   UNK N   1       1.793  -1.820   0.585  0.00  0.00     0.166 C 
BRANCH  14  15
HETATM   15  N   UNK N   1       2.190  -3.218   0.457  0.00  0.00    -0.349 N 
HETATM   16  C   UNK N   1       3.197  -3.721  -0.271  0.00  0.00     0.108 A 
HETATM   17  C   UNK N   1       3.197  -5.091  -0.083  0.00  0.00     0.106 A 
HETATM   18  N   UNK N   1       2.197  -5.410   0.765  0.00  0.00    -0.361 N 
HETATM   19  C   UNK N   1       1.597  -4.246   1.084  0.00  0.00     0.182 A 
ATOM     20  HN  UNK N   1       1.946  -6.341   1.097  1.00  0.00     0.166 HD
ENDBRANCH  14  15
ENDBRANCH   1  14
BRANCH   1  21
HETATM   21  C   UNK N   1       1.179   0.331  -0.375  0.00  0.00    -0.006 A 
HETATM   22  C   UNK N   1      -0.157   0.773  -0.429  0.00  0.00     0.013 A 
HETATM   23  C   UNK N   1      -0.503   2.063  -0.036  0.00  0.00     0.024 A 
HETATM   24  C   UNK N   1       0.481   2.937   0.417  0.00  0.00     0.035 A 
HETATM   25  C   UNK N   1       1.816   2.524   0.469  0.00  0.00     0.048 A 
HETATM   26 Cl   UNK N   1       0.036   4.550   0.929  0.00  0.00    -0.084 Cl
HETATM   27  C   UNK N   1       2.173   1.226   0.078  0.00  0.00     0.044 A 
HETATM   28 Cl   UNK N   1       3.864   0.758   0.161  0.00  0.00    -0.084 Cl
ENDBRANCH   1  21
TORSDOF 7
