REMARK  10 active torsions:
REMARK  status: ('A' for Active; 'I' for Inactive)
REMARK    1  A    between atoms: C_6  and  N_7 
REMARK    2  A    between atoms: N_7  and  C_8 
REMARK    3  A    between atoms: C_8  and  C_12 
REMARK    4  A    between atoms: N_9  and  O_11 
REMARK    5  A    between atoms: C_13  and  N_19 
REMARK    6  A    between atoms: N_19  and  C_20 
REMARK    7  A    between atoms: C_20  and  C_21 
REMARK    8  A    between atoms: C_21  and  N_22 
REMARK    9  A    between atoms: N_22  and  S_23 
REMARK   10  A    between atoms: S_23  and  N_26 
ROOT
HETATM    1  C   UNK N   1       2.387  -2.300  -0.013  0.00  0.00     0.147 A 
HETATM    2  C   UNK N   1       3.577  -2.917  -0.298  0.00  0.00     0.156 A 
HETATM    3  N   UNK N   1       3.332  -4.218  -0.512  0.00  0.00    -0.223 N 
ATOM      4  HN  UNK N   1       4.010  -4.942  -0.749  1.00  0.00     0.198 HD
HETATM    5  O   UNK N   1       2.044  -4.365  -0.355  0.00  0.00    -0.155 OA
HETATM    6  N   UNK N   1       1.434  -3.248  -0.059  0.00  0.00    -0.234 N 
ATOM      7  HN  UNK N   1       0.435  -3.120   0.104  1.00  0.00     0.197 HD
ENDROOT
BRANCH   1   8
HETATM    8  C   UNK N   1       2.158  -0.870   0.266  0.00  0.00     0.158 C 
HETATM    9  N   UNK N   1       0.945  -0.468   0.469  0.00  0.00    -0.251 N 
ATOM     10  HN  UNK N   1       0.191  -1.148   0.379  1.00  0.00     0.196 HD
BRANCH   8  11
HETATM   11  N   UNK N   1       3.316  -0.026   0.330  0.00  0.00    -0.339 N 
HETATM   12  H   UNK N   1       4.144  -0.535   0.489  0.00  0.00     0.167 HD
BRANCH  11  13
HETATM   13  C   UNK N   1       3.552   1.372   0.218  0.00  0.00     0.035 A 
HETATM   14  C   UNK N   1       4.880   1.805   0.302  0.00  0.00     0.051 A 
HETATM   15  C   UNK N   1       5.210   3.149   0.130  0.00  0.00     0.051 A 
HETATM   16  C   UNK N   1       4.202   4.084  -0.128  0.00  0.00     0.133 A 
HETATM   17 Br   UNK N   1       7.041   3.680   0.227  0.00  0.00    -0.048 Br
HETATM   18  C   UNK N   1       2.871   3.663  -0.221  0.00  0.00     0.046 A 
HETATM   19  F   UNK N   1       4.508   5.394  -0.298  0.00  0.00    -0.205 F 
HETATM   20  C   UNK N   1       2.551   2.310  -0.064  0.00  0.00     0.032 A 
ENDBRANCH  11  13
ENDBRANCH   8  11
BRANCH   9  21
HETATM   21  O   UNK N   1       0.632   0.766   0.783  0.00  0.00    -0.288 OA
HETATM   22  H   UNK N   1       1.283   1.401   1.007  0.00  0.00     0.244 HD
ENDBRANCH   9  21
ENDBRANCH   1   8
BRANCH   2  23
HETATM   23  N   UNK N   1       4.850  -2.309  -0.382  0.00  0.00    -0.371 N 
HETATM   24  H   UNK N   1       4.966  -1.381  -0.075  0.00  0.00     0.161 HD
BRANCH  23  25
HETATM   25  C   UNK N   1       5.978  -3.027  -0.909  0.00  0.00     0.141 C 
BRANCH  25  26
HETATM   26  C   UNK N   1       6.948  -3.346   0.203  0.00  0.00     0.153 C 
BRANCH  26  27
HETATM   27  N   UNK N   1       8.287  -3.441  -0.356  0.00  0.00    -0.301 N 
HETATM   28  H   UNK N   1       8.557  -3.934  -1.207  0.00  0.00     0.173 HD
BRANCH  27  29
HETATM   29  S   UNK N   1       9.357  -2.540   0.723  0.00  0.00     0.312 S 
HETATM   30  O   UNK N   1      10.750  -2.303   0.124  0.00  0.00    -0.183 OA
HETATM   31  O   UNK N   1       9.095  -1.641  -0.498  0.00  0.00    -0.183 OA
BRANCH  29  32
HETATM   32  N   UNK N   1      10.044  -4.101   0.268  0.00  0.00    -0.312 N 
HETATM   33  H   UNK N   1       9.461  -4.896   0.005  0.00  0.00     0.170 HD
HETATM   34  H   UNK N   1      11.058  -4.212   0.268  0.00  0.00     0.170 HD
ENDBRANCH  29  32
ENDBRANCH  27  29
ENDBRANCH  26  27
ENDBRANCH  25  26
ENDBRANCH  23  25
ENDBRANCH   2  23
TORSDOF 10
