REMARK  30 active torsions:
REMARK  status: ('A' for Active; 'I' for Inactive)
REMARK    1  A    between atoms: C_32  and  C_12 
REMARK    2  A    between atoms: C_17  and  C_14 
REMARK    3  A    between atoms: C_18  and  C_14 
REMARK    4  A    between atoms: C_23  and  C_17 
REMARK    5  A    between atoms: C_26  and  C_18 
REMARK    6  A    between atoms: C_38  and  C_23 
REMARK    7  A    between atoms: N_57  and  C_26 
REMARK    8  A    between atoms: C_34  and  C_28 
REMARK    9  A    between atoms: C_35  and  C_28 
REMARK   10  A    between atoms: C_37  and  C_29 
REMARK   11  A    between atoms: C_41  and  C_29 
REMARK   12  A    between atoms: C_42  and  C_30 
REMARK   13  A    between atoms: C_43  and  C_31 
REMARK   14  A    between atoms: C_44  and  C_32 
REMARK   15  A    between atoms: C_45  and  C_33 
REMARK   16  A    between atoms: C_46  and  C_33 
REMARK   17  A    between atoms: C_49  and  C_35 
REMARK   18  A    between atoms: C_35  and  N_50 
REMARK   19  A    between atoms: C_36  and  C_45 
REMARK   20  A    between atoms: C_44  and  C_37 
REMARK   21  A    between atoms: C_37  and  O_67 
REMARK       I    between atoms: N_54  and  C_38 
REMARK       I    between atoms: N_56  and  C_41 
REMARK   22  A    between atoms: C_48  and  C_42 
REMARK   23  A    between atoms: C_42  and  N_52 
REMARK   24  A    between atoms: C_47  and  C_43 
REMARK   25  A    between atoms: C_43  and  N_54 
REMARK   26  A    between atoms: C_44  and  N_55 
REMARK   27  A    between atoms: O_68  and  C_45 
REMARK   28  A    between atoms: C_46  and  O_62 
REMARK   29  A    between atoms: C_47  and  O_63 
REMARK       I    between atoms: N_55  and  C_48 
REMARK   30  A    between atoms: O_66  and  C_49 
ROOT
HETATM    1  C   UNK N   1      -2.857   2.291   1.001  0.00  0.00     0.119 C 
ENDROOT
BRANCH   1   2
HETATM    2  C   UNK N   1      -3.056   3.795   0.650  0.00  0.00     0.006 C 
HETATM    3  C   UNK N   1      -2.358   4.646   1.708  0.00  0.00     0.012 C 
BRANCH   2   4
HETATM    4  C   UNK N   1      -4.545   4.156   0.663  0.00  0.00     0.002 C 
HETATM    5  C   UNK N   1      -4.812   5.629   0.392  0.00  0.00     0.005 C 
ENDBRANCH   2   4
ENDBRANCH   1   2
BRANCH   1   6
HETATM    6  C   UNK N   1      -3.627   1.268   0.079  0.00  0.00     0.152 C 
BRANCH   6   7
HETATM    7  C   UNK N   1      -4.749   0.519   0.830  0.00  0.00     0.137 C 
BRANCH   7   8
HETATM    8  C   UNK N   1      -5.781   1.406   1.426  0.00  0.00     0.222 C 
HETATM    9  N   UNK N   1      -6.756   1.990   0.674  0.00  0.00    -0.345 N 
HETATM   10  C   UNK N   1      -7.681   2.905   1.290  0.00  0.00     0.126 C 
HETATM   11  C   UNK N   1      -6.954   1.811  -0.758  0.00  0.00     0.116 C 
HETATM   12  C   UNK N   1      -8.638   3.303   0.192  0.00  0.00     0.022 C 
HETATM   13  C   UNK N   1      -7.912   2.958  -1.094  0.00  0.00     0.029 C 
HETATM   14  O   UNK N   1      -5.732   1.612   2.631  0.00  0.00    -0.273 OA
BRANCH  11  15
HETATM   15  C   UNK N   1      -7.588   0.422  -1.187  0.00  0.00     0.155 C 
BRANCH  15  16
HETATM   16  C   UNK N   1      -8.331  -0.414  -0.083  0.00  0.00     0.087 C 
HETATM   17  C   UNK N   1      -9.583  -1.096  -0.623  0.00  0.00     0.021 C 
BRANCH  16  18
HETATM   18  C   UNK N   1      -7.505  -1.394   0.758  0.00  0.00     0.118 C 
HETATM   19  N   UNK N   1      -7.151  -2.585   0.365  0.00  0.00    -0.359 N 
ATOM     20  HN  UNK N   1      -6.615  -3.139   1.032  1.00  0.00     0.162 HD
BRANCH  19  21
HETATM   21  C   UNK N   1      -7.434  -3.217  -0.917  0.00  0.00     0.185 C 
BRANCH  21  22
HETATM   22  C   UNK N   1      -8.674  -4.115  -0.775  0.00  0.00     0.074 C 
BRANCH  22  23
HETATM   23  C   UNK N   1      -8.468  -5.481  -0.195  0.00  0.00    -0.056 A 
HETATM   24  C   UNK N   1      -7.694  -5.685   0.956  0.00  0.00     0.007 A 
HETATM   25  C   UNK N   1      -7.531  -6.977   1.467  0.00  0.00     0.001 A 
HETATM   26  C   UNK N   1      -8.154  -8.062   0.843  0.00  0.00     0.000 A 
HETATM   27  C   UNK N   1      -8.938  -7.858  -0.296  0.00  0.00     0.001 A 
HETATM   28  C   UNK N   1      -9.090  -6.570  -0.815  0.00  0.00     0.007 A 
ENDBRANCH  22  23
ENDBRANCH  21  22
BRANCH  21  29
HETATM   29  C   UNK N   1      -6.226  -3.967  -1.425  0.00  0.00     0.163 C 
HETATM   30  O   UNK N   1      -6.275  -4.542  -2.501  0.00  0.00    -0.648 OA
BRANCH  29  31
HETATM   31  O   UNK N   1      -5.091  -4.010  -0.700  0.00  0.00    -0.775 OA
HETATM   32  H   UNK N   1      -4.722  -4.708  -0.196  0.00  0.00     0.167 HD
ENDBRANCH  29  31
ENDBRANCH  21  29
ENDBRANCH  19  21
BRANCH  18  33
HETATM   33  O   UNK N   1      -7.218  -1.043   2.026  0.00  0.00    -0.349 OA
HETATM   34  H   UNK N   1      -6.906  -1.094   2.908  0.00  0.00     0.219 HD
ENDBRANCH  18  33
ENDBRANCH  16  18
ENDBRANCH  15  16
BRANCH  15  35
HETATM   35  O   UNK N   1      -6.836  -0.317  -2.133  0.00  0.00    -0.388 OA
HETATM   36  C   UNK N   1      -5.589  -0.674  -1.618  0.00  0.00     0.202 C 
ENDBRANCH  15  35
ENDBRANCH  11  15
ENDBRANCH   7   8
ENDBRANCH   6   7
BRANCH   6  37
HETATM   37  O   UNK N   1      -2.800   0.347  -0.624  0.00  0.00    -0.388 OA
HETATM   38  C   UNK N   1      -2.371  -0.700   0.217  0.00  0.00     0.202 C 
ENDBRANCH   6  37
ENDBRANCH   1   6
BRANCH   1  39
HETATM   39  N   UNK N   1      -1.456   1.918   1.123  0.00  0.00    -0.347 N 
HETATM   40  C   UNK N   1      -1.004   1.474   2.427  0.00  0.00     0.153 C 
HETATM   41  C   UNK N   1      -0.614   1.852   0.036  0.00  0.00     0.243 C 
HETATM   42  O   UNK N   1      -0.984   2.237  -1.066  0.00  0.00    -0.271 OA
BRANCH  41  43
HETATM   43  C   UNK N   1       0.731   1.190   0.191  0.00  0.00     0.179 C 
BRANCH  43  44
HETATM   44  C   UNK N   1       1.459   0.789  -1.103  0.00  0.00     0.009 C 
HETATM   45  C   UNK N   1       2.634  -0.126  -0.785  0.00  0.00     0.012 C 
HETATM   46  C   UNK N   1       0.547   0.018  -2.055  0.00  0.00     0.012 C 
ENDBRANCH  43  44
BRANCH  43  47
HETATM   47  N   UNK N   1       1.486   1.924   1.200  0.00  0.00    -0.359 N 
HETATM   48  C   UNK N   1       2.028   3.108   1.240  0.00  0.00     0.136 C 
ATOM     49  HN  UNK N   1       1.619   1.395   2.062  1.00  0.00     0.162 HD
BRANCH  48  50
HETATM   50  C   UNK N   1       2.294   4.048   0.044  0.00  0.00     0.164 C 
BRANCH  50  51
HETATM   51  C   UNK N   1       1.099   4.351  -0.871  0.00  0.00     0.008 C 
HETATM   52  C   UNK N   1       0.019   5.050  -0.072  0.00  0.00     0.012 C 
HETATM   53  C   UNK N   1       1.501   5.299  -1.989  0.00  0.00     0.012 C 
ENDBRANCH  50  51
BRANCH  50  54
HETATM   54  N   UNK N   1       3.486   3.522  -0.613  0.00  0.00    -0.344 N 
HETATM   55  C   UNK N   1       3.354   2.681  -1.775  0.00  0.00     0.153 C 
HETATM   56  C   UNK N   1       4.605   3.442   0.169  0.00  0.00     0.220 C 
HETATM   57  O   UNK N   1       4.843   4.323   0.985  0.00  0.00    -0.273 OA
BRANCH  56  58
HETATM   58  C   UNK N   1       5.300   2.130   0.358  0.00  0.00     0.103 C 
BRANCH  58  59
HETATM   59  C   UNK N   1       5.905   1.485  -0.848  0.00  0.00     0.009 C 
BRANCH  59  60
HETATM   60  C   UNK N   1       7.356   1.248  -0.524  0.00  0.00     0.002 C 
BRANCH  60  61
HETATM   61  C   UNK N   1       8.117   2.534  -0.756  0.00  0.00     0.020 C 
BRANCH  61  62
HETATM   62  C   UNK N   1       7.964   3.512   0.404  0.00  0.00     0.135 C 
BRANCH  62  63
HETATM   63  N   UNK N   1       8.766   4.682   0.138  0.00  0.00    -0.281 N 
HETATM   64  C   UNK N   1      10.089   4.685  -0.064  0.00  0.00     0.250 A 
HETATM   65  C   UNK N   1      10.552   6.054  -0.329  0.00  0.00     0.080 A 
HETATM   66  O   UNK N   1      10.789   3.685  -0.038  0.00  0.00    -0.268 OA
HETATM   67  C   UNK N   1       9.458   6.838  -0.267  0.00  0.00     0.080 A 
HETATM   68  C   UNK N   1       8.329   5.943   0.034  0.00  0.00     0.250 A 
HETATM   69  O   UNK N   1       7.165   6.285   0.169  0.00  0.00    -0.268 OA
ENDBRANCH  62  63
ENDBRANCH  61  62
ENDBRANCH  60  61
ENDBRANCH  59  60
ENDBRANCH  58  59
ENDBRANCH  56  58
ENDBRANCH  50  54
ENDBRANCH  48  50
BRANCH  48  70
HETATM   70  O   UNK N   1       2.515   3.511   2.430  0.00  0.00    -0.348 OA
HETATM   71  H   UNK N   1       2.927   3.358   3.257  0.00  0.00     0.219 HD
ENDBRANCH  48  70
ENDBRANCH  43  47
ENDBRANCH  41  43
ENDBRANCH   1  39
TORSDOF 30
