REMARK  7 active torsions:
REMARK  status: ('A' for Active; 'I' for Inactive)
REMARK    1  A    between atoms: C_5  and  N_9 
REMARK    2  A    between atoms: N_9  and  N_10 
REMARK       I    between atoms: N_10  and  C_11 
REMARK    3  A    between atoms: C_11  and  C_13 
REMARK    4  A    between atoms: C_13  and  C_14 
REMARK    5  A    between atoms: C_14  and  N_15 
REMARK    6  A    between atoms: C_24  and  C_32 
REMARK    7  A    between atoms: C_26  and  C_28 
ROOT
HETATM    1  N   UNK N   1       0.476  -0.236   0.519  0.00  0.00    -0.261 N 
HETATM    2  C   UNK N   1       1.367  -0.900   1.280  0.00  0.00     0.207 A 
HETATM    3  N   UNK N   1       1.204  -2.223   1.132  0.00  0.00    -0.335 N 
ATOM      4  HN  UNK N   1       1.733  -2.977   1.570  1.00  0.00     0.168 HD
HETATM    5  C   UNK N   1       0.177  -2.320   0.268  0.00  0.00     0.131 A 
HETATM    6  N   UNK N   1      -0.287  -1.112  -0.091  0.00  0.00    -0.278 N 
ATOM      7  HN  UNK N   1      -1.073  -0.915  -0.712  1.00  0.00     0.189 HD
HETATM    8  C   UNK N   1      -0.499  -3.564  -0.004  0.00  0.00     0.011 A 
HETATM    9  C   UNK N   1       0.130  -4.783   0.249  0.00  0.00     0.031 A 
HETATM   10  C   UNK N   1      -0.622  -5.955   0.325  0.00  0.00     0.049 A 
HETATM   11  C   UNK N   1      -2.024  -5.878   0.222  0.00  0.00     0.032 A 
HETATM   12  C   UNK N   1      -2.645  -4.643  -0.041  0.00  0.00     0.049 A 
HETATM   13  C   UNK N   1      -1.870  -3.502  -0.178  0.00  0.00     0.031 A 
ENDROOT
BRANCH   1  14
HETATM   14  C   UNK N   1       0.424   1.170   0.241  0.00  0.00     0.123 C 
BRANCH  14  15
HETATM   15  C   UNK N   1       1.478   1.835  -0.271  0.00  0.00     0.095 C 
BRANCH  15  16
HETATM   16  C   UNK N   1       2.807   1.223  -0.505  0.00  0.00     0.261 C 
HETATM   17  N   UNK N   1       3.509   1.520  -1.625  0.00  0.00    -0.265 N 
HETATM   18  H   UNK N   1       3.140   2.162  -2.273  0.00  0.00     0.190 HD
HETATM   19  O   UNK N   1       3.272   0.434   0.298  0.00  0.00    -0.267 OA
BRANCH  17  20
HETATM   20  N   UNK N   1       4.735   0.933  -1.866  0.00  0.00    -0.282 N 
HETATM   21  H   UNK N   1       4.906   0.529  -2.748  0.00  0.00     0.188 HD
BRANCH  20  22
HETATM   22  C   UNK N   1       5.759   0.893  -0.880  0.00  0.00     0.135 A 
HETATM   23  N   UNK N   1       6.760  -0.021  -0.978  0.00  0.00    -0.349 N 
HETATM   24  C   UNK N   1       7.735  -0.092  -0.033  0.00  0.00     0.106 A 
ATOM     25  HN  UNK N   1       6.779  -0.663  -1.770  1.00  0.00     0.167 HD
HETATM   26  C   UNK N   1       7.714   0.790   1.050  0.00  0.00     0.104 A 
HETATM   27  N   UNK N   1       6.720   1.711   1.146  0.00  0.00    -0.371 N 
HETATM   28  C   UNK N   1       5.744   1.780   0.206  0.00  0.00     0.137 A 
ATOM     29  HN  UNK N   1       6.707   2.358   1.934  1.00  0.00     0.164 HD
ENDBRANCH  20  22
ENDBRANCH  17  20
ENDBRANCH  15  16
ENDBRANCH  14  15
ENDBRANCH   1  14
BRANCH  10  30
HETATM   30  C   UNK N   1       0.078  -7.249   0.622  0.00  0.00     0.417 C 
HETATM   31  F   UNK N   1       0.878  -7.604  -0.449  0.00  0.00    -0.166 F 
HETATM   32  F   UNK N   1      -0.832  -8.262   0.862  0.00  0.00    -0.166 F 
HETATM   33  F   UNK N   1       0.873  -7.091   1.744  0.00  0.00    -0.166 F 
ENDBRANCH  10  30
BRANCH  12  34
HETATM   34  C   UNK N   1      -4.128  -4.465  -0.005  0.00  0.00     0.417 C 
HETATM   35  F   UNK N   1      -4.588  -4.055  -1.242  0.00  0.00    -0.166 F 
HETATM   36  F   UNK N   1      -4.428  -3.487   0.931  0.00  0.00    -0.166 F 
HETATM   37  F   UNK N   1      -4.762  -5.635   0.365  0.00  0.00    -0.166 F 
ENDBRANCH  12  34
TORSDOF 7
