REMARK  4 active torsions:
REMARK  status: ('A' for Active; 'I' for Inactive)
REMARK       I    between atoms: N_2  and  C_3 
REMARK    1  A    between atoms: C_3  and  C_5 
REMARK    2  A    between atoms: C_8  and  N_12 
REMARK    3  A    between atoms: N_15  and  C_22 
REMARK    4  A    between atoms: C_24  and  C_31 
ROOT
HETATM    1  C   UNK N   1       3.246  -1.541   0.156  0.00  0.00     0.061 C 
HETATM    2  C   UNK N   1       4.374  -0.815   0.389  0.00  0.00     0.050 C 
HETATM    3  C   UNK N   1       5.589  -1.350   0.402  0.00  0.00     0.087 C 
HETATM    4  C   UNK N   1       5.654  -2.751   0.189  0.00  0.00     0.129 C 
HETATM    5  N   UNK N   1       4.508  -3.499   0.171  0.00  0.00    -0.355 N 
ATOM      6  HN  UNK N   1       4.575  -4.517   0.177  1.00  0.00     0.166 HD
HETATM    7  C   UNK N   1       3.291  -2.915   0.145  0.00  0.00     0.119 C 
HETATM    8  C   UNK N   1       6.851  -3.409  -0.170  0.00  0.00     0.118 C 
HETATM    9  N   UNK N   1       7.790  -4.007  -0.466  0.00  0.00    -0.190 NA
ENDROOT
BRANCH   3  10
HETATM   10  C   UNK N   1       6.671  -0.317   0.265  0.00  0.00     0.420 C 
HETATM   11  F   UNK N   1       6.718   0.065  -1.067  0.00  0.00    -0.166 F 
HETATM   12  F   UNK N   1       7.892  -0.786   0.675  0.00  0.00    -0.166 F 
HETATM   13  F   UNK N   1       6.353   0.825   1.002  0.00  0.00    -0.166 F 
ENDBRANCH   3  10
BRANCH   1  14
HETATM   14  N   UNK N   1       2.134  -0.810  -0.208  0.00  0.00    -0.255 N 
HETATM   15  C   UNK N   1       2.189   0.563  -0.411  0.00  0.00     0.189 C 
HETATM   16  N   UNK N   1       0.931   1.070  -0.288  0.00  0.00    -0.304 N 
HETATM   17  S   UNK N   1       3.212   1.219  -1.228  0.00  0.00    -0.040 SA
HETATM   18  C   UNK N   1      -0.039  -0.036  -0.340  0.00  0.00     0.121 C 
HETATM   19  C   UNK N   1       0.864  -1.211  -0.272  0.00  0.00     0.260 C 
HETATM   20  C   UNK N   1      -1.144  -0.100   0.679  0.00  0.00     0.042 C 
HETATM   21  C   UNK N   1      -1.004  -0.037  -1.495  0.00  0.00     0.042 C 
HETATM   22  O   UNK N   1       0.508  -2.377  -0.208  0.00  0.00    -0.270 OA
HETATM   23  C   UNK N   1      -2.120  -0.287  -0.483  0.00  0.00     0.006 C 
BRANCH  16  24
HETATM   24  C   UNK N   1       0.733   2.352   0.234  0.00  0.00     0.041 C 
HETATM   25  C   UNK N   1       1.766   3.318   0.225  0.00  0.00     0.031 C 
HETATM   26  C   UNK N   1       1.427   4.660   0.220  0.00  0.00     0.022 C 
HETATM   27  C   UNK N   1       0.066   4.995   0.246  0.00  0.00     0.070 C 
HETATM   28  C   UNK N   1      -0.900   3.999   0.490  0.00  0.00     0.134 C 
HETATM   29  C   UNK N   1      -0.548   2.705   0.476  0.00  0.00     0.073 C 
HETATM   30  F   UNK N   1      -2.222   4.242   0.540  0.00  0.00    -0.205 F 
BRANCH  27  31
HETATM   31  C   UNK N   1      -0.384   6.326  -0.145  0.00  0.00     0.254 C 
HETATM   32  N   UNK N   1      -1.711   6.521  -0.332  0.00  0.00    -0.361 N 
HETATM   33  C   UNK N   1      -2.274   7.741  -0.821  0.00  0.00     0.149 C 
HETATM   34  H   UNK N   1      -2.323   5.780  -0.119  0.00  0.00     0.162 HD
HETATM   35  O   UNK N   1       0.423   7.199  -0.429  0.00  0.00    -0.268 OA
ENDBRANCH  27  31
ENDBRANCH  16  24
ENDBRANCH   1  14
TORSDOF 4
