REMARK  6 active torsions:
REMARK  status: ('A' for Active; 'I' for Inactive)
REMARK    1  A    between atoms: C_3  and  C_32 
REMARK    2  A    between atoms: C_6  and  C_7 
REMARK    3  A    between atoms: C_9  and  C_28 
REMARK    4  A    between atoms: C_18  and  C_19 
REMARK    5  A    between atoms: C_19  and  C_20 
REMARK    6  A    between atoms: C_23  and  N_27 
ROOT
HETATM    1  C   UNK N   1       3.638   1.645   0.679  0.00  0.00     0.046 C 
HETATM    2  C   UNK N   1       4.013   0.386   0.171  0.00  0.00     0.067 C 
HETATM    3  C   UNK N   1       3.036  -0.508  -0.231  0.00  0.00     0.144 C 
HETATM    4  N   UNK N   1       1.744  -0.146  -0.051  0.00  0.00    -0.235 N 
HETATM    5  C   UNK N   1       1.428   1.064   0.367  0.00  0.00     0.140 A 
HETATM    6  N   UNK N   1       2.344   2.005   0.684  0.00  0.00    -0.340 N 
ATOM      7  HN  UNK N   1       2.063   2.956   0.921  1.00  0.00     0.167 HD
HETATM    8  C   UNK N   1       0.123   1.211   0.382  0.00  0.00     0.034 A 
HETATM    9  C   UNK N   1      -0.421  -0.011   0.019  0.00  0.00     0.123 A 
HETATM   10  N   UNK N   1       0.631  -0.836  -0.254  0.00  0.00    -0.302 N 
ATOM     11  HN  UNK N   1       0.572  -1.808  -0.560  1.00  0.00     0.186 HD
HETATM   12  C   UNK N   1      -0.382   2.496   0.415  0.00  0.00     0.073 C 
ENDROOT
BRANCH  12  13
HETATM   13  C   UNK N   1      -0.327   3.674   0.419  0.00  0.00    -0.114 C 
BRANCH  13  14
HETATM   14  C   UNK N   1      -0.296   5.063   0.423  0.00  0.00     0.025 A 
HETATM   15  C   UNK N   1      -1.504   5.656   0.216  0.00  0.00     0.025 A 
HETATM   16  C   UNK N   1      -1.577   7.000  -0.061  0.00  0.00     0.049 A 
HETATM   17  C   UNK N   1      -0.399   7.739  -0.136  0.00  0.00     0.098 A 
HETATM   18  N   UNK N   1       0.808   7.144   0.070  0.00  0.00    -0.351 N 
HETATM   19  C   UNK N   1       0.900   5.809   0.331  0.00  0.00     0.109 A 
ATOM     20  HN  UNK N   1       1.658   7.706   0.028  1.00  0.00     0.166 HD
BRANCH  17  21
HETATM   21  N   UNK N   1      -0.490   9.113  -0.405  0.00  0.00    -0.385 N 
HETATM   22  H   UNK N   1       0.314   9.650  -0.594  0.00  0.00     0.157 HD
HETATM   23  H   UNK N   1      -1.373   9.549  -0.405  0.00  0.00     0.157 HD
ENDBRANCH  17  21
ENDBRANCH  13  14
ENDBRANCH  12  13
BRANCH   3  24
HETATM   24  C   UNK N   1       3.457  -1.809  -0.795  0.00  0.00     0.434 C 
HETATM   25  F   UNK N   1       3.986  -2.532   0.250  0.00  0.00    -0.165 F 
HETATM   26  F   UNK N   1       2.396  -2.486  -1.360  0.00  0.00    -0.165 F 
HETATM   27  F   UNK N   1       4.431  -1.615  -1.765  0.00  0.00    -0.165 F 
ENDBRANCH   3  24
BRANCH   1  28
HETATM   28  C   UNK N   1       4.669   2.609   0.929  0.00  0.00    -0.009 C 
HETATM   29  C   UNK N   1       5.963   2.098   0.966  0.00  0.00     0.014 C 
HETATM   30  C   UNK N   1       6.976   2.788   0.367  0.00  0.00     0.017 C 
HETATM   31  C   UNK N   1       6.690   3.988  -0.274  0.00  0.00     0.048 C 
HETATM   32  C   UNK N   1       5.435   4.599  -0.135  0.00  0.00     0.017 C 
HETATM   33  C   UNK N   1       4.412   3.907   0.487  0.00  0.00     0.014 C 
BRANCH  31  34
HETATM   34  C   UNK N   1       7.713   4.563  -1.154  0.00  0.00     0.417 C 
HETATM   35  F   UNK N   1       8.550   5.307  -0.361  0.00  0.00    -0.166 F 
HETATM   36  F   UNK N   1       8.420   3.544  -1.781  0.00  0.00    -0.166 F 
HETATM   37  F   UNK N   1       7.122   5.347  -2.130  0.00  0.00    -0.166 F 
ENDBRANCH  31  34
ENDBRANCH   1  28
TORSDOF 6
