REMARK  11 active torsions:
REMARK  status: ('A' for Active; 'I' for Inactive)
REMARK    1  A    between atoms: C_17  and  C_13 
REMARK    2  A    between atoms: N_21  and  C_13 
REMARK    3  A    between atoms: C_17  and  C_14 
REMARK    4  A    between atoms: O_27  and  C_14 
REMARK    5  A    between atoms: N_22  and  C_15 
REMARK    6  A    between atoms: N_24  and  C_16 
REMARK    7  A    between atoms: O_25  and  C_17 
REMARK    8  A    between atoms: O_27  and  C_18 
REMARK    9  A    between atoms: N_24  and  C_19 
REMARK   10  A    between atoms: O_26  and  C_19 
REMARK   11  A    between atoms: N_21  and  C_20 
ROOT
HETATM    1  C   UNK N   1      -2.462   2.539  -1.176  0.00  0.00     0.032 A 
HETATM    2  C   UNK N   1      -3.995   3.747   0.257  0.00  0.00     0.032 A 
HETATM    3  C   UNK N   1      -1.386   3.141  -0.528  0.00  0.00     0.039 A 
HETATM    4  C   UNK N   1      -2.921   4.336   0.916  0.00  0.00     0.039 A 
HETATM    5  C   UNK N   1      -3.775   2.841  -0.786  0.00  0.00     0.035 A 
HETATM    6  C   UNK N   1      -1.617   4.010   0.547  0.00  0.00     0.069 A 
ENDROOT
BRANCH   5   7
HETATM    7  N   UNK N   1      -4.824   1.960  -1.118  0.00  0.00    -0.323 N 
HETATM    8  H   UNK N   1      -5.521   2.210  -1.767  0.00  0.00     0.169 HD
BRANCH   7   9
HETATM    9  C   UNK N   1      -4.829   0.691  -0.470  0.00  0.00     0.217 C 
HETATM   10  N   UNK N   1      -3.693   0.162  -0.125  0.00  0.00    -0.352 N 
ATOM     11  HN  UNK N   1      -2.852   0.590  -0.513  1.00  0.00     0.163 HD
BRANCH  10  12
HETATM   12  C   UNK N   1      -3.495  -0.974   0.753  0.00  0.00     0.085 C 
HETATM   13  C   UNK N   1      -2.041  -1.456   0.680  0.00  0.00     0.025 C 
HETATM   14  C   UNK N   1      -1.813  -2.362  -0.529  0.00  0.00     0.002 C 
HETATM   15  C   UNK N   1      -2.764  -3.550  -0.455  0.00  0.00     0.000 C 
HETATM   16  C   UNK N   1      -4.198  -3.046  -0.541  0.00  0.00     0.002 C 
HETATM   17  C   UNK N   1      -4.503  -2.123   0.631  0.00  0.00     0.025 C 
ENDBRANCH  10  12
BRANCH   9  18
HETATM   18  O   UNK N   1      -5.996   0.134  -0.112  0.00  0.00    -0.333 OA
HETATM   19  H   UNK N   1      -6.740   0.646   0.138  0.00  0.00     0.220 HD
ENDBRANCH   9  18
ENDBRANCH   7   9
ENDBRANCH   5   7
BRANCH   6  20
HETATM   20  O   UNK N   1      -0.588   4.520   1.239  0.00  0.00    -0.349 OA
BRANCH  20  21
HETATM   21  C   UNK N   1       0.192   5.471   0.654  0.00  0.00     0.209 C 
BRANCH  21  22
HETATM   22  C   UNK N   1       1.602   4.998   0.362  0.00  0.00     0.159 C 
BRANCH  22  23
HETATM   23  C   UNK N   1       2.271   6.078  -0.477  0.00  0.00     0.148 C 
BRANCH  23  24
HETATM   24  N   UNK N   1       2.247   7.356   0.238  0.00  0.00    -0.411 N 
HETATM   25  H   UNK N   1       2.691   7.507   1.144  0.00  0.00     0.154 HD
BRANCH  24  26
HETATM   26  C   UNK N   1       1.510   8.397  -0.494  0.00  0.00     0.014 C 
HETATM   27  C   UNK N   1       1.451   9.631   0.379  0.00  0.00     0.037 C 
HETATM   28  C   UNK N   1       0.076   7.996  -0.812  0.00  0.00     0.037 C 
HETATM   29  C   UNK N   1       2.222   8.755  -1.786  0.00  0.00     0.037 C 
ENDBRANCH  24  26
ENDBRANCH  23  24
ENDBRANCH  22  23
BRANCH  22  30
HETATM   30  O   UNK N   1       1.569   3.811  -0.373  0.00  0.00    -0.392 OA
HETATM   31  H   UNK N   1       0.843   3.419  -0.883  0.00  0.00     0.210 HD
ENDBRANCH  22  30
ENDBRANCH  21  22
ENDBRANCH  20  21
ENDBRANCH   6  20
TORSDOF 11
