REMARK  5 active torsions:
REMARK  status: ('A' for Active; 'I' for Inactive)
REMARK    1  A    between atoms: C_1  and  C_2 
REMARK    2  A    between atoms: C_1  and  N_8 
REMARK    3  A    between atoms: C_2  and  C_3 
REMARK    4  A    between atoms: C_3  and  P_4 
REMARK    5  A    between atoms: P_4  and  O_6 
ROOT
HETATM    1  C   UNK N   1       0.875   0.818  -0.297  0.00  0.00     0.195 C 
HETATM    2  F   UNK N   1       0.900  -0.499   0.123  0.00  0.00    -0.247 F 
ENDROOT
BRANCH   1   3
HETATM    3  C   UNK N   1      -0.349   1.507   0.278  0.00  0.00     0.148 C 
BRANCH   3   4
HETATM    4  N   UNK N   1      -1.549   0.783  -0.105  0.00  0.00    -0.427 N 
HETATM    5  H   UNK N   1      -2.411   1.259  -0.373  0.00  0.00     0.150 HD
HETATM    6  H   UNK N   1      -1.530  -0.237  -0.105  0.00  0.00     0.150 HD
ENDBRANCH   3   4
ENDBRANCH   1   3
BRANCH   1   7
HETATM    7  C   UNK N   1       2.129   1.533   0.180  0.00  0.00     0.130 C 
BRANCH   7   8
HETATM    8  P   UNK N   1       3.639   0.855  -0.678  0.00  0.00     0.092 P 
HETATM    9  O   UNK N   1       4.635   1.588   0.262  0.00  0.00    -0.676 OA
HETATM   10  H   UNK N   1       3.469   1.700   0.399  0.00  0.00     0.120 HD
BRANCH   8  11
HETATM   11  O   UNK N   1       3.678  -0.619   0.237  0.00  0.00    -0.351 OA
HETATM   12  H   UNK N   1       2.975  -1.049   0.749  0.00  0.00     0.217 HD
ENDBRANCH   8  11
ENDBRANCH   7   8
ENDBRANCH   1   7
TORSDOF 5
