REMARK  10 active torsions:
REMARK  status: ('A' for Active; 'I' for Inactive)
REMARK    1  A    between atoms: C_2  and  C_3 
REMARK    2  A    between atoms: C_9  and  C_12 
REMARK    3  A    between atoms: C_14  and  S_22 
REMARK    4  A    between atoms: C_18  and  O_19 
REMARK    5  A    between atoms: O_19  and  C_20 
REMARK    6  A    between atoms: S_22  and  N_25 
REMARK    7  A    between atoms: N_28  and  C_31 
REMARK    8  A    between atoms: N_35  and  C_36 
REMARK    9  A    between atoms: C_36  and  C_37 
REMARK   10  A    between atoms: C_37  and  O_38 
ROOT
HETATM    1  C   UNK N   1       2.766  -2.116  -0.095  0.00  0.00     0.060 A 
HETATM    2  C   UNK N   1       4.060  -1.550  -0.035  0.00  0.00     0.045 A 
HETATM    3  C   UNK N   1       5.188  -2.381   0.042  0.00  0.00     0.091 A 
HETATM    4  C   UNK N   1       5.007  -3.764   0.035  0.00  0.00     0.115 A 
HETATM    5  N   UNK N   1       3.765  -4.300  -0.039  0.00  0.00    -0.345 N 
ATOM      6  HN  UNK N   1       3.666  -5.316  -0.047  1.00  0.00     0.167 HD
HETATM    7  C   UNK N   1       2.646  -3.529  -0.103  0.00  0.00     0.156 A 
ENDROOT
BRANCH   1   8
HETATM    8  C   UNK N   1       1.564  -1.236  -0.117  0.00  0.00     0.123 A 
HETATM    9  N   UNK N   1       1.705   0.126  -0.267  0.00  0.00    -0.307 N 
HETATM   10  C   UNK N   1       0.611   0.966  -0.226  0.00  0.00     0.277 A 
HETATM   11  H   UNK N   1       2.602   0.508  -0.405  0.00  0.00     0.170 HD
HETATM   12  C   UNK N   1      -0.635   0.400  -0.004  0.00  0.00     0.145 A 
HETATM   13  O   UNK N   1       0.743   2.169  -0.360  0.00  0.00    -0.266 OA
HETATM   14  C   UNK N   1      -0.749  -0.942   0.139  0.00  0.00     0.092 A 
HETATM   15  N   UNK N   1      -1.844   0.981   0.128  0.00  0.00    -0.291 N 
HETATM   16  C   UNK N   1      -2.079  -1.189   0.374  0.00  0.00     0.057 A 
HETATM   17  N   UNK N   1       0.315  -1.772   0.080  0.00  0.00    -0.338 N 
HETATM   18  N   UNK N   1      -2.721   0.005   0.364  0.00  0.00    -0.291 N 
ATOM     19  HN  UNK N   1       0.192  -2.780   0.180  1.00  0.00     0.167 HD
ATOM     20  HN  UNK N   1      -2.049   1.978   0.061  1.00  0.00     0.187 HD
BRANCH  16  21
HETATM   21  C   UNK N   1      -2.729  -2.511   0.633  0.00  0.00     0.057 C 
HETATM   22  C   UNK N   1      -2.734  -3.354  -0.626  0.00  0.00     0.011 C 
ENDBRANCH  16  21
BRANCH  18  23
HETATM   23  C   UNK N   1      -4.139   0.229   0.604  0.00  0.00     0.175 C 
BRANCH  23  24
HETATM   24  C   UNK N   1      -4.971  -0.439  -0.478  0.00  0.00     0.188 C 
BRANCH  24  25
HETATM   25  O   UNK N   1      -6.205  -0.826   0.044  0.00  0.00    -0.394 OA
HETATM   26  C   UNK N   1      -6.188  -2.221  -0.006  0.00  0.00     0.201 C 
ENDBRANCH  24  25
ENDBRANCH  23  24
ENDBRANCH  18  23
ENDBRANCH   1   8
BRANCH   7  27
HETATM   27  O   UNK N   1       1.428  -4.118  -0.181  0.00  0.00    -0.335 OA
BRANCH  27  28
HETATM   28  C   UNK N   1       1.267  -5.483  -0.249  0.00  0.00     0.173 C 
HETATM   29  C   UNK N   1      -0.206  -5.824  -0.161  0.00  0.00     0.034 C 
ENDBRANCH  27  28
ENDBRANCH   7  27
BRANCH   3  30
HETATM   30  S   UNK N   1       6.885  -1.752   0.063  0.00  0.00     0.245 S 
HETATM   31  O   UNK N   1       7.478  -1.538  -1.337  0.00  0.00    -0.206 OA
HETATM   32  O   UNK N   1       7.729  -2.962   0.501  0.00  0.00    -0.206 OA
BRANCH  30  33
HETATM   33  N   UNK N   1       7.538  -0.475   1.130  0.00  0.00    -0.203 NA
HETATM   34  C   UNK N   1       7.113   0.882   0.745  0.00  0.00     0.138 C 
HETATM   35  C   UNK N   1       8.012   1.524  -0.328  0.00  0.00     0.287 C 
HETATM   36  N   UNK N   1       9.414   1.452   0.072  0.00  0.00     0.090 N 
HETATM   37  C   UNK N   1       9.758   0.037   0.120  0.00  0.00     0.287 C 
HETATM   38  C   UNK N   1       8.999  -0.604   1.281  0.00  0.00     0.138 C 
BRANCH  36  39
HETATM   39  C   UNK N   1      10.211   2.094  -0.967  0.00  0.00     0.268 C 
HETATM   40  C   UNK N   1      11.658   2.256  -0.517  0.00  0.00     0.037 C 
ENDBRANCH  36  39
ENDBRANCH  30  33
ENDBRANCH   3  30
TORSDOF 10
