REMARK  0 active torsions:
REMARK  status: ('A' for Active; 'I' for Inactive)
ROOT
HETATM    1  C   UNK N   1       1.632  -0.673  -0.000  0.00  0.00     0.187 A 
HETATM    2  C   UNK N   1       0.152  -0.468  -0.000  0.00  0.00     0.234 A 
HETATM    3  O   UNK N   1      -0.631  -1.402   0.000  0.00  0.00    -0.272 OA
HETATM    4  N   UNK N   1      -0.275   0.800  -0.000  0.00  0.00    -0.288 N 
HETATM    5  C   UNK N   1       0.723   1.689  -0.000  0.00  0.00     0.286 A 
HETATM    6  O   UNK N   1       0.509   2.889   0.000  0.00  0.00    -0.260 OA
HETATM    7  S   UNK N   1       2.378   1.009   0.000  0.00  0.00    -0.060 SA
HETATM    8  H   UNK N   1      -1.226   1.053  -0.000  0.00  0.00     0.172 HD
ENDROOT
TORSDOF 0
