REMARK  9 active torsions:
REMARK  status: ('A' for Active; 'I' for Inactive)
REMARK    1  A    between atoms: C_2  and  C_4 
REMARK    2  A    between atoms: C_2  and  N_39 
REMARK       I    between atoms: C_4  and  N_6 
REMARK    3  A    between atoms: N_6  and  C_7 
REMARK    4  A    between atoms: C_11  and  S_13 
REMARK    5  A    between atoms: S_13  and  N_16 
REMARK    6  A    between atoms: N_16  and  C_17 
REMARK    7  A    between atoms: C_18  and  N_29 
REMARK    8  A    between atoms: N_29  and  C_30 
REMARK    9  A    between atoms: C_32  and  O_37 
ROOT
HETATM    1  C   UNK N   1       0.679  -1.173  -0.213  0.00  0.00     0.160 A 
HETATM    2  C   UNK N   1       1.013   0.110   0.190  0.00  0.00     0.152 A 
HETATM    3  N   UNK N   1       2.313   0.437   0.425  0.00  0.00    -0.338 N 
ATOM      4  HN  UNK N   1       2.553   1.382   0.725  1.00  0.00     0.167 HD
HETATM    5  C   UNK N   1       3.293  -0.492   0.262  0.00  0.00     0.060 A 
HETATM    6  C   UNK N   1       4.633  -0.154   0.477  0.00  0.00     0.032 A 
HETATM    7  C   UNK N   1       5.631  -1.120   0.314  0.00  0.00     0.002 A 
HETATM    8  C   UNK N   1       5.292  -2.428  -0.056  0.00  0.00     0.002 A 
HETATM    9  C   UNK N   1       3.954  -2.772  -0.279  0.00  0.00     0.032 A 
HETATM   10  C   UNK N   1       2.952  -1.808  -0.128  0.00  0.00     0.060 A 
HETATM   11  N   UNK N   1       1.646  -2.120  -0.366  0.00  0.00    -0.337 N 
ATOM     12  HN  UNK N   1       1.393  -3.063  -0.660  1.00  0.00     0.167 HD
ENDROOT
BRANCH   1  13
HETATM   13  N   UNK N   1      -0.686  -1.426  -0.503  0.00  0.00    -0.263 N 
HETATM   14  H   UNK N   1      -1.347  -0.757  -0.210  0.00  0.00     0.180 HD
BRANCH  13  15
HETATM   15  S   UNK N   1      -1.276  -2.829  -1.338  0.00  0.00     0.264 S 
HETATM   16  O   UNK N   1      -0.424  -2.903  -2.615  0.00  0.00    -0.200 OA
HETATM   17  O   UNK N   1      -2.665  -2.402  -1.836  0.00  0.00    -0.200 OA
BRANCH  15  18
HETATM   18  C   UNK N   1      -1.236  -4.226  -0.265  0.00  0.00     0.082 A 
HETATM   19  C   UNK N   1      -2.250  -4.429   0.674  0.00  0.00     0.025 A 
HETATM   20  C   UNK N   1      -2.093  -5.406   1.661  0.00  0.00     0.004 A 
HETATM   21  C   UNK N   1      -0.905  -6.146   1.728  0.00  0.00     0.029 A 
HETATM   22  C   UNK N   1       0.101  -5.944   0.776  0.00  0.00     0.036 A 
HETATM   23  C   UNK N   1      -0.070  -4.970  -0.207  0.00  0.00     0.054 A 
BRANCH  22  24
HETATM   24  N   UNK N   1       1.336  -6.633   0.884  0.00  0.00    -0.325 N 
HETATM   25  C   UNK N   1       2.136  -6.919  -0.180  0.00  0.00     0.249 C 
HETATM   26  O   UNK N   1       1.724  -6.771  -1.324  0.00  0.00    -0.270 OA
HETATM   27  H   UNK N   1       1.631  -6.921   1.779  0.00  0.00     0.169 HD
BRANCH  25  28
HETATM   28  C   UNK N   1       3.530  -7.436   0.061  0.00  0.00     0.098 C 
HETATM   29  C   UNK N   1       4.220  -7.834  -1.235  0.00  0.00     0.048 C 
HETATM   30  C   UNK N   1       4.352  -6.345   0.722  0.00  0.00     0.048 C 
BRANCH  28  31
HETATM   31  N   UNK N   1       3.479  -8.592   0.938  0.00  0.00    -0.415 N 
HETATM   32  H   UNK N   1       2.757  -8.966   1.555  0.00  0.00     0.151 HD
HETATM   33  H   UNK N   1       4.338  -9.141   0.938  0.00  0.00     0.151 HD
ENDBRANCH  28  31
ENDBRANCH  25  28
ENDBRANCH  22  24
ENDBRANCH  15  18
ENDBRANCH  13  15
ENDBRANCH   1  13
BRANCH   2  34
HETATM   34  N   UNK N   1      -0.056   1.012   0.381  0.00  0.00    -0.338 N 
HETATM   35  H   UNK N   1      -0.848   0.584   0.781  0.00  0.00     0.167 HD
BRANCH  34  36
HETATM   36  C   UNK N   1      -0.250   2.388   0.128  0.00  0.00     0.058 A 
HETATM   37  C   UNK N   1      -1.461   2.909   0.583  0.00  0.00     0.067 A 
HETATM   38  C   UNK N   1      -1.833   4.221   0.333  0.00  0.00     0.070 A 
HETATM   39  C   UNK N   1      -0.964   5.051  -0.388  0.00  0.00     0.038 A 
HETATM   40  C   UNK N   1       0.251   4.549  -0.863  0.00  0.00     0.029 A 
HETATM   41  C   UNK N   1       0.619   3.219  -0.626  0.00  0.00     0.060 A 
HETATM   42 Cl   UNK N   1       2.118   2.672  -1.357  0.00  0.00    -0.082 Cl
BRANCH  38  43
HETATM   43  O   UNK N   1      -3.035   4.650   0.784  0.00  0.00    -0.356 OA
HETATM   44  C   UNK N   1      -3.521   5.915   0.556  0.00  0.00     0.210 C 
ENDBRANCH  38  43
ENDBRANCH  34  36
ENDBRANCH   2  34
TORSDOF 9
