REMARK  7 active torsions:
REMARK  status: ('A' for Active; 'I' for Inactive)
REMARK    1  A    between atoms: C_3  and  C_9 
REMARK    2  A    between atoms: C_11  and  C_15 
REMARK       I    between atoms: C_15  and  N_17 
REMARK    3  A    between atoms: C_18  and  N_17 
REMARK    4  A    between atoms: C_18  and  C_19 
REMARK    5  A    between atoms: C_18  and  C_27 
REMARK    6  A    between atoms: C_19  and  C_20 
REMARK    7  A    between atoms: C_27  and  N_28 
ROOT
HETATM    1  C   UNK N   1       1.798  -4.328  -0.556  0.00  0.00     0.259 C 
HETATM    2  O   UNK N   1       2.856  -4.924  -0.424  0.00  0.00    -0.267 OA
HETATM    3  N   UNK N   1       1.755  -2.984  -0.695  0.00  0.00    -0.350 N 
HETATM    4  H   UNK N   1       0.884  -2.573  -0.897  0.00  0.00     0.163 HD
ENDROOT
BRANCH   1   5
HETATM    5  C   UNK N   1       0.519  -5.010  -0.456  0.00  0.00     0.075 A 
HETATM    6  C   UNK N   1      -0.650  -4.287  -0.384  0.00  0.00     0.040 A 
HETATM    7  C   UNK N   1      -1.796  -5.036  -0.072  0.00  0.00     0.024 A 
HETATM    8  C   UNK N   1      -1.498  -6.417   0.081  0.00  0.00     0.088 A 
HETATM    9  S   UNK N   1       0.146  -6.586  -0.152  0.00  0.00    -0.072 SA
HETATM   10 Cl   UNK N   1      -2.499  -7.747   0.618  0.00  0.00    -0.075 Cl
BRANCH   7  11
HETATM   11  C   UNK N   1      -3.074  -4.280   0.138  0.00  0.00     0.086 A 
HETATM   12  N   UNK N   1      -3.108  -2.938   0.357  0.00  0.00    -0.294 N 
HETATM   13  C   UNK N   1      -2.001  -1.997   0.453  0.00  0.00     0.178 C 
HETATM   14  N   UNK N   1      -4.362  -2.546   0.519  0.00  0.00    -0.308 N 
HETATM   15  C   UNK N   1      -5.167  -3.614   0.394  0.00  0.00     0.133 A 
ATOM     16  HN  UNK N   1      -4.667  -1.591   0.707  1.00  0.00     0.186 HD
HETATM   17  C   UNK N   1      -4.386  -4.730   0.153  0.00  0.00     0.080 A 
HETATM   18 Cl   UNK N   1      -5.066  -6.310  -0.149  0.00  0.00    -0.080 Cl
ENDBRANCH   7  11
ENDBRANCH   1   5
BRANCH   3  19
HETATM   19  C   UNK N   1       2.881  -2.121  -0.570  0.00  0.00     0.106 C 
BRANCH  19  20
HETATM   20  C   UNK N   1       2.471  -0.959   0.341  0.00  0.00     0.065 C 
BRANCH  20  21
HETATM   21  C   UNK N   1       3.572   0.032   0.373  0.00  0.00    -0.053 A 
HETATM   22  C   UNK N   1       3.366   1.323  -0.121  0.00  0.00     0.007 A 
HETATM   23  C   UNK N   1       4.450   2.195  -0.247  0.00  0.00     0.003 A 
HETATM   24  C   UNK N   1       5.738   1.763   0.094  0.00  0.00     0.042 A 
HETATM   25  C   UNK N   1       5.934   0.470   0.591  0.00  0.00     0.116 A 
HETATM   26  C   UNK N   1       4.853  -0.390   0.732  0.00  0.00     0.049 A 
HETATM   27  F   UNK N   1       7.177   0.032   0.893  0.00  0.00    -0.206 F 
ENDBRANCH  20  21
ENDBRANCH  19  20
BRANCH  19  28
HETATM   28  C   UNK N   1       3.292  -1.639  -1.952  0.00  0.00     0.136 C 
BRANCH  28  29
HETATM   29  N   UNK N   1       4.053  -2.683  -2.611  0.00  0.00    -0.428 N 
HETATM   30  H   UNK N   1       3.684  -3.513  -3.075  0.00  0.00     0.149 HD
HETATM   31  H   UNK N   1       5.067  -2.574  -2.611  0.00  0.00     0.149 HD
ENDBRANCH  28  29
ENDBRANCH  19  28
ENDBRANCH   3  19
TORSDOF 7
