REMARK  7 active torsions:
REMARK  status: ('A' for Active; 'I' for Inactive)
REMARK    1  A    between atoms: C_3  and  N_30 
REMARK    2  A    between atoms: C_5  and  N_9 
REMARK       I    between atoms: N_9  and  C_10 
REMARK    3  A    between atoms: C_10  and  C_12 
REMARK    4  A    between atoms: C_15  and  C_22 
REMARK    5  A    between atoms: C_16  and  C_18 
REMARK    6  A    between atoms: C_22  and  N_23 
REMARK       I    between atoms: N_30  and  C_31 
REMARK    7  A    between atoms: C_36  and  C_39 
ROOT
HETATM    1  C   UNK N   1       0.365  -0.972   1.374  0.00  0.00     0.070 C 
HETATM    2  C   UNK N   1       0.615  -2.218   0.599  0.00  0.00     0.032 A 
HETATM    3  C   UNK N   1       1.898  -2.809   0.524  0.00  0.00     0.073 A 
HETATM    4  C   UNK N   1       2.037  -4.027  -0.103  0.00  0.00     0.063 A 
HETATM    5  C   UNK N   1       0.944  -4.648  -0.666  0.00  0.00     0.052 A 
HETATM    6  C   UNK N   1      -0.303  -4.019  -0.625  0.00  0.00     0.117 A 
HETATM    7  N   UNK N   1      -0.437  -2.820  -0.011  0.00  0.00    -0.365 N 
ATOM      8  HN  UNK N   1      -1.348  -2.360  -0.006  1.00  0.00     0.165 HD
ENDROOT
BRANCH   5   9
HETATM    9  N   UNK N   1       1.066  -6.028  -0.842  0.00  0.00    -0.322 N 
HETATM   10  C   UNK N   1       0.042  -6.899  -0.726  0.00  0.00     0.256 C 
HETATM   11  O   UNK N   1      -1.122  -6.553  -0.877  0.00  0.00    -0.267 OA
HETATM   12  H   UNK N   1       1.955  -6.388  -1.064  0.00  0.00     0.169 HD
BRANCH  10  13
HETATM   13  C   UNK N   1       0.355  -8.204  -0.182  0.00  0.00     0.033 A 
HETATM   14  C   UNK N   1       1.655  -8.438   0.267  0.00  0.00     0.017 A 
HETATM   15  C   UNK N   1       1.986  -9.652   0.817  0.00  0.00     0.011 A 
HETATM   16  C   UNK N   1       1.033 -10.668   0.921  0.00  0.00    -0.015 A 
HETATM   17  C   UNK N   1      -0.305 -10.420   0.525  0.00  0.00     0.056 A 
HETATM   18  C   UNK N   1      -0.629  -9.170  -0.011  0.00  0.00     0.034 A 
BRANCH  16  19
HETATM   19  C   UNK N   1       1.531 -12.016   1.322  0.00  0.00     0.311 C 
BRANCH  19  20
HETATM   20  N   UNK N   1       2.624 -12.295   0.399  0.00  0.00     0.096 N 
HETATM   21  C   UNK N   1       3.915 -11.965   0.982  0.00  0.00     0.303 C 
HETATM   22  C   UNK N   1       4.918 -11.876  -0.166  0.00  0.00     0.302 C 
HETATM   23  N   UNK N   1       4.971 -13.130  -0.933  0.00  0.00     0.087 N 
HETATM   24  C   UNK N   1       3.639 -13.653  -1.295  0.00  0.00     0.302 C 
HETATM   25  C   UNK N   1       5.698 -14.130  -0.167  0.00  0.00     0.310 C 
HETATM   26  C   UNK N   1       2.660 -13.649  -0.110  0.00  0.00     0.303 C 
ENDBRANCH  19  20
ENDBRANCH  16  19
BRANCH  17  27
HETATM   27  C   UNK N   1      -1.381 -11.462   0.614  0.00  0.00     0.418 C 
HETATM   28  F   UNK N   1      -1.044 -12.538  -0.183  0.00  0.00    -0.166 F 
HETATM   29  F   UNK N   1      -2.596 -10.953   0.179  0.00  0.00    -0.166 F 
HETATM   30  F   UNK N   1      -1.525 -11.878   1.924  0.00  0.00    -0.166 F 
ENDBRANCH  17  27
ENDBRANCH  10  13
ENDBRANCH   5   9
BRANCH   3  31
HETATM   31  N   UNK N   1       3.067  -2.209   1.033  0.00  0.00    -0.190 N 
HETATM   32  C   UNK N   1       3.467  -0.945   0.555  0.00  0.00     0.683 A 
HETATM   33  N   UNK N   1       2.566  -0.134  -0.059  0.00  0.00    -0.202 N 
HETATM   34  N   UNK N   1       4.783  -0.625   0.547  0.00  0.00    -0.191 N 
HETATM   35  C   UNK N   1       2.940   1.030  -0.631  0.00  0.00     0.108 A 
ATOM     36  HN  UNK N   1       1.585  -0.411  -0.087  1.00  0.00     0.183 HD
HETATM   37  C   UNK N   1       4.278   1.376  -0.653  0.00  0.00     0.048 A 
HETATM   38  C   UNK N   1       5.209   0.518  -0.058  0.00  0.00     0.062 A 
ATOM     39  HN  UNK N   1       5.458  -1.243   0.996  1.00  0.00     0.184 HD
HETATM   40  H   UNK N   1       3.601  -2.669   1.720  0.00  0.00     0.184 HD
BRANCH  38  41
HETATM   41  C   UNK N   1       6.644   0.804  -0.169  0.00  0.00     0.007 A 
HETATM   42  C   UNK N   1       7.084   1.949  -0.844  0.00  0.00     0.016 A 
HETATM   43  C   UNK N   1       8.446   2.189  -0.994  0.00  0.00     0.018 A 
HETATM   44  C   UNK N   1       9.360   1.275  -0.471  0.00  0.00     0.087 A 
HETATM   45  N   UNK N   1       8.922   0.164   0.182  0.00  0.00    -0.374 N 
HETATM   46  C   UNK N   1       7.595  -0.089   0.339  0.00  0.00     0.101 A 
ATOM     47  HN  UNK N   1       9.603  -0.493   0.561  1.00  0.00     0.164 HD
ENDBRANCH  38  41
ENDBRANCH   3  31
TORSDOF 7
