REMARK  6 active torsions:
REMARK  status: ('A' for Active; 'I' for Inactive)
REMARK    1  A    between atoms: N_24  and  C_6 
REMARK    2  A    between atoms: N_25  and  C_7 
REMARK    3  A    between atoms: C_13  and  C_9 
REMARK    4  A    between atoms: C_16  and  C_11 
REMARK    5  A    between atoms: O_28  and  C_14 
REMARK    6  A    between atoms: O_29  and  C_15 
ROOT
HETATM    1  C   UNK N   1       0.208   2.286  -0.234  0.00  0.00     0.158 C 
HETATM    2  C   UNK N   1      -0.226  -0.174   0.129  0.00  0.00     0.109 A 
HETATM    3  C   UNK N   1       1.840   0.381  -0.036  0.00  0.00     0.149 A 
HETATM    4  C   UNK N   1       1.756  -0.955   0.156  0.00  0.00     0.146 A 
HETATM    5  C   UNK N   1       3.080   0.985  -0.212  0.00  0.00     0.282 A 
HETATM    6  C   UNK N   1       4.090  -1.195   0.022  0.00  0.00     0.333 A 
HETATM    7  N   UNK N   1       0.472  -1.331   0.263  0.00  0.00    -0.326 N 
ATOM      8  HN  UNK N   1       0.105  -2.271   0.411  1.00  0.00     0.169 HD
HETATM    9  N   UNK N   1       0.595   0.897  -0.040  0.00  0.00    -0.330 N 
HETATM   10  N   UNK N   1       2.839  -1.766   0.200  0.00  0.00    -0.283 N 
HETATM   11  N   UNK N   1       4.210   0.181  -0.187  0.00  0.00    -0.264 N 
HETATM   12  O   UNK N   1       3.168   2.188  -0.400  0.00  0.00    -0.265 OA
HETATM   13  O   UNK N   1       5.087  -1.900   0.043  0.00  0.00    -0.246 OA
ENDROOT
BRANCH   2  14
HETATM   14  C   UNK N   1      -1.708  -0.136   0.113  0.00  0.00     0.050 C 
HETATM   15  C   UNK N   1      -2.384  -1.301   0.104  0.00  0.00     0.015 C 
BRANCH  15  16
HETATM   16  C   UNK N   1      -3.852  -1.436   0.051  0.00  0.00    -0.033 A 
HETATM   17  C   UNK N   1      -4.720  -0.349   0.078  0.00  0.00     0.014 A 
HETATM   18  C   UNK N   1      -6.098  -0.566   0.045  0.00  0.00     0.040 A 
HETATM   19  C   UNK N   1      -6.653  -1.857  -0.018  0.00  0.00     0.101 A 
HETATM   20  C   UNK N   1      -5.745  -2.987  -0.052  0.00  0.00     0.102 A 
HETATM   21  C   UNK N   1      -4.375  -2.723  -0.019  0.00  0.00     0.051 A 
BRANCH  19  22
HETATM   22  O   UNK N   1      -8.015  -1.884  -0.053  0.00  0.00    -0.353 OA
HETATM   23  C   UNK N   1      -8.876  -2.922  -0.283  0.00  0.00     0.210 C 
ENDBRANCH  19  22
BRANCH  20  24
HETATM   24  O   UNK N   1      -6.051  -4.313  -0.109  0.00  0.00    -0.353 OA
HETATM   25  C   UNK N   1      -7.211  -4.971   0.198  0.00  0.00     0.210 C 
ENDBRANCH  20  24
ENDBRANCH  15  16
ENDBRANCH   2  14
BRANCH  10  26
HETATM   26  C   UNK N   1       2.666  -3.200   0.436  0.00  0.00     0.131 C 
HETATM   27  C   UNK N   1       3.073  -4.008  -0.783  0.00  0.00     0.027 C 
ENDBRANCH  10  26
BRANCH  11  28
HETATM   28  C   UNK N   1       5.527   0.784  -0.413  0.00  0.00     0.133 C 
HETATM   29  C   UNK N   1       6.415   0.642   0.811  0.00  0.00     0.027 C 
ENDBRANCH  11  28
TORSDOF 6
