REMARK  5 active torsions:
REMARK  status: ('A' for Active; 'I' for Inactive)
REMARK       I    between atoms: N_2  and  C_4 
REMARK    1  A    between atoms: C_4  and  C_6 
REMARK    2  A    between atoms: C_6  and  C_7 
REMARK    3  A    between atoms: C_7  and  N_8 
REMARK    4  A    between atoms: C_9  and  C_27 
REMARK       I    between atoms: C_12  and  N_15 
REMARK    5  A    between atoms: N_15  and  C_16 
ROOT
HETATM    1  N   UNK N   1       6.833   2.060   0.443  0.00  0.00    -0.261 N 
HETATM    2  C   UNK N   1       5.958   1.031   0.509  0.00  0.00     0.148 A 
HETATM    3  N   UNK N   1       4.719   1.466   0.327  0.00  0.00    -0.173 N 
ATOM      4  HN  UNK N   1       3.856   0.923   0.356  1.00  0.00     0.186 HD
HETATM    5  C   UNK N   1       4.854   2.778   0.096  0.00  0.00     0.699 A 
HETATM    6  N   UNK N   1       6.146   3.167   0.180  0.00  0.00    -0.128 N 
ATOM      7  HN  UNK N   1       6.516   4.110   0.064  1.00  0.00     0.206 HD
HETATM    8  N   UNK N   1       3.751   3.573  -0.316  0.00  0.00    -0.190 N 
HETATM    9  H   UNK N   1       3.811   4.555  -0.351  0.00  0.00     0.184 HD
ENDROOT
BRANCH   8  10
HETATM   10  C   UNK N   1       2.549   2.887  -0.677  0.00  0.00     0.052 A 
HETATM   11  C   UNK N   1       2.628   1.602  -1.295  0.00  0.00     0.033 A 
HETATM   12  C   UNK N   1       1.509   0.772  -1.397  0.00  0.00     0.042 A 
HETATM   13  C   UNK N   1       0.323   1.254  -0.876  0.00  0.00     0.111 A 
HETATM   14  C   UNK N   1       0.213   2.482  -0.343  0.00  0.00     0.113 A 
HETATM   15  O   UNK N   1      -0.843   0.624  -0.786  0.00  0.00    -0.256 OA
HETATM   16  C   UNK N   1       1.303   3.349  -0.216  0.00  0.00     0.070 A 
HETATM   17  O   UNK N   1      -1.039   2.661   0.074  0.00  0.00    -0.256 OA
HETATM   18  C   UNK N   1      -1.754   1.481  -0.167  0.00  0.00     0.498 A 
HETATM   19  F   UNK N   1      -2.188   0.941   1.030  0.00  0.00    -0.147 F 
HETATM   20  F   UNK N   1      -2.823   1.716  -1.008  0.00  0.00    -0.147 F 
ENDBRANCH   8  10
BRANCH   2  21
HETATM   21  C   UNK N   1       6.223  -0.411   0.583  0.00  0.00     0.013 A 
HETATM   22  C   UNK N   1       7.493  -0.937   0.373  0.00  0.00     0.032 A 
HETATM   23  C   UNK N   1       7.651  -2.320   0.248  0.00  0.00     0.088 A 
HETATM   24  N   UNK N   1       6.571  -3.144   0.330  0.00  0.00    -0.375 N 
HETATM   25  C   UNK N   1       5.322  -2.655   0.546  0.00  0.00     0.088 A 
ATOM     26  HN  UNK N   1       6.702  -4.151   0.228  1.00  0.00     0.164 HD
HETATM   27  C   UNK N   1       5.127  -1.282   0.661  0.00  0.00     0.032 A 
ENDBRANCH   2  21
BRANCH   1  28
HETATM   28  C   UNK N   1       8.278   1.990   0.611  0.00  0.00     0.160 C 
BRANCH  28  29
HETATM   29  C   UNK N   1       9.000   2.241  -0.699  0.00  0.00     0.124 C 
BRANCH  29  30
HETATM   30  C   UNK N   1      10.485   2.168  -0.474  0.00  0.00     0.220 C 
HETATM   31  N   UNK N   1      11.116   0.987  -0.200  0.00  0.00    -0.361 N 
HETATM   32  C   UNK N   1      12.538   0.954   0.033  0.00  0.00     0.152 C 
HETATM   33  C   UNK N   1      10.396  -0.258  -0.152  0.00  0.00     0.152 C 
HETATM   34  O   UNK N   1      11.130   3.204  -0.541  0.00  0.00    -0.273 OA
ENDBRANCH  29  30
ENDBRANCH  28  29
ENDBRANCH   1  28
TORSDOF 5
