REMARK  4 active torsions:
REMARK  status: ('A' for Active; 'I' for Inactive)
REMARK    1  A    between atoms: C_18  and  O_29 
REMARK    2  A    between atoms: O_29  and  C_30 
REMARK    3  A    between atoms: C_30  and  C_31 
REMARK    4  A    between atoms: C_31  and  N_32 
ROOT
HETATM    1  C   UNK N   1      -0.864  -1.292  -0.038  0.00  0.00     0.002 A 
HETATM    2  C   UNK N   1      -0.572  -2.573  -0.493  0.00  0.00     0.009 A 
HETATM    3  C   UNK N   1       0.749  -2.948  -0.754  0.00  0.00    -0.034 A 
HETATM    4  C   UNK N   1       1.794  -2.018  -0.566  0.00  0.00     0.023 A 
HETATM    5  C   UNK N   1       1.499  -0.707  -0.131  0.00  0.00    -0.008 A 
HETATM    6  C   UNK N   1       0.160  -0.363   0.125  0.00  0.00     0.014 A 
HETATM    7  C   UNK N   1       2.547   0.344  -0.006  0.00  0.00     0.060 A 
HETATM    8  C   UNK N   1       2.160   1.677   0.180  0.00  0.00     0.048 A 
HETATM    9  C   UNK N   1       3.134   2.664   0.232  0.00  0.00     0.108 A 
HETATM   10  N   UNK N   1       4.442   2.328   0.121  0.00  0.00    -0.202 N 
ATOM     11  HN  UNK N   1       5.151   3.061   0.150  1.00  0.00     0.183 HD
HETATM   12  C   UNK N   1       4.828   1.034  -0.029  0.00  0.00     0.683 A 
HETATM   13  N   UNK N   1       6.095   0.770  -0.062  0.00  0.00    -0.192 N 
ATOM     14  HN  UNK N   1       6.723   1.574  -0.060  1.00  0.00     0.184 HD
HETATM   15  C   UNK N   1       6.715  -0.513  -0.100  0.00  0.00     0.050 A 
HETATM   16  C   UNK N   1       8.111  -0.588  -0.072  0.00  0.00     0.033 A 
HETATM   17  C   UNK N   1       8.754  -1.828   0.012  0.00  0.00     0.039 A 
HETATM   18  C   UNK N   1       8.015  -3.014   0.090  0.00  0.00     0.077 A 
HETATM   19  C   UNK N   1       6.599  -2.936   0.032  0.00  0.00     0.001 A 
HETATM   20  C   UNK N   1       5.973  -1.694  -0.061  0.00  0.00     0.042 A 
HETATM   21  C   UNK N   1       5.730  -4.138   0.039  0.00  0.00     0.209 C 
HETATM   22  O   UNK N   1       4.841  -4.095   1.119  0.00  0.00    -0.383 OA
HETATM   23  C   UNK N   1       4.464  -5.423   1.347  0.00  0.00     0.195 C 
HETATM   24  C   UNK N   1       3.461  -5.831   0.324  0.00  0.00    -0.003 C 
HETATM   25  C   UNK N   1       2.218  -6.120   0.662  0.00  0.00    -0.003 C 
HETATM   26  C   UNK N   1       1.245  -6.367  -0.435  0.00  0.00     0.195 C 
HETATM   27  O   UNK N   1       0.366  -5.284  -0.517  0.00  0.00    -0.383 OA
HETATM   28  C   UNK N   1       1.009  -4.314  -1.305  0.00  0.00     0.206 C 
HETATM   29  N   UNK N   1       3.877   0.048  -0.103  0.00  0.00    -0.191 N 
HETATM   30  H   UNK N   1       4.157  -0.887  -0.228  0.00  0.00     0.184 HD
ENDROOT
BRANCH  18  31
HETATM   31  O   UNK N   1       8.696  -4.185   0.226  0.00  0.00    -0.349 OA
BRANCH  31  32
HETATM   32  C   UNK N   1       8.186  -5.314   0.834  0.00  0.00     0.206 C 
BRANCH  32  33
HETATM   33  C   UNK N   1       8.074  -6.470  -0.148  0.00  0.00     0.299 C 
BRANCH  33  34
HETATM   34  N   UNK N   1       6.726  -7.023  -0.098  0.00  0.00     0.090 N 
HETATM   35  C   UNK N   1       6.540  -7.924  -1.220  0.00  0.00     0.272 C 
HETATM   36  C   UNK N   1       5.496  -8.935  -0.786  0.00  0.00     0.032 C 
HETATM   37  C   UNK N   1       5.500  -8.879   0.727  0.00  0.00     0.032 C 
HETATM   38  C   UNK N   1       6.580  -7.875   1.071  0.00  0.00     0.272 C 
ENDBRANCH  33  34
ENDBRANCH  32  33
ENDBRANCH  31  32
ENDBRANCH  18  31
TORSDOF 4
