REMARK  8 active torsions:
REMARK  status: ('A' for Active; 'I' for Inactive)
REMARK    1  A    between atoms: N_5  and  C_8 
REMARK       I    between atoms: N_11  and  C_14 
REMARK       I    between atoms: C_14  and  N_16 
REMARK    2  A    between atoms: N_16  and  C_17 
REMARK    3  A    between atoms: C_19  and  O_24 
REMARK    4  A    between atoms: O_24  and  C_25 
REMARK    5  A    between atoms: C_28  and  N_32 
REMARK       I    between atoms: N_32  and  C_33 
REMARK    6  A    between atoms: C_33  and  C_35 
REMARK    7  A    between atoms: C_35  and  C_38 
REMARK       I    between atoms: C_38  and  N_40 
REMARK    8  A    between atoms: N_40  and  C_41 
ROOT
HETATM    1  C   UNK N   1      -0.982   2.315  -0.860  0.00  0.00     0.079 A 
HETATM    2  C   UNK N   1       0.097   2.963  -0.278  0.00  0.00     0.040 A 
HETATM    3  C   UNK N   1       0.999   2.226   0.477  0.00  0.00     0.035 A 
HETATM    4  C   UNK N   1       0.831   0.836   0.652  0.00  0.00     0.073 A 
HETATM    5  C   UNK N   1      -0.285   0.200   0.123  0.00  0.00     0.145 A 
HETATM    6  C   UNK N   1      -1.178   0.933  -0.631  0.00  0.00     0.081 A 
HETATM    7  F   UNK N   1      -0.456  -1.140   0.248  0.00  0.00    -0.204 F 
ENDROOT
BRANCH   1   8
HETATM    8  O   UNK N   1      -1.830   2.996  -1.662  0.00  0.00    -0.311 OA
BRANCH   8   9
HETATM    9  C   UNK N   1      -3.028   2.447  -1.896  0.00  0.00     0.081 A 
HETATM   10  C   UNK N   1      -3.930   2.410  -0.852  0.00  0.00     0.086 A 
HETATM   11  C   UNK N   1      -5.079   1.668  -0.967  0.00  0.00     0.111 A 
HETATM   12  N   UNK N   1      -5.333   0.969  -2.111  0.00  0.00    -0.352 N 
HETATM   13  C   UNK N   1      -4.454   0.980  -3.154  0.00  0.00     0.092 A 
ATOM     14  HN  UNK N   1      -6.194   0.428  -2.187  1.00  0.00     0.166 HD
HETATM   15  C   UNK N   1      -3.274   1.725  -3.065  0.00  0.00     0.054 A 
BRANCH  11  16
HETATM   16  N   UNK N   1      -5.995   1.738   0.098  0.00  0.00    -0.294 N 
HETATM   17  C   UNK N   1      -7.320   1.501  -0.010  0.00  0.00     0.323 C 
HETATM   18  N   UNK N   1      -8.130   1.880   1.011  0.00  0.00    -0.334 N 
HETATM   19  O   UNK N   1      -7.796   1.099  -1.061  0.00  0.00    -0.247 OA
HETATM   20  C   UNK N   1      -7.573   2.509   2.194  0.00  0.00     0.129 C 
HETATM   21  C   UNK N   1      -9.540   2.054   0.763  0.00  0.00     0.129 C 
HETATM   22  C   UNK N   1      -7.945   4.001   2.221  0.00  0.00     0.056 C 
HETATM   23  C   UNK N   1      -8.545   4.426   0.875  0.00  0.00     0.226 C 
HETATM   24  C   UNK N   1      -9.787   3.558   0.516  0.00  0.00     0.056 C 
HETATM   25  H   UNK N   1      -5.645   1.976   0.986  0.00  0.00     0.172 HD
BRANCH  23  26
HETATM   26  N   UNK N   1      -8.764   5.872   0.804  0.00  0.00     0.096 N 
HETATM   27  C   UNK N   1      -8.790   6.284  -0.608  0.00  0.00     0.303 C 
HETATM   28  C   UNK N   1      -9.787   7.412  -0.852  0.00  0.00     0.302 C 
HETATM   29  N   UNK N   1     -11.143   6.965  -0.518  0.00  0.00     0.087 N 
HETATM   30  C   UNK N   1     -11.970   8.150  -0.391  0.00  0.00     0.310 C 
HETATM   31  C   UNK N   1     -11.229   6.232   0.755  0.00  0.00     0.302 C 
HETATM   32  C   UNK N   1      -9.940   6.294   1.587  0.00  0.00     0.303 C 
ENDBRANCH  23  26
ENDBRANCH  11  16
ENDBRANCH   8   9
ENDBRANCH   1   8
BRANCH   4  33
HETATM   33  N   UNK N   1       1.858   0.064   1.241  0.00  0.00    -0.323 N 
HETATM   34  C   UNK N   1       3.158   0.346   0.966  0.00  0.00     0.240 C 
HETATM   35  O   UNK N   1       3.439   1.214   0.147  0.00  0.00    -0.272 OA
HETATM   36  H   UNK N   1       1.632  -0.677   1.849  0.00  0.00     0.169 HD
BRANCH  34  37
HETATM   37  C   UNK N   1       4.272  -0.421   1.592  0.00  0.00     0.122 A 
HETATM   38  C   UNK N   1       4.190  -0.268   3.106  0.00  0.00     0.031 A 
HETATM   39  C   UNK N   1       3.978  -1.621   2.485  0.00  0.00     0.031 A 
BRANCH  37  40
HETATM   40  C   UNK N   1       5.656  -0.004   1.134  0.00  0.00     0.240 C 
HETATM   41  O   UNK N   1       6.043   1.122   1.411  0.00  0.00    -0.272 OA
HETATM   42  N   UNK N   1       6.401  -0.755   0.282  0.00  0.00    -0.326 N 
HETATM   43  H   UNK N   1       7.208  -0.340  -0.100  0.00  0.00     0.169 HD
BRANCH  42  44
HETATM   44  C   UNK N   1       6.109  -2.085  -0.100  0.00  0.00     0.034 A 
HETATM   45  C   UNK N   1       6.114  -2.433  -1.455  0.00  0.00     0.032 A 
HETATM   46  C   UNK N   1       5.865  -3.754  -1.840  0.00  0.00     0.044 A 
HETATM   47  C   UNK N   1       5.637  -4.734  -0.867  0.00  0.00     0.116 A 
HETATM   48  C   UNK N   1       5.661  -4.394   0.486  0.00  0.00     0.044 A 
HETATM   49  F   UNK N   1       5.400  -6.014  -1.235  0.00  0.00    -0.206 F 
HETATM   50  C   UNK N   1       5.901  -3.074   0.867  0.00  0.00     0.032 A 
ENDBRANCH  42  44
ENDBRANCH  37  40
ENDBRANCH  34  37
ENDBRANCH   4  33
TORSDOF 8
