REMARK  6 active torsions:
REMARK  status: ('A' for Active; 'I' for Inactive)
REMARK    1  A    between atoms: C_4  and  N_8 
REMARK    2  A    between atoms: C_5  and  N_7 
REMARK       I    between atoms: N_8  and  C_9 
REMARK    3  A    between atoms: C_9  and  C_11 
REMARK    4  A    between atoms: C_14  and  C_17 
REMARK    5  A    between atoms: C_17  and  N_18 
REMARK       I    between atoms: N_18  and  C_19 
REMARK    6  A    between atoms: C_24  and  C_27 
ROOT
HETATM    1  C   UNK N   1       4.533  -5.921  -0.016  0.00  0.00     0.032 A 
HETATM    2  C   UNK N   1       3.349  -6.663   0.135  0.00  0.00     0.017 A 
HETATM    3  C   UNK N   1       2.142  -6.005   0.422  0.00  0.00     0.010 A 
HETATM    4  C   UNK N   1       2.118  -4.607   0.545  0.00  0.00    -0.040 A 
HETATM    5  C   UNK N   1       3.287  -3.874   0.363  0.00  0.00     0.010 A 
HETATM    6  C   UNK N   1       4.483  -4.524   0.081  0.00  0.00     0.017 A 
ENDROOT
BRANCH   4   7
HETATM    7  C   UNK N   1       0.916  -3.893   1.059  0.00  0.00     0.176 C 
BRANCH   7   8
HETATM    8  N   UNK N   1      -0.219  -3.926   0.175  0.00  0.00    -0.222 N 
HETATM    9  C   UNK N   1      -0.914  -2.729  -0.118  0.00  0.00     0.678 A 
HETATM   10  N   UNK N   1      -2.222  -2.783  -0.485  0.00  0.00    -0.202 N 
HETATM   11  N   UNK N   1      -0.304  -1.518   0.036  0.00  0.00    -0.191 N 
HETATM   12  C   UNK N   1      -2.939  -1.648  -0.683  0.00  0.00     0.108 A 
ATOM     13  HN  UNK N   1      -2.671  -3.690  -0.614  1.00  0.00     0.183 HD
HETATM   14  C   UNK N   1      -2.333  -0.404  -0.523  0.00  0.00     0.048 A 
HETATM   15  C   UNK N   1      -0.980  -0.354  -0.170  0.00  0.00     0.062 A 
ATOM     16  HN  UNK N   1       0.677  -1.484   0.310  1.00  0.00     0.184 HD
HETATM   17  H   UNK N   1      -0.510  -4.778  -0.224  0.00  0.00     0.178 HD
BRANCH  15  18
HETATM   18  C   UNK N   1      -0.284   0.946  -0.036  0.00  0.00     0.007 A 
HETATM   19  C   UNK N   1      -0.986   2.156  -0.137  0.00  0.00     0.016 A 
HETATM   20  C   UNK N   1      -0.309   3.370  -0.024  0.00  0.00     0.018 A 
HETATM   21  C   UNK N   1       1.072   3.366   0.178  0.00  0.00     0.087 A 
HETATM   22  N   UNK N   1       1.745   2.187   0.270  0.00  0.00    -0.374 N 
HETATM   23  C   UNK N   1       1.102   0.991   0.173  0.00  0.00     0.101 A 
ATOM     24  HN  UNK N   1       2.755   2.200   0.415  1.00  0.00     0.164 HD
ENDBRANCH  15  18
ENDBRANCH   7   8
ENDBRANCH   4   7
BRANCH   1  25
HETATM   25  C   UNK N   1       5.851  -6.574  -0.167  0.00  0.00     0.256 C 
HETATM   26  N   UNK N   1       6.960  -5.784  -0.158  0.00  0.00    -0.321 N 
HETATM   27  H   UNK N   1       6.796  -4.814  -0.158  0.00  0.00     0.169 HD
HETATM   28  O   UNK N   1       5.940  -7.792  -0.222  0.00  0.00    -0.267 OA
BRANCH  26  29
HETATM   29  C   UNK N   1       8.325  -6.183  -0.149  0.00  0.00     0.061 A 
HETATM   30  C   UNK N   1       8.711  -7.533  -0.145  0.00  0.00     0.032 A 
HETATM   31  C   UNK N   1      10.066  -7.877  -0.100  0.00  0.00     0.002 A 
HETATM   32  C   UNK N   1      11.042  -6.878  -0.054  0.00  0.00     0.002 A 
HETATM   33  C   UNK N   1      10.666  -5.533  -0.056  0.00  0.00     0.031 A 
HETATM   34  C   UNK N   1       9.314  -5.184  -0.103  0.00  0.00     0.052 A 
BRANCH  34  35
HETATM   35  N   UNK N   1       8.949  -3.821  -0.090  0.00  0.00    -0.397 N 
HETATM   36  H   UNK N   1       9.645  -3.125  -0.082  0.00  0.00     0.156 HD
HETATM   37  H   UNK N   1       7.998  -3.567  -0.090  0.00  0.00     0.156 HD
ENDBRANCH  34  35
ENDBRANCH  26  29
ENDBRANCH   1  25
TORSDOF 6
