REMARK WARNING: 32 MAX_TORS EXCEEDED!!!
REMARK  34 active torsions:
REMARK  status: ('A' for Active; 'I' for Inactive)
REMARK    1  A    between atoms: C_2  and  C_3 
REMARK    2  A    between atoms: C_2  and  O_89 
REMARK    3  A    between atoms: C_3  and  C_4 
REMARK    4  A    between atoms: C_3  and  N_57 
REMARK       I    between atoms: C_4  and  N_6 
REMARK    5  A    between atoms: C_7  and  N_6 
REMARK    6  A    between atoms: C_7  and  C_8 
REMARK    7  A    between atoms: C_7  and  C_15 
REMARK    8  A    between atoms: C_8  and  C_9 
REMARK       I    between atoms: C_15  and  N_17 
REMARK    9  A    between atoms: N_17  and  N_18 
REMARK       I    between atoms: N_18  and  C_19 
REMARK       I    between atoms: C_19  and  N_21 
REMARK   10  A    between atoms: C_22  and  N_21 
REMARK   11  A    between atoms: C_22  and  C_23 
REMARK   12  A    between atoms: C_22  and  C_27 
REMARK   13  A    between atoms: C_23  and  C_24 
REMARK       I    between atoms: C_27  and  N_29 
REMARK   14  A    between atoms: C_30  and  N_29 
REMARK   15  A    between atoms: C_30  and  C_31 
REMARK   16  A    between atoms: C_30  and  C_40 
REMARK   17  A    between atoms: C_31  and  C_32 
REMARK   18  A    between atoms: C_32  and  C_33 
REMARK   19  A    between atoms: C_33  and  N_34 
REMARK       I    between atoms: N_34  and  C_35 
REMARK       I    between atoms: C_35  and  N_38 
REMARK       I    between atoms: C_40  and  N_42 
REMARK   20  A    between atoms: C_43  and  N_42 
REMARK   21  A    between atoms: C_43  and  C_44 
REMARK   22  A    between atoms: C_43  and  C_54 
REMARK   23  A    between atoms: C_44  and  C_45 
REMARK       I    between atoms: C_54  and  N_56 
REMARK       I    between atoms: N_57  and  C_58 
REMARK   24  A    between atoms: C_58  and  C_60 
REMARK   25  A    between atoms: C_60  and  C_61 
REMARK   26  A    between atoms: C_60  and  N_65 
REMARK   27  A    between atoms: C_61  and  C_62 
REMARK       I    between atoms: C_62  and  N_64 
REMARK       I    between atoms: N_65  and  C_66 
REMARK   28  A    between atoms: C_68  and  C_66 
REMARK   29  A    between atoms: C_70  and  O_88 
REMARK       I    between atoms: N_72  and  C_73 
REMARK   30  A    between atoms: C_73  and  C_75 
REMARK   31  A    between atoms: C_75  and  C_76 
REMARK   32  A    between atoms: C_75  and  N_84 
REMARK   33  A    between atoms: C_76  and  C_77 
REMARK   34  A    between atoms: C_80  and  O_83 
REMARK       I    between atoms: N_84  and  C_85 
ROOT
HETATM    1  C   UNK N   1       3.617  -4.781  -0.652  0.00  0.00     0.182 C 
ENDROOT
BRANCH   1   2
HETATM    2  N   UNK N   1       4.088  -4.783   0.717  0.00  0.00    -0.346 N 
HETATM    3  C   UNK N   1       4.762  -3.760   1.311  0.00  0.00     0.243 C 
HETATM    4  O   UNK N   1       5.093  -3.880   2.479  0.00  0.00    -0.271 OA
HETATM    5  H   UNK N   1       3.908  -5.584   1.259  0.00  0.00     0.163 HD
BRANCH   3   6
HETATM    6  C   UNK N   1       5.127  -2.470   0.593  0.00  0.00     0.205 C 
BRANCH   6   7
HETATM    7  C   UNK N   1       4.025  -1.433   0.847  0.00  0.00     0.146 C 
HETATM    8  C   UNK N   1       4.373  -0.101   0.210  0.00  0.00     0.042 C 
BRANCH   7   9
HETATM    9  O   UNK N   1       3.829  -1.240   2.216  0.00  0.00    -0.393 OA
HETATM   10  H   UNK N   1       3.877  -1.055   3.167  0.00  0.00     0.210 HD
ENDBRANCH   7   9
ENDBRANCH   6   7
BRANCH   6  11
HETATM   11  N   UNK N   1       5.287  -2.658  -0.835  0.00  0.00    -0.344 N 
HETATM   12  C   UNK N   1       6.262  -3.382  -1.448  0.00  0.00     0.241 C 
HETATM   13  O   UNK N   1       6.210  -3.521  -2.658  0.00  0.00    -0.271 OA
HETATM   14  H   UNK N   1       4.626  -2.220  -1.418  0.00  0.00     0.163 HD
BRANCH  12  15
HETATM   15  C   UNK N   1       7.437  -3.980  -0.727  0.00  0.00     0.185 C 
BRANCH  15  16
HETATM   16  C   UNK N   1       7.173  -5.048   0.327  0.00  0.00     0.137 C 
BRANCH  16  17
HETATM   17  C   UNK N   1       7.749  -6.357  -0.101  0.00  0.00     0.217 C 
HETATM   18  O   UNK N   1       7.011  -7.302  -0.321  0.00  0.00    -0.274 OA
HETATM   19  N   UNK N   1       9.081  -6.502  -0.231  0.00  0.00    -0.370 N 
HETATM   20  H   UNK N   1       9.476  -7.399  -0.327  0.00  0.00     0.159 HD
HETATM   21  H   UNK N   1       9.663  -5.708  -0.231  0.00  0.00     0.159 HD
ENDBRANCH  16  17
ENDBRANCH  15  16
BRANCH  15  22
HETATM   22  N   UNK N   1       8.436  -2.979  -0.434  0.00  0.00    -0.346 N 
HETATM   23  C   UNK N   1       9.168  -2.798   0.695  0.00  0.00     0.241 C 
HETATM   24  O   UNK N   1       9.009  -3.496   1.685  0.00  0.00    -0.271 OA
HETATM   25  H   UNK N   1       8.612  -2.335  -1.158  0.00  0.00     0.163 HD
BRANCH  23  26
HETATM   26  C   UNK N   1      10.258  -1.769   0.657  0.00  0.00     0.181 C 
HETATM   27  C   UNK N   1       9.621  -0.407   0.415  0.00  0.00     0.068 C 
HETATM   28  C   UNK N   1      10.282   0.168  -0.836  0.00  0.00     0.138 C 
HETATM   29  C   UNK N   1      10.922  -1.013  -1.544  0.00  0.00     0.158 C 
HETATM   30  N   UNK N   1      11.045  -2.017  -0.527  0.00  0.00    -0.334 N 
HETATM   31  C   UNK N   1      11.828  -3.123  -0.688  0.00  0.00     0.243 C 
HETATM   32  O   UNK N   1      12.419  -3.311  -1.742  0.00  0.00    -0.271 OA
BRANCH  28  33
HETATM   33  O   UNK N   1      11.289   1.051  -0.446  0.00  0.00    -0.394 OA
HETATM   34  H   UNK N   1      12.171   0.752  -0.175  0.00  0.00     0.210 HD
ENDBRANCH  28  33
BRANCH  31  35
HETATM   35  C   UNK N   1      12.055  -4.068   0.465  0.00  0.00     0.181 C 
BRANCH  35  36
HETATM   36  C   UNK N   1      13.110  -3.695   1.520  0.00  0.00     0.073 C 
BRANCH  36  37
HETATM   37  C   UNK N   1      14.269  -2.928   0.956  0.00  0.00    -0.056 A 
HETATM   38  C   UNK N   1      14.105  -1.599   0.536  0.00  0.00     0.010 A 
HETATM   39  C   UNK N   1      15.180  -0.897  -0.013  0.00  0.00     0.037 A 
HETATM   40  C   UNK N   1      16.426  -1.517  -0.138  0.00  0.00     0.065 A 
HETATM   41  C   UNK N   1      16.598  -2.835   0.296  0.00  0.00     0.037 A 
HETATM   42  C   UNK N   1      15.522  -3.538   0.845  0.00  0.00     0.010 A 
BRANCH  40  43
HETATM   43  O   UNK N   1      17.458  -0.846  -0.673  0.00  0.00    -0.361 OA
HETATM   44  H   UNK N   1      18.224  -1.236  -1.046  0.00  0.00     0.217 HD
ENDBRANCH  40  43
ENDBRANCH  36  37
ENDBRANCH  35  36
BRANCH  35  45
HETATM   45  N   UNK N   1      11.894  -5.481   0.183  0.00  0.00    -0.348 N 
HETATM   46  C   UNK N   1      12.909  -6.309  -0.171  0.00  0.00     0.214 C 
HETATM   47  O   UNK N   1      14.049  -5.890  -0.293  0.00  0.00    -0.274 OA
HETATM   48  C   UNK N   1      12.630  -7.754  -0.401  0.00  0.00     0.117 C 
HETATM   49  H   UNK N   1      10.990  -5.864   0.253  0.00  0.00     0.163 HD
ENDBRANCH  35  45
ENDBRANCH  31  35
ENDBRANCH  23  26
ENDBRANCH  15  22
ENDBRANCH  12  15
ENDBRANCH   6  11
ENDBRANCH   3   6
ENDBRANCH   1   2
BRANCH   1  50
HETATM   50  C   UNK N   1       3.929  -6.030  -1.494  0.00  0.00     0.073 C 
BRANCH  50  51
HETATM   51  C   UNK N   1       3.839  -7.398  -0.868  0.00  0.00    -0.056 A 
HETATM   52  C   UNK N   1       3.926  -8.514  -1.708  0.00  0.00     0.007 A 
HETATM   53  C   UNK N   1       3.863  -9.807  -1.178  0.00  0.00     0.001 A 
HETATM   54  C   UNK N   1       3.718  -9.992   0.199  0.00  0.00     0.000 A 
HETATM   55  C   UNK N   1       3.641  -8.883   1.046  0.00  0.00     0.001 A 
HETATM   56  C   UNK N   1       3.705  -7.592   0.515  0.00  0.00     0.007 A 
ENDBRANCH  50  51
ENDBRANCH   1  50
BRANCH   1  57
HETATM   57  C   UNK N   1       2.342  -4.023  -0.967  0.00  0.00     0.259 C 
HETATM   58  O   UNK N   1       2.182  -3.620  -2.108  0.00  0.00    -0.269 OA
HETATM   59  N   UNK N   1       1.388  -3.744  -0.036  0.00  0.00    -0.264 N 
HETATM   60  H   UNK N   1       0.586  -3.248  -0.316  0.00  0.00     0.190 HD
BRANCH  59  61
HETATM   61  N   UNK N   1       1.501  -4.130   1.280  0.00  0.00    -0.249 N 
HETATM   62  C   UNK N   1       1.410  -5.420   1.707  0.00  0.00     0.335 C 
HETATM   63  O   UNK N   1       1.711  -5.671   2.862  0.00  0.00    -0.246 OA
HETATM   64  N   UNK N   1       1.018  -6.445   0.902  0.00  0.00    -0.329 N 
HETATM   65  H   UNK N   1       1.160  -7.360   1.238  0.00  0.00     0.165 HD
HETATM   66  H   UNK N   1       1.657  -3.430   1.955  0.00  0.00     0.192 HD
BRANCH  64  67
HETATM   67  C   UNK N   1       0.413  -6.305  -0.402  0.00  0.00     0.178 C 
BRANCH  67  68
HETATM   68  C   UNK N   1       0.471  -7.599  -1.231  0.00  0.00     0.038 C 
BRANCH  68  69
HETATM   69  C   UNK N   1       0.509  -8.952  -0.508  0.00  0.00    -0.020 C 
HETATM   70  C   UNK N   1       0.227 -10.037  -1.526  0.00  0.00     0.009 C 
HETATM   71  C   UNK N   1      -0.485  -9.100   0.625  0.00  0.00     0.009 C 
ENDBRANCH  68  69
ENDBRANCH  67  68
BRANCH  67  72
HETATM   72  C   UNK N   1      -1.010  -5.903  -0.238  0.00  0.00     0.241 C 
HETATM   73  O   UNK N   1      -1.455  -4.981  -0.903  0.00  0.00    -0.271 OA
HETATM   74  N   UNK N   1      -1.808  -6.630   0.589  0.00  0.00    -0.346 N 
HETATM   75  H   UNK N   1      -1.369  -7.297   1.164  0.00  0.00     0.163 HD
BRANCH  74  76
HETATM   76  C   UNK N   1      -3.245  -6.509   0.699  0.00  0.00     0.176 C 
BRANCH  76  77
HETATM   77  C   UNK N   1      -3.715  -5.289   1.512  0.00  0.00     0.036 C 
BRANCH  77  78
HETATM   78  C   UNK N   1      -3.203  -3.927   1.065  0.00  0.00     0.023 C 
BRANCH  78  79
HETATM   79  C   UNK N   1      -3.890  -3.449  -0.199  0.00  0.00     0.138 C 
BRANCH  79  80
HETATM   80  N   UNK N   1      -5.263  -3.103   0.066  0.00  0.00    -0.227 N 
HETATM   81  C   UNK N   1      -5.747  -1.784  -0.128  0.00  0.00     0.667 C 
HETATM   82  N   UNK N   1      -4.937  -0.833  -0.431  0.00  0.00    -0.235 N 
HETATM   83  N   UNK N   1      -7.140  -1.534  -0.026  0.00  0.00    -0.231 N 
HETATM   84  H   UNK N   1      -3.996  -1.006  -0.662  0.00  0.00     0.174 HD
ATOM     85  HN  UNK N   1      -5.278   0.128  -0.431  1.00  0.00     0.174 HD
HETATM   86  C   UNK N   1      -7.699  -0.232  -0.286  0.00  0.00     0.165 C 
HETATM   87  H   UNK N   1      -7.741  -2.271   0.229  0.00  0.00     0.177 HD
HETATM   88  H   UNK N   1      -5.880  -3.798   0.390  0.00  0.00     0.177 HD
ENDBRANCH  79  80
ENDBRANCH  78  79
ENDBRANCH  77  78
ENDBRANCH  76  77
BRANCH  76  89
HETATM   89  C   UNK N   1      -3.937  -6.827  -0.615  0.00  0.00     0.241 C 
HETATM   90  O   UNK N   1      -3.268  -7.068  -1.608  0.00  0.00    -0.271 OA
HETATM   91  N   UNK N   1      -5.282  -6.922  -0.707  0.00  0.00    -0.346 N 
HETATM   92  H   UNK N   1      -5.673  -7.168  -1.576  0.00  0.00     0.163 HD
BRANCH  91  93
HETATM   93  C   UNK N   1      -6.175  -6.681   0.399  0.00  0.00     0.180 C 
BRANCH  93  94
HETATM   94  C   UNK N   1      -6.280  -7.920   1.306  0.00  0.00     0.075 C 
BRANCH  94  95
HETATM   95  C   UNK N   1      -6.577  -9.182   0.553  0.00  0.00    -0.028 A 
HETATM   96  C   UNK N   1      -7.768  -9.522  -0.080  0.00  0.00     0.096 A 
HETATM   97  N   UNK N   1      -7.641 -10.742  -0.662  0.00  0.00    -0.365 N 
HETATM   98  C   UNK N   1      -6.388 -11.153  -0.396  0.00  0.00     0.042 A 
HETATM   99  H   UNK N   1      -8.327 -11.227  -1.175  0.00  0.00     0.165 HD
HETATM  100  C   UNK N   1      -5.713 -10.227   0.346  0.00  0.00    -0.002 A 
HETATM  101  C   UNK N   1      -5.796 -12.347  -0.799  0.00  0.00     0.030 A 
HETATM  102  C   UNK N   1      -4.392 -10.421   0.743  0.00  0.00     0.014 A 
HETATM  103  C   UNK N   1      -3.762 -11.617   0.353  0.00  0.00     0.001 A 
HETATM  104  C   UNK N   1      -4.461 -12.577  -0.416  0.00  0.00     0.002 A 
ENDBRANCH  94  95
ENDBRANCH  93  94
BRANCH  93 105
HETATM  105  C   UNK N   1      -7.474  -6.138  -0.122  0.00  0.00     0.238 C 
HETATM  106  O   UNK N   1      -8.536  -6.667   0.162  0.00  0.00    -0.271 OA
HETATM  107  N   UNK N   1      -7.466  -5.046  -0.912  0.00  0.00    -0.368 N 
HETATM  108  H   UNK N   1      -6.772  -4.653  -1.489  0.00  0.00     0.159 HD
HETATM  109  H   UNK N   1      -8.315  -4.547  -0.912  0.00  0.00     0.159 HD
ENDBRANCH  93 105
ENDBRANCH  91  93
ENDBRANCH  76  89
ENDBRANCH  74  76
ENDBRANCH  67  72
ENDBRANCH  64  67
ENDBRANCH  59  61
ENDBRANCH   1  57
TORSDOF 34
