REMARK  17 active torsions:
REMARK  status: ('A' for Active; 'I' for Inactive)
REMARK    1  A    between atoms: C_2  and  C_4 
REMARK    2  A    between atoms: C_2  and  C_22 
REMARK    3  A    between atoms: C_4  and  C_5 
REMARK    4  A    between atoms: C_5  and  C_6 
REMARK    5  A    between atoms: C_6  and  C_7 
REMARK    6  A    between atoms: C_7  and  C_8 
REMARK    7  A    between atoms: C_8  and  C_9 
REMARK    8  A    between atoms: C_9  and  C_10 
REMARK    9  A    between atoms: C_9  and  O_21 
REMARK   10  A    between atoms: C_10  and  C_11 
REMARK   11  A    between atoms: C_11  and  C_12 
REMARK   12  A    between atoms: C_12  and  C_13 
REMARK   13  A    between atoms: C_13  and  C_14 
REMARK   14  A    between atoms: C_14  and  C_15 
REMARK   15  A    between atoms: C_15  and  C_18 
REMARK   16  A    between atoms: C_18  and  O_20 
REMARK   17  A    between atoms: C_22  and  O_24 
ROOT
HETATM    1  C   UNK N   1       5.647   3.162  -0.267  0.00  0.00     0.118 C 
ENDROOT
BRANCH   1   2
HETATM    2  C   UNK N   1       4.743   2.349   0.646  0.00  0.00     0.032 C 
BRANCH   2   3
HETATM    3  C   UNK N   1       3.698   1.615  -0.175  0.00  0.00     0.002 C 
BRANCH   3   4
HETATM    4  C   UNK N   1       2.862   0.734   0.733  0.00  0.00     0.000 C 
BRANCH   4   5
HETATM    5  C   UNK N   1       1.465   0.565   0.164  0.00  0.00     0.001 C 
BRANCH   5   6
HETATM    6  C   UNK N   1       0.541   1.654   0.710  0.00  0.00     0.020 C 
BRANCH   6   7
HETATM    7  C   UNK N   1      -0.008   2.600  -0.366  0.00  0.00     0.038 C 
HETATM    8  C   UNK N   1       1.139   3.332  -1.048  0.00  0.00     0.026 C 
HETATM    9  C   UNK N   1      -0.772   1.812  -1.420  0.00  0.00     0.026 C 
BRANCH   7  10
HETATM   10  C   UNK N   1      -0.951   3.586   0.285  0.00  0.00     0.147 C 
HETATM   11  O   UNK N   1      -1.950   3.186   0.863  0.00  0.00    -0.649 OA
BRANCH  10  12
HETATM   12  O   UNK N   1      -0.705   4.911   0.235  0.00  0.00    -0.776 OA
HETATM   13  H   UNK N   1       0.178   5.224   0.200  0.00  0.00     0.167 HD
ENDBRANCH  10  12
ENDBRANCH   7  10
ENDBRANCH   6   7
ENDBRANCH   5   6
ENDBRANCH   4   5
ENDBRANCH   3   4
ENDBRANCH   2   3
ENDBRANCH   1   2
BRANCH   1  14
HETATM   14  C   UNK N   1       6.696   2.289  -0.958  0.00  0.00     0.032 C 
BRANCH  14  15
HETATM   15  C   UNK N   1       7.833   1.893  -0.026  0.00  0.00     0.002 C 
BRANCH  15  16
HETATM   16  C   UNK N   1       8.732   0.886  -0.718  0.00  0.00     0.000 C 
BRANCH  16  17
HETATM   17  C   UNK N   1      10.067   0.792  -0.002  0.00  0.00     0.001 C 
BRANCH  17  18
HETATM   18  C   UNK N   1      11.061   1.776  -0.619  0.00  0.00     0.020 C 
BRANCH  18  19
HETATM   19  C   UNK N   1      11.721   2.702   0.409  0.00  0.00     0.038 C 
HETATM   20  C   UNK N   1      10.652   3.547   1.092  0.00  0.00     0.026 C 
HETATM   21  C   UNK N   1      12.446   1.888   1.471  0.00  0.00     0.026 C 
BRANCH  19  22
HETATM   22  C   UNK N   1      12.725   3.585  -0.296  0.00  0.00     0.147 C 
HETATM   23  O   UNK N   1      13.671   3.085  -0.885  0.00  0.00    -0.649 OA
BRANCH  22  24
HETATM   24  O   UNK N   1      12.592   4.928  -0.282  0.00  0.00    -0.776 OA
HETATM   25  H   UNK N   1      13.354   5.474  -0.272  0.00  0.00     0.167 HD
ENDBRANCH  22  24
ENDBRANCH  19  22
ENDBRANCH  18  19
ENDBRANCH  17  18
ENDBRANCH  16  17
ENDBRANCH  15  16
ENDBRANCH  14  15
ENDBRANCH   1  14
BRANCH   1  26
HETATM   26  O   UNK N   1       6.258   4.191   0.453  0.00  0.00    -0.396 OA
HETATM   27  H   UNK N   1       7.089   4.182   0.953  0.00  0.00     0.210 HD
ENDBRANCH   1  26
TORSDOF 17
