REMARK  8 active torsions:
REMARK  status: ('A' for Active; 'I' for Inactive)
REMARK    1  A    between atoms: C_2  and  O_3 
REMARK    2  A    between atoms: O_3  and  C_4 
REMARK    3  A    between atoms: C_6  and  N_29 
REMARK    4  A    between atoms: C_9  and  C_10 
REMARK       I    between atoms: C_10  and  N_12 
REMARK    5  A    between atoms: N_12  and  C_13 
REMARK    6  A    between atoms: C_13  and  C_14 
REMARK    7  A    between atoms: N_16  and  C_20 
REMARK    8  A    between atoms: C_20  and  C_21 
ROOT
HETATM    1  C   UNK N   1      -6.493  -1.436  -0.455  0.00  0.00     0.254 C 
HETATM    2  O   UNK N   1      -7.622  -1.827  -0.172  0.00  0.00    -0.268 OA
HETATM    3  N   UNK N   1      -6.294  -0.177  -0.885  0.00  0.00    -0.354 N 
HETATM    4  H   UNK N   1      -5.421   0.046  -1.282  0.00  0.00     0.162 HD
ENDROOT
BRANCH   3   5
HETATM    5  C   UNK N   1      -7.274   0.849  -0.799  0.00  0.00     0.156 C 
BRANCH   5   6
HETATM    6  C   UNK N   1      -6.663   1.883   0.119  0.00  0.00     0.167 C 
HETATM    7  C   UNK N   1      -7.689   2.335   1.175  0.00  0.00     0.306 C 
HETATM    8  N   UNK N   1      -8.242   3.658   0.855  0.00  0.00     0.097 N 
HETATM    9  C   UNK N   1      -7.167   4.647   0.654  0.00  0.00     0.299 C 
HETATM   10  C   UNK N   1      -5.843   4.004   0.206  0.00  0.00     0.198 C 
HETATM   11  O   UNK N   1      -6.125   2.935  -0.656  0.00  0.00    -0.381 OA
BRANCH   8  12
HETATM   12  C   UNK N   1      -9.063   3.577  -0.356  0.00  0.00     0.311 C 
BRANCH  12  13
HETATM   13  C   UNK N   1     -10.254   2.698  -0.129  0.00  0.00    -0.030 A 
HETATM   14  C   UNK N   1     -10.292   1.423  -0.706  0.00  0.00     0.012 A 
HETATM   15  C   UNK N   1     -11.366   0.569  -0.454  0.00  0.00     0.043 A 
HETATM   16  C   UNK N   1     -12.412   0.990   0.370  0.00  0.00     0.116 A 
HETATM   17  C   UNK N   1     -12.384   2.268   0.940  0.00  0.00     0.043 A 
HETATM   18  F   UNK N   1     -13.453   0.160   0.617  0.00  0.00    -0.206 F 
HETATM   19  C   UNK N   1     -11.301   3.119   0.696  0.00  0.00     0.012 A 
ENDBRANCH  12  13
ENDBRANCH   8  12
ENDBRANCH   5   6
ENDBRANCH   3   5
BRANCH   1  20
HETATM   20  C   UNK N   1      -5.319  -2.307  -0.229  0.00  0.00     0.067 A 
HETATM   21  C   UNK N   1      -5.507  -3.654   0.099  0.00  0.00     0.046 A 
HETATM   22  C   UNK N   1      -4.414  -4.479   0.367  0.00  0.00     0.061 A 
HETATM   23  C   UNK N   1      -3.114  -3.955   0.324  0.00  0.00     0.050 A 
HETATM   24 Cl   UNK N   1      -4.694  -6.165   0.761  0.00  0.00    -0.082 Cl
HETATM   25  C   UNK N   1      -2.915  -2.611   0.013  0.00  0.00     0.068 A 
HETATM   26  C   UNK N   1      -4.002  -1.773  -0.265  0.00  0.00     0.086 A 
BRANCH  23  27
HETATM   27  N   UNK N   1      -2.000  -4.773   0.599  0.00  0.00    -0.398 N 
HETATM   28  H   UNK N   1      -2.106  -5.732   0.791  0.00  0.00     0.156 HD
HETATM   29  H   UNK N   1      -1.099  -4.377   0.599  0.00  0.00     0.156 HD
ENDBRANCH  23  27
BRANCH  26  30
HETATM   30  O   UNK N   1      -3.807  -0.457  -0.535  0.00  0.00    -0.350 OA
BRANCH  30  31
HETATM   31  C   UNK N   1      -2.603   0.196  -0.419  0.00  0.00     0.171 C 
HETATM   32  C   UNK N   1      -2.777   1.398   0.489  0.00  0.00     0.034 C 
ENDBRANCH  30  31
ENDBRANCH  26  30
ENDBRANCH   1  20
TORSDOF 8
