REMARK  0 active torsions:
REMARK  status: ('A' for Active; 'I' for Inactive)
ROOT
HETATM    1  C   UNK N   1       5.986  -2.032   0.000  0.00  0.00     0.046 A 
HETATM    2  C   UNK N   1       4.707  -1.224   0.000  0.00  0.00     0.061 A 
HETATM    3  C   UNK N   1       4.458  -2.718  -0.000  0.00  0.00     0.046 A 
HETATM    4  C   UNK N   1       5.538   0.069  -0.000  0.00  0.00     0.042 A 
HETATM    5  C   UNK N   1       4.826   1.419   0.000  0.00  0.00     0.048 A 
HETATM    6  C   UNK N   1       3.331   1.372   0.000  0.00  0.00     0.030 A 
HETATM    7  C   UNK N   1       2.678   0.192  -0.000  0.00  0.00     0.091 A 
HETATM    8  O   UNK N   1       3.348  -0.985  -0.000  0.00  0.00    -0.339 OA
HETATM    9  C   UNK N   1       1.195   0.133  -0.000  0.00  0.00     0.012 A 
HETATM   10  C   UNK N   1       0.559  -1.116  -0.000  0.00  0.00     0.015 A 
HETATM   11  C   UNK N   1      -0.833  -1.201  -0.000  0.00  0.00     0.001 A 
HETATM   12  C   UNK N   1      -1.602  -0.035  -0.000  0.00  0.00     0.001 A 
HETATM   13  C   UNK N   1      -0.979   1.216  -0.000  0.00  0.00     0.016 A 
HETATM   14  C   UNK N   1       0.420   1.309  -0.000  0.00  0.00     0.031 A 
HETATM   15  C   UNK N   1       1.097   2.618  -0.000  0.00  0.00     0.233 A 
HETATM   16  O   UNK N   1       0.451   3.657  -0.000  0.00  0.00    -0.283 OA
HETATM   17  C   UNK N   1       2.573   2.652   0.000  0.00  0.00     0.231 A 
HETATM   18  O   UNK N   1       3.163   3.721   0.000  0.00  0.00    -0.283 OA
ENDROOT
TORSDOF 0
