REMARK WARNING: 32 MAX_TORS EXCEEDED!!!
REMARK  33 active torsions:
REMARK  status: ('A' for Active; 'I' for Inactive)
REMARK    1  A    between atoms: O_4  and  C_46 
REMARK    2  A    between atoms: O_9  and  C_73 
REMARK    3  A    between atoms: O_11  and  C_76 
REMARK       I    between atoms: N_13  and  C_32 
REMARK    4  A    between atoms: C_33  and  N_14 
REMARK       I    between atoms: N_14  and  C_38 
REMARK       I    between atoms: N_15  and  C_34 
REMARK    5  A    between atoms: C_39  and  N_15 
REMARK    6  A    between atoms: C_36  and  N_16 
REMARK       I    between atoms: N_16  and  C_45 
REMARK    7  A    between atoms: C_44  and  N_18 
REMARK       I    between atoms: N_18  and  C_53 
REMARK    8  A    between atoms: C_50  and  N_21 
REMARK       I    between atoms: N_21  and  C_61 
REMARK    9  A    between atoms: C_58  and  N_22 
REMARK       I    between atoms: N_22  and  C_72 
REMARK   10  A    between atoms: N_23  and  C_71 
REMARK   11  A    between atoms: C_74  and  N_25 
REMARK       I    between atoms: N_26  and  C_77 
REMARK       I    between atoms: N_27  and  C_77 
REMARK   12  A    between atoms: C_28  and  C_34 
REMARK   13  A    between atoms: C_32  and  C_33 
REMARK   14  A    between atoms: C_33  and  C_35 
REMARK   15  A    between atoms: C_35  and  C_40 
REMARK   16  A    between atoms: C_36  and  C_37 
REMARK   17  A    between atoms: C_36  and  C_38 
REMARK   18  A    between atoms: C_37  and  C_41 
REMARK   19  A    between atoms: C_39  and  C_42 
REMARK   20  A    between atoms: C_39  and  C_46 
REMARK   21  A    between atoms: C_42  and  C_49 
REMARK   22  A    between atoms: C_44  and  C_45 
REMARK   23  A    between atoms: C_44  and  C_51 
REMARK   24  A    between atoms: C_50  and  C_52 
REMARK   25  A    between atoms: C_50  and  C_53 
REMARK   26  A    between atoms: C_51  and  C_55 
REMARK   27  A    between atoms: C_58  and  C_61 
REMARK   28  A    between atoms: C_58  and  C_62 
REMARK   29  A    between atoms: C_62  and  C_67 
REMARK   30  A    between atoms: C_67  and  C_71 
REMARK   31  A    between atoms: C_72  and  C_74 
REMARK   32  A    between atoms: C_74  and  C_75 
REMARK   33  A    between atoms: C_75  and  C_76 
ROOT
HETATM    1  C   UNK N   1      11.422 -11.676   1.485  0.00  0.00     0.180 C 
ENDROOT
BRANCH   1   2
HETATM    2  N   UNK N   1      12.490 -12.645   1.321  0.00  0.00    -0.346 N 
HETATM    3  C   UNK N   1      13.787 -12.350   1.553  0.00  0.00     0.241 C 
HETATM    4  O   UNK N   1      14.096 -11.315   2.127  0.00  0.00    -0.271 OA
HETATM    5  H   UNK N   1      12.259 -13.556   1.028  0.00  0.00     0.163 HD
BRANCH   3   6
HETATM    6  C   UNK N   1      14.858 -13.146   0.877  0.00  0.00     0.180 C 
BRANCH   6   7
HETATM    7  N   UNK N   1      15.276 -12.559  -0.376  0.00  0.00    -0.346 N 
HETATM    8  C   UNK N   1      16.254 -11.628  -0.399  0.00  0.00     0.241 C 
HETATM    9  O   UNK N   1      16.629 -11.170  -1.467  0.00  0.00    -0.271 OA
HETATM   10  H   UNK N   1      14.847 -12.840  -1.216  0.00  0.00     0.163 HD
BRANCH   8  11
HETATM   11  C   UNK N   1      16.896 -11.191   0.897  0.00  0.00     0.176 C 
BRANCH  11  12
HETATM   12  N   UNK N   1      18.163 -11.837   1.150  0.00  0.00    -0.346 N 
HETATM   13  C   UNK N   1      19.270 -11.694   0.388  0.00  0.00     0.241 C 
HETATM   14  O   UNK N   1      19.280 -10.935  -0.571  0.00  0.00    -0.271 OA
HETATM   15  H   UNK N   1      18.225 -12.424   1.938  0.00  0.00     0.163 HD
BRANCH  13  16
HETATM   16  C   UNK N   1      20.468 -12.533   0.705  0.00  0.00     0.177 C 
BRANCH  16  17
HETATM   17  N   UNK N   1      20.734 -13.466  -0.379  0.00  0.00    -0.418 N 
HETATM   18  H   UNK N   1      20.260 -13.954  -1.138  0.00  0.00     0.150 HD
HETATM   19  H   UNK N   1      21.723 -13.714  -0.379  0.00  0.00     0.150 HD
ENDBRANCH  16  17
BRANCH  16  20
HETATM   20  C   UNK N   1      21.709 -11.709   1.048  0.00  0.00     0.144 C 
BRANCH  20  21
HETATM   21  C   UNK N   1      22.210 -10.878  -0.094  0.00  0.00     0.141 C 
HETATM   22  O   UNK N   1      22.606 -11.411  -1.118  0.00  0.00    -0.650 OA
BRANCH  21  23
HETATM   23  O   UNK N   1      22.233  -9.538   0.015  0.00  0.00    -0.776 OA
HETATM   24  H   UNK N   1      23.049  -9.084   0.092  0.00  0.00     0.167 HD
ENDBRANCH  21  23
ENDBRANCH  20  21
ENDBRANCH  16  20
ENDBRANCH  13  16
ENDBRANCH  11  12
BRANCH  11  25
HETATM   25  C   UNK N   1      16.833  -9.708   1.250  0.00  0.00     0.036 C 
BRANCH  25  26
HETATM   26  C   UNK N   1      17.290  -8.818   0.116  0.00  0.00     0.023 C 
BRANCH  26  27
HETATM   27  C   UNK N   1      17.154  -7.372   0.522  0.00  0.00     0.138 C 
BRANCH  27  28
HETATM   28  N   UNK N   1      18.466  -6.788   0.568  0.00  0.00    -0.227 N 
HETATM   29  C   UNK N   1      18.844  -5.902  -0.284  0.00  0.00     0.665 C 
HETATM   30  N   UNK N   1      20.152  -5.384  -0.209  0.00  0.00    -0.235 N 
HETATM   31  N   UNK N   1      17.975  -5.464  -1.314  0.00  0.00    -0.235 N 
HETATM   32  H   UNK N   1      20.923  -5.994  -0.157  0.00  0.00     0.174 HD
HETATM   33  H   UNK N   1      20.296  -4.410  -0.209  0.00  0.00     0.174 HD
HETATM   34  H   UNK N   1      17.937  -4.789  -2.029  0.00  0.00     0.174 HD
HETATM   35  H   UNK N   1      17.151  -6.004  -1.314  0.00  0.00     0.174 HD
ATOM     36  HN  UNK N   1      19.115  -7.084   1.296  1.00  0.00     0.177 HD
ENDBRANCH  27  28
ENDBRANCH  26  27
ENDBRANCH  25  26
ENDBRANCH  11  25
ENDBRANCH   8  11
ENDBRANCH   6   7
BRANCH   6  37
HETATM   37  C   UNK N   1      14.945 -14.664   0.893  0.00  0.00     0.009 C 
HETATM   38  C   UNK N   1      14.020 -15.310   1.902  0.00  0.00     0.012 C 
HETATM   39  C   UNK N   1      16.380 -15.026   1.230  0.00  0.00     0.012 C 
ENDBRANCH   6  37
ENDBRANCH   3   6
ENDBRANCH   1   2
BRANCH   1  40
HETATM   40  C   UNK N   1      11.758 -10.538   0.599  0.00  0.00     0.241 C 
HETATM   41  O   UNK N   1      12.080 -10.758  -0.560  0.00  0.00    -0.271 OA
HETATM   42  N   UNK N   1      11.704  -9.280   1.076  0.00  0.00    -0.346 N 
HETATM   43  H   UNK N   1      11.465  -9.142   2.021  0.00  0.00     0.163 HD
BRANCH  42  44
HETATM   44  C   UNK N   1      11.982  -8.129   0.256  0.00  0.00     0.180 C 
BRANCH  44  45
HETATM   45  C   UNK N   1      13.477  -7.795   0.108  0.00  0.00     0.013 C 
HETATM   46  C   UNK N   1      14.212  -8.777  -0.783  0.00  0.00     0.012 C 
BRANCH  45  47
HETATM   47  C   UNK N   1      14.166  -7.707   1.461  0.00  0.00     0.002 C 
HETATM   48  C   UNK N   1      13.819  -6.410   2.165  0.00  0.00     0.005 C 
ENDBRANCH  45  47
ENDBRANCH  44  45
BRANCH  44  49
HETATM   49  C   UNK N   1      11.163  -8.109  -1.024  0.00  0.00     0.241 C 
HETATM   50  O   UNK N   1      11.552  -8.694  -2.021  0.00  0.00    -0.271 OA
HETATM   51  N   UNK N   1      10.016  -7.400  -1.087  0.00  0.00    -0.346 N 
HETATM   52  H   UNK N   1       9.540  -7.347  -1.947  0.00  0.00     0.163 HD
BRANCH  51  53
HETATM   53  C   UNK N   1       9.461  -6.717   0.052  0.00  0.00     0.182 C 
BRANCH  53  54
HETATM   54  C   UNK N   1      10.250  -5.574   0.689  0.00  0.00     0.243 C 
HETATM   55  O   UNK N   1       9.771  -5.068   1.687  0.00  0.00    -0.271 OA
HETATM   56  N   UNK N   1      11.363  -4.994   0.108  0.00  0.00    -0.337 N 
HETATM   57  C   UNK N   1      11.737  -3.650   0.477  0.00  0.00     0.179 C 
HETATM   58  C   UNK N   1      12.011  -5.433  -1.094  0.00  0.00     0.127 C 
HETATM   59  C   UNK N   1      13.096  -3.465  -0.177  0.00  0.00     0.037 C 
HETATM   60  C   UNK N   1      13.108  -4.419  -1.368  0.00  0.00     0.022 C 
BRANCH  57  61
HETATM   61  C   UNK N   1      10.718  -2.752  -0.215  0.00  0.00     0.241 C 
HETATM   62  O   UNK N   1      10.777  -1.536  -0.116  0.00  0.00    -0.271 OA
HETATM   63  N   UNK N   1       9.756  -3.364  -0.958  0.00  0.00    -0.345 N 
HETATM   64  H   UNK N   1       9.857  -4.344  -0.964  0.00  0.00     0.163 HD
BRANCH  63  65
HETATM   65  C   UNK N   1       8.626  -2.929  -1.738  0.00  0.00     0.186 C 
BRANCH  65  66
HETATM   66  C   UNK N   1       8.451  -1.422  -1.934  0.00  0.00     0.074 C 
BRANCH  66  67
HETATM   67  C   UNK N   1       7.849  -0.663  -0.796  0.00  0.00    -0.056 A 
HETATM   68  C   UNK N   1       8.478   0.500  -0.345  0.00  0.00     0.007 A 
HETATM   69  C   UNK N   1       7.886   1.273   0.657  0.00  0.00     0.001 A 
HETATM   70  C   UNK N   1       6.661   0.886   1.209  0.00  0.00     0.000 A 
HETATM   71  C   UNK N   1       6.026  -0.273   0.756  0.00  0.00     0.001 A 
HETATM   72  C   UNK N   1       6.612  -1.037  -0.253  0.00  0.00     0.007 A 
ENDBRANCH  66  67
ENDBRANCH  65  66
BRANCH  65  73
HETATM   73  C   UNK N   1       7.387  -3.682  -1.319  0.00  0.00     0.163 C 
HETATM   74  O   UNK N   1       7.378  -4.341  -0.289  0.00  0.00    -0.648 OA
BRANCH  73  75
HETATM   75  O   UNK N   1       6.287  -3.648  -2.091  0.00  0.00    -0.775 OA
HETATM   76  H   UNK N   1       5.925  -2.972  -2.630  0.00  0.00     0.167 HD
ENDBRANCH  73  75
ENDBRANCH  65  73
ENDBRANCH  63  65
ENDBRANCH  57  61
ENDBRANCH  53  54
BRANCH  53  77
HETATM   77  C   UNK N   1       8.711  -7.635   1.012  0.00  0.00     0.093 C 
BRANCH  77  78
HETATM   78  C   UNK N   1       7.261  -7.669   0.643  0.00  0.00     0.028 A 
HETATM   79  N   UNK N   1       6.778  -8.156  -0.512  0.00  0.00    -0.354 N 
HETATM   80  C   UNK N   1       5.443  -7.975  -0.434  0.00  0.00     0.180 A 
HETATM   81  H   UNK N   1       7.287  -8.556  -1.254  0.00  0.00     0.166 HD
HETATM   82  N   UNK N   1       5.084  -7.392   0.730  0.00  0.00    -0.360 N 
HETATM   83  C   UNK N   1       6.227  -7.197   1.414  0.00  0.00     0.114 A 
ATOM     84  HN  UNK N   1       4.140  -7.149   1.029  1.00  0.00     0.166 HD
ENDBRANCH  77  78
ENDBRANCH  53  77
ENDBRANCH  51  53
ENDBRANCH  44  49
ENDBRANCH  42  44
ENDBRANCH   1  40
BRANCH   1  85
HETATM   85  C   UNK N   1      10.076 -12.199   0.944  0.00  0.00     0.073 C 
BRANCH  85  86
HETATM   86  C   UNK N   1      10.166 -13.475   0.171  0.00  0.00    -0.056 A 
HETATM   87  C   UNK N   1      11.140 -13.659  -0.825  0.00  0.00     0.010 A 
HETATM   88  C   UNK N   1      11.314 -14.912  -1.409  0.00  0.00     0.037 A 
HETATM   89  C   UNK N   1      10.496 -15.974  -1.021  0.00  0.00     0.065 A 
HETATM   90  C   UNK N   1       9.486 -15.776  -0.075  0.00  0.00     0.037 A 
HETATM   91  C   UNK N   1       9.330 -14.529   0.529  0.00  0.00     0.010 A 
BRANCH  89  92
HETATM   92  O   UNK N   1      10.685 -17.191  -1.551  0.00  0.00    -0.361 OA
HETATM   93  H   UNK N   1      10.014 -17.731  -1.921  0.00  0.00     0.217 HD
ENDBRANCH  89  92
ENDBRANCH  85  86
ENDBRANCH   1  85
TORSDOF 33
