REMARK  8 active torsions:
REMARK  status: ('A' for Active; 'I' for Inactive)
REMARK    1  A    between atoms: C_2  and  C_7 
REMARK    2  A    between atoms: C_7  and  C_8 
REMARK    3  A    between atoms: C_8  and  N_9 
REMARK       I    between atoms: N_9  and  C_10 
REMARK    4  A    between atoms: C_10  and  C_12 
REMARK    5  A    between atoms: C_12  and  C_13 
REMARK    6  A    between atoms: C_13  and  C_14 
REMARK    7  A    between atoms: C_14  and  C_15 
REMARK    8  A    between atoms: C_15  and  O_17 
ROOT
HETATM    1  N   UNK N   1      -0.873   0.786   0.000  0.00  0.00    -0.361 N 
HETATM    2  C   UNK N   1       0.326   0.157   0.000  0.00  0.00     0.217 C 
HETATM    3  O   UNK N   1       0.369  -1.069   0.000  0.00  0.00    -0.274 OA
HETATM    4  H   UNK N   1      -0.920   1.769  -0.000  0.00  0.00     0.162 HD
ENDROOT
BRANCH   1   5
HETATM    5  C   UNK N   1      -2.081  -0.001   0.000  0.00  0.00     0.128 C 
BRANCH   5   6
HETATM    6  C   UNK N   1      -3.335   0.849   0.000  0.00  0.00     0.078 C 
BRANCH   6   7
HETATM    7  C   UNK N   1      -4.537  -0.049  -0.000  0.00  0.00     0.027 A 
HETATM    8  C   UNK N   1      -5.846   0.363  -0.000  0.00  0.00     0.114 A 
HETATM    9  N   UNK N   1      -6.623  -0.738  -0.000  0.00  0.00    -0.360 N 
HETATM   10  C   UNK N   1      -5.777  -1.790  -0.000  0.00  0.00     0.180 A 
HETATM   11  H   UNK N   1      -7.607  -0.768  -0.000  0.00  0.00     0.166 HD
HETATM   12  N   UNK N   1      -4.491  -1.394   0.000  0.00  0.00    -0.355 N 
ATOM     13  HN  UNK N   1      -3.660  -1.986   0.000  1.00  0.00     0.166 HD
ENDBRANCH   6   7
ENDBRANCH   5   6
ENDBRANCH   1   5
BRANCH   2  14
HETATM   14  C   UNK N   1       1.602   0.952  -0.000  0.00  0.00     0.103 C 
BRANCH  14  15
HETATM   15  C   UNK N   1       2.797   0.008  -0.000  0.00  0.00     0.019 C 
BRANCH  15  16
HETATM   16  C   UNK N   1       4.128   0.730  -0.000  0.00  0.00     0.110 C 
BRANCH  16  17
HETATM   17  C   UNK N   1       5.260  -0.258  -0.000  0.00  0.00     0.139 C 
HETATM   18  O   UNK N   1       6.410   0.145   0.000  0.00  0.00    -0.650 OA
BRANCH  17  19
HETATM   19  O   UNK N   1       5.021  -1.587  -0.000  0.00  0.00    -0.776 OA
HETATM   20  H   UNK N   1       4.140  -1.905  -0.000  0.00  0.00     0.167 HD
ENDBRANCH  17  19
ENDBRANCH  16  17
ENDBRANCH  15  16
ENDBRANCH  14  15
ENDBRANCH   2  14
TORSDOF 8
