REMARK  4 active torsions:
REMARK  status: ('A' for Active; 'I' for Inactive)
REMARK    1  A    between atoms: S_2  and  C_5 
REMARK    2  A    between atoms: C_8  and  N_12 
REMARK    3  A    between atoms: C_15  and  O_19 
REMARK    4  A    between atoms: O_19  and  C_20 
REMARK       I    between atoms: N_23  and  C_26 
ROOT
HETATM    1  N   UNK N   1       5.079  -6.991  -0.563  0.00  0.00    -0.285 N 
HETATM    2  C   UNK N   1       6.282  -7.569  -0.262  0.00  0.00     0.127 A 
HETATM    3  C   UNK N   1       6.458  -8.956  -0.350  0.00  0.00     0.083 A 
HETATM    4  C   UNK N   1       5.373  -9.750  -0.731  0.00  0.00     0.097 A 
HETATM    5  C   UNK N   1       4.195  -9.138  -1.159  0.00  0.00     0.113 A 
HETATM    6  C   UNK N   1       4.056  -7.768  -1.090  0.00  0.00     0.254 A 
HETATM    7  O   UNK N   1       3.024  -7.270  -1.499  0.00  0.00    -0.268 OA
HETATM    8 Cl   UNK N   1       7.961  -9.679   0.193  0.00  0.00    -0.080 Cl
ENDROOT
BRANCH   4   9
HETATM    9  O   UNK N   1       5.399 -11.094  -0.557  0.00  0.00    -0.344 OA
BRANCH   9  10
HETATM   10  C   UNK N   1       4.239 -11.705  -0.104  0.00  0.00     0.132 C 
HETATM   11  C   UNK N   1       4.362 -13.218   0.068  0.00  0.00     0.053 C 
HETATM   12  C   UNK N   1       3.144 -13.797   0.831  0.00  0.00     0.143 C 
HETATM   13  N   UNK N   1       2.104 -12.796   1.013  0.00  0.00    -0.217 N 
HETATM   14  C   UNK N   1       2.436 -11.540   1.652  0.00  0.00     0.143 C 
HETATM   15  C   UNK N   1       0.799 -13.003   0.491  0.00  0.00     0.679 A 
HETATM   16  C   UNK N   1       3.825 -11.078   1.238  0.00  0.00     0.053 C 
HETATM   17  N   UNK N   1       0.460 -14.210  -0.040  0.00  0.00    -0.200 N 
HETATM   18  N   UNK N   1      -0.125 -11.999   0.530  0.00  0.00    -0.200 N 
HETATM   19  C   UNK N   1      -0.787 -14.433  -0.529  0.00  0.00     0.131 A 
ATOM     20  HN  UNK N   1       1.154 -14.957  -0.072  1.00  0.00     0.183 HD
HETATM   21  C   UNK N   1      -1.736 -13.416  -0.498  0.00  0.00     0.065 A 
HETATM   22  C   UNK N   1      -1.379 -12.184   0.042  0.00  0.00     0.131 A 
HETATM   23 Cl   UNK N   1      -3.348 -13.687  -1.123  0.00  0.00    -0.081 Cl
ATOM     24  HN  UNK N   1       0.130 -11.096   0.931  1.00  0.00     0.183 HD
ENDBRANCH   9  10
ENDBRANCH   4   9
BRANCH   1  25
HETATM   25  C   UNK N   1       4.890  -5.581  -0.288  0.00  0.00     0.080 A 
HETATM   26  C   UNK N   1       5.967  -4.690  -0.425  0.00  0.00     0.035 A 
HETATM   27  C   UNK N   1       5.784  -3.322  -0.211  0.00  0.00     0.026 A 
HETATM   28  C   UNK N   1       4.535  -2.834   0.182  0.00  0.00     0.061 A 
HETATM   29  C   UNK N   1       3.478  -3.712   0.394  0.00  0.00     0.068 A 
HETATM   30  C   UNK N   1       3.645  -5.076   0.177  0.00  0.00     0.145 A 
HETATM   31  F   UNK N   1       2.601  -5.893   0.463  0.00  0.00    -0.204 F 
BRANCH  28  32
HETATM   32  S   UNK N   1       4.224  -1.077   0.184  0.00  0.00     0.172 S 
HETATM   33  C   UNK N   1       3.024   0.089   0.887  0.00  0.00     0.167 C 
HETATM   34  O   UNK N   1       3.466  -1.159  -1.146  0.00  0.00    -0.223 OA
HETATM   35  O   UNK N   1       5.406  -0.330  -0.452  0.00  0.00    -0.223 OA
ENDBRANCH  28  32
ENDBRANCH   1  25
TORSDOF 4
