REMARK  7 active torsions:
REMARK  status: ('A' for Active; 'I' for Inactive)
REMARK    1  A    between atoms: C_20  and  C_14 
REMARK    2  A    between atoms: S_33  and  C_14 
REMARK    3  A    between atoms: N_27  and  C_18 
REMARK    4  A    between atoms: S_33  and  C_19 
REMARK    5  A    between atoms: C_21  and  C_20 
REMARK    6  A    between atoms: C_20  and  O_28 
REMARK       I    between atoms: N_26  and  C_21 
REMARK    7  A    between atoms: O_30  and  C_22 
ROOT
HETATM    1  C   UNK N   1       4.579   3.295  -0.786  0.00  0.00     0.224 C 
ENDROOT
BRANCH   1   2
HETATM    2  C   UNK N   1       4.693   2.363   0.411  0.00  0.00     0.187 C 
BRANCH   2   3
HETATM    3  S   UNK N   1       3.112   2.090   1.222  0.00  0.00     0.178 S 
HETATM    4  O   UNK N   1       2.675   3.393   1.913  0.00  0.00    -0.223 OA
HETATM    5  O   UNK N   1       3.425   1.283   2.490  0.00  0.00    -0.223 OA
BRANCH   3   6
HETATM    6  C   UNK N   1       1.681   1.322   0.530  0.00  0.00     0.060 A 
HETATM    7  C   UNK N   1       1.691  -0.055   0.302  0.00  0.00     0.024 A 
HETATM    8  C   UNK N   1       0.502  -0.719   0.010  0.00  0.00     0.014 A 
HETATM    9  C   UNK N   1      -0.696  -0.005  -0.025  0.00  0.00    -0.024 A 
HETATM   10  C   UNK N   1      -1.907  -0.682  -0.148  0.00  0.00     0.036 A 
HETATM   11  C   UNK N   1      -0.692   1.399   0.147  0.00  0.00    -0.024 A 
HETATM   12  C   UNK N   1      -3.108   0.028  -0.098  0.00  0.00     0.034 A 
HETATM   13  C   UNK N   1      -3.102   1.422   0.025  0.00  0.00     0.024 A 
HETATM   14 Cl   UNK N   1      -4.624  -0.840  -0.089  0.00  0.00    -0.084 Cl
HETATM   15  C   UNK N   1      -1.892   2.110   0.140  0.00  0.00     0.014 A 
HETATM   16  C   UNK N   1       0.500   2.056   0.422  0.00  0.00     0.035 A 
ENDBRANCH   3   6
ENDBRANCH   2   3
ENDBRANCH   1   2
BRANCH   1  17
HETATM   17  C   UNK N   1       5.856   4.080  -0.849  0.00  0.00     0.249 C 
HETATM   18  N   UNK N   1       6.219   4.910   0.177  0.00  0.00    -0.350 N 
HETATM   19  C   UNK N   1       5.363   5.102   1.337  0.00  0.00     0.128 C 
HETATM   20  C   UNK N   1       7.349   5.802   0.035  0.00  0.00     0.128 C 
HETATM   21  C   UNK N   1       4.788   6.526   1.325  0.00  0.00     0.045 C 
HETATM   22  C   UNK N   1       5.305   7.295   0.101  0.00  0.00     0.090 C 
HETATM   23  C   UNK N   1       6.849   7.260   0.078  0.00  0.00     0.045 C 
HETATM   24  O   UNK N   1       6.554   3.996  -1.849  0.00  0.00    -0.270 OA
BRANCH  22  25
HETATM   25  N   UNK N   1       4.708   8.611  -0.017  0.00  0.00    -0.343 N 
HETATM   26  C   UNK N   1       5.536   9.799   0.035  0.00  0.00     0.128 C 
HETATM   27  C   UNK N   1       4.967  10.882  -0.866  0.00  0.00     0.039 C 
HETATM   28  C   UNK N   1       3.512  11.104  -0.477  0.00  0.00     0.125 C 
HETATM   29  N   UNK N   1       2.763   9.866  -0.524  0.00  0.00    -0.356 N 
HETATM   30  C   UNK N   1       3.305   8.711  -0.304  0.00  0.00     0.215 C 
ATOM     31  HN  UNK N   1       1.767   9.905  -0.739  1.00  0.00     0.163 HD
BRANCH  30  32
HETATM   32  O   UNK N   1       2.545   7.604  -0.385  0.00  0.00    -0.333 OA
HETATM   33  H   UNK N   1       1.613   7.676  -0.441  0.00  0.00     0.220 HD
ENDBRANCH  30  32
ENDBRANCH  22  25
ENDBRANCH   1  17
BRANCH   1  34
HETATM   34  O   UNK N   1       3.509   4.192  -0.668  0.00  0.00    -0.385 OA
HETATM   35  H   UNK N   1       3.677   5.144  -0.586  0.00  0.00     0.210 HD
ENDBRANCH   1  34
TORSDOF 7
