REMARK  8 active torsions:
REMARK  status: ('A' for Active; 'I' for Inactive)
REMARK    1  A    between atoms: C_2  and  S_4 
REMARK    2  A    between atoms: S_4  and  C_7 
REMARK    3  A    between atoms: C_10  and  C_13 
REMARK    4  A    between atoms: C_17  and  N_36 
REMARK    5  A    between atoms: C_18  and  C_21 
REMARK    6  A    between atoms: C_23  and  C_27 
REMARK    7  A    between atoms: C_30  and  C_33 
REMARK    8  A    between atoms: C_33  and  N_34 
ROOT
HETATM    1  C   UNK N   1       0.812   1.898  -0.524  0.00  0.00     0.058 A 
HETATM    2  C   UNK N   1       2.031   2.481  -0.157  0.00  0.00     0.120 A 
HETATM    3  N   UNK N   1       2.935   1.740   0.545  0.00  0.00    -0.349 N 
ATOM      4  HN  UNK N   1       3.847   2.141   0.764  1.00  0.00     0.167 HD
HETATM    5  C   UNK N   1       2.644   0.470   0.961  0.00  0.00     0.129 A 
HETATM    6  C   UNK N   1       1.384  -0.072   0.639  0.00  0.00     0.113 A 
HETATM    7  N   UNK N   1       0.545   0.648  -0.096  0.00  0.00    -0.349 N 
ATOM      8  HN  UNK N   1      -0.351   0.233  -0.351  1.00  0.00     0.166 HD
ENDROOT
BRANCH   6   9
HETATM    9  C   UNK N   1       0.951  -1.425   0.950  0.00  0.00     0.131 A 
HETATM   10  C   UNK N   1       1.811  -2.439   1.158  0.00  0.00     0.074 A 
HETATM   11  C   UNK N   1       1.053  -3.555   0.915  0.00  0.00     0.068 A 
HETATM   12  N   UNK N   1      -0.209  -3.204   0.621  0.00  0.00    -0.260 N 
HETATM   13  O   UNK N   1      -0.239  -1.904   0.645  0.00  0.00    -0.235 OA
ATOM     14  HN  UNK N   1      -0.988  -3.832   0.420  1.00  0.00     0.195 HD
BRANCH  11  15
HETATM   15  C   UNK N   1       1.692  -4.789   0.500  0.00  0.00    -0.007 A 
HETATM   16  C   UNK N   1       3.091  -4.782   0.453  0.00  0.00     0.014 A 
HETATM   17  C   UNK N   1       3.781  -5.780  -0.197  0.00  0.00     0.010 A 
HETATM   18  C   UNK N   1       3.082  -6.806  -0.815  0.00  0.00    -0.041 A 
HETATM   19  C   UNK N   1       1.679  -6.851  -0.757  0.00  0.00     0.010 A 
HETATM   20  C   UNK N   1       0.977  -5.821  -0.118  0.00  0.00     0.014 A 
BRANCH  18  21
HETATM   21  C   UNK N   1       3.865  -7.885  -1.465  0.00  0.00     0.152 C 
BRANCH  21  22
HETATM   22  N   UNK N   1       3.956  -9.030  -0.571  0.00  0.00    -0.422 N 
HETATM   23  C   UNK N   1       4.846  -8.683   0.531  0.00  0.00     0.140 C 
HETATM   24  H   UNK N   1       3.479  -9.923  -0.695  0.00  0.00     0.153 HD
ENDBRANCH  21  22
ENDBRANCH  18  21
ENDBRANCH  11  15
ENDBRANCH   6   9
BRANCH   5  25
HETATM   25  N   UNK N   1       3.592  -0.257   1.706  0.00  0.00    -0.384 N 
HETATM   26  H   UNK N   1       3.483  -1.085   2.228  0.00  0.00     0.157 HD
HETATM   27  H   UNK N   1       4.501   0.120   1.706  0.00  0.00     0.157 HD
ENDBRANCH   5  25
BRANCH   1  28
HETATM   28  C   UNK N   1      -0.347   2.619  -1.017  0.00  0.00    -0.008 A 
HETATM   29  C   UNK N   1      -0.611   3.868  -0.451  0.00  0.00     0.015 A 
HETATM   30  C   UNK N   1      -1.936   4.236  -0.207  0.00  0.00     0.024 A 
HETATM   31  C   UNK N   1      -2.977   3.363  -0.552  0.00  0.00     0.059 A 
HETATM   32  C   UNK N   1      -2.713   2.188  -1.242  0.00  0.00     0.024 A 
HETATM   33  C   UNK N   1      -1.407   1.816  -1.469  0.00  0.00     0.015 A 
BRANCH  31  34
HETATM   34  S   UNK N   1      -4.561   3.514   0.238  0.00  0.00     0.178 S 
HETATM   35  O   UNK N   1      -5.337   2.210  -0.021  0.00  0.00    -0.222 OA
HETATM   36  O   UNK N   1      -4.212   3.240   1.711  0.00  0.00    -0.222 OA
BRANCH  34  37
HETATM   37  C   UNK N   1      -5.720   4.895   0.299  0.00  0.00     0.105 C 
HETATM   38  C   UNK N   1      -6.950   4.479   1.082  0.00  0.00     0.026 C 
HETATM   39  C   UNK N   1      -6.120   5.260  -1.111  0.00  0.00     0.026 C 
ENDBRANCH  34  37
ENDBRANCH  31  34
ENDBRANCH   1  28
TORSDOF 8
