REMARK  5 active torsions:
REMARK  status: ('A' for Active; 'I' for Inactive)
REMARK    1  A    between atoms: C_4  and  C_8 
REMARK       I    between atoms: C_8  and  N_10 
REMARK    2  A    between atoms: N_10  and  C_11 
REMARK    3  A    between atoms: N_10  and  C_20 
REMARK    4  A    between atoms: C_11  and  C_12 
REMARK    5  A    between atoms: C_21  and  C_20 
ROOT
HETATM    1  C   UNK N   1      -2.898  -0.294  -0.098  0.00  0.00     0.272 C 
HETATM    2  O   UNK N   1      -3.693  -1.204  -0.210  0.00  0.00    -0.266 OA
HETATM    3  N   UNK N   1      -1.541  -0.549  -0.017  0.00  0.00    -0.342 N 
ENDROOT
BRANCH   3   4
HETATM    4  C   UNK N   1      -0.904  -1.881  -0.040  0.00  0.00     0.164 C 
BRANCH   4   5
HETATM    5  C   UNK N   1      -1.496  -3.274  -0.024  0.00  0.00    -0.038 A 
HETATM    6  C   UNK N   1      -0.564  -4.320  -0.061  0.00  0.00     0.012 A 
HETATM    7  C   UNK N   1      -0.977  -5.653  -0.049  0.00  0.00     0.044 A 
HETATM    8  C   UNK N   1      -2.336  -5.960   0.000  0.00  0.00     0.138 A 
HETATM    9  C   UNK N   1      -3.279  -4.927   0.042  0.00  0.00     0.073 A 
HETATM   10  F   UNK N   1      -2.731  -7.256   0.006  0.00  0.00    -0.204 F 
HETATM   11  C   UNK N   1      -2.855  -3.594   0.035  0.00  0.00     0.035 A 
HETATM   12 Cl   UNK N   1      -4.993  -5.287   0.097  0.00  0.00    -0.081 Cl
ENDBRANCH   4   5
ENDBRANCH   3   4
BRANCH   3  13
HETATM   13  C   UNK N   1      -0.624   0.579   0.115  0.00  0.00     0.132 C 
BRANCH  13  14
HETATM   14  C   UNK N   1       0.809   0.272  -0.317  0.00  0.00     0.016 A 
HETATM   15  C   UNK N   1       1.548  -0.272   0.886  0.00  0.00     0.026 A 
HETATM   16  C   UNK N   1       1.780   1.159   0.432  0.00  0.00     0.026 A 
HETATM   17  C   UNK N   1       2.763  -1.043   0.421  0.00  0.00     0.277 C 
HETATM   18  C   UNK N   1       3.141   1.126  -0.241  0.00  0.00     0.277 C 
HETATM   19  N   UNK N   1       3.822  -0.077   0.207  0.00  0.00     0.085 N 
HETATM   20  C   UNK N   1       4.651  -0.559  -0.882  0.00  0.00     0.309 C 
ENDBRANCH  13  14
ENDBRANCH   3  13
BRANCH   1  21
HETATM   21  C   UNK N   1      -3.471   1.090  -0.069  0.00  0.00     0.117 A 
HETATM   22  C   UNK N   1      -2.799   2.298  -0.030  0.00  0.00     0.126 A 
HETATM   23  N   UNK N   1      -3.724   3.266  -0.031  0.00  0.00    -0.355 N 
HETATM   24  C   UNK N   1      -3.468   4.694  -0.007  0.00  0.00     0.156 C 
HETATM   25  C   UNK N   1      -4.928   2.672  -0.069  0.00  0.00     0.183 A 
HETATM   26  N   UNK N   1      -4.801   1.329  -0.095  0.00  0.00    -0.347 N 
ATOM     27  HN  UNK N   1      -5.552   0.639  -0.127  1.00  0.00     0.167 HD
ENDBRANCH   1  21
TORSDOF 5
