REMARK  5 active torsions:
REMARK  status: ('A' for Active; 'I' for Inactive)
REMARK    1  A    between atoms: C_3  and  C_15 
REMARK    2  A    between atoms: C_4  and  C_8 
REMARK    3  A    between atoms: C_15  and  O_16 
REMARK    4  A    between atoms: O_16  and  C_17 
REMARK    5  A    between atoms: C_20  and  C_24 
REMARK       I    between atoms: C_24  and  N_26 
ROOT
HETATM    1  C   UNK N   1       7.516  -0.524   0.148  0.00  0.00     0.142 A 
HETATM    2  C   UNK N   1       7.964   0.781  -0.088  0.00  0.00     0.057 A 
HETATM    3  C   UNK N   1       9.340   1.044  -0.105  0.00  0.00     0.022 A 
HETATM    4  C   UNK N   1      10.257  -0.003   0.067  0.00  0.00     0.047 A 
HETATM    5  C   UNK N   1       9.755  -1.291   0.284  0.00  0.00     0.107 A 
HETATM    6  N   UNK N   1       8.421  -1.522   0.331  0.00  0.00    -0.346 N 
ATOM      7  HN  UNK N   1       8.087  -2.469   0.510  1.00  0.00     0.167 HD
ENDROOT
BRANCH   1   8
HETATM    8  O   UNK N   1       6.192  -0.779   0.249  0.00  0.00    -0.331 OA
BRANCH   8   9
HETATM    9  C   UNK N   1       5.748  -1.895   0.926  0.00  0.00     0.221 C 
BRANCH   9  10
HETATM   10  C   UNK N   1       4.668  -2.645   0.212  0.00  0.00     0.027 A 
HETATM   11  C   UNK N   1       3.446  -2.161  -0.197  0.00  0.00     0.083 A 
HETATM   12  C   UNK N   1       2.948  -0.765  -0.071  0.00  0.00     0.079 C 
HETATM   13  O   UNK N   1       2.753  -3.156  -0.702  0.00  0.00    -0.242 OA
HETATM   14  N   UNK N   1       3.430  -4.269  -0.655  0.00  0.00    -0.260 N 
HETATM   15  C   UNK N   1       4.629  -3.995  -0.097  0.00  0.00     0.076 A 
ATOM     16  HN  UNK N   1       3.112  -5.182  -0.979  1.00  0.00     0.195 HD
BRANCH  15  17
HETATM   17  C   UNK N   1       5.670  -5.019   0.142  0.00  0.00    -0.007 A 
HETATM   18  C   UNK N   1       6.957  -4.657   0.566  0.00  0.00     0.017 A 
HETATM   19  C   UNK N   1       7.934  -5.633   0.777  0.00  0.00     0.043 A 
HETATM   20  C   UNK N   1       7.629  -6.982   0.579  0.00  0.00     0.116 A 
HETATM   21  C   UNK N   1       6.348  -7.354   0.162  0.00  0.00     0.043 A 
HETATM   22  F   UNK N   1       8.574  -7.929   0.789  0.00  0.00    -0.206 F 
HETATM   23  C   UNK N   1       5.374  -6.375  -0.062  0.00  0.00     0.017 A 
ENDBRANCH  15  17
ENDBRANCH   9  10
ENDBRANCH   8   9
ENDBRANCH   1   8
BRANCH   4  24
HETATM   24  C   UNK N   1      11.731   0.262   0.082  0.00  0.00     0.255 C 
HETATM   25  O   UNK N   1      12.115   1.403   0.300  0.00  0.00    -0.267 OA
HETATM   26  N   UNK N   1      12.655  -0.729  -0.142  0.00  0.00    -0.346 N 
HETATM   27  C   UNK N   1      14.073  -0.477   0.015  0.00  0.00     0.141 C 
HETATM   28  C   UNK N   1      12.272  -2.071  -0.522  0.00  0.00     0.141 C 
HETATM   29  C   UNK N   1      14.667  -1.699   0.749  0.00  0.00     0.160 C 
HETATM   30  S   UNK N   1      14.794  -3.143  -0.405  0.00  0.00     0.147 S 
HETATM   31  O   UNK N   1      15.819  -3.400   0.710  0.00  0.00    -0.228 OA
HETATM   32  O   UNK N   1      14.264  -4.502   0.074  0.00  0.00    -0.228 OA
HETATM   33  C   UNK N   1      13.107  -3.033   0.315  0.00  0.00     0.160 C 
ENDBRANCH   4  24
TORSDOF 5
