REMARK  8 active torsions:
REMARK  status: ('A' for Active; 'I' for Inactive)
REMARK    1  A    between atoms: C_4  and  C_3 
REMARK    2  A    between atoms: N_16  and  C_4 
REMARK    3  A    between atoms: C_9  and  C_5 
REMARK    4  A    between atoms: O_24  and  C_5 
REMARK    5  A    between atoms: C_11  and  O_25 
REMARK    6  A    between atoms: C_12  and  O_26 
REMARK    7  A    between atoms: N_16  and  C_13 
REMARK    8  A    between atoms: C_15  and  N_23 
ROOT
HETATM    1  C   UNK N   1       4.351   1.573   0.621  0.00  0.00     0.183 A 
HETATM    2  C   UNK N   1       0.068   2.052  -0.361  0.00  0.00     0.188 A 
HETATM    3  C   UNK N   1       1.993   2.834   0.121  0.00  0.00     0.122 A 
HETATM    4  C   UNK N   1       3.058   3.578   0.576  0.00  0.00     0.133 A 
HETATM    5  C   UNK N   1       2.106   1.504  -0.010  0.00  0.00     0.142 A 
HETATM    6  N   UNK N   1       4.242   2.929   0.811  0.00  0.00    -0.337 N 
ATOM      7  HN  UNK N   1       5.052   3.460   1.131  1.00  0.00     0.168 HD
HETATM    8  N   UNK N   1       3.261   0.840   0.245  0.00  0.00    -0.336 N 
ATOM      9  HN  UNK N   1       3.315  -0.175   0.158  1.00  0.00     0.168 HD
HETATM   10  N   UNK N   1       0.727   3.218  -0.125  0.00  0.00    -0.346 N 
ATOM     11  HN  UNK N   1       0.348   4.165  -0.133  1.00  0.00     0.167 HD
HETATM   12  N   UNK N   1       0.908   0.986  -0.291  0.00  0.00    -0.297 N 
ENDROOT
BRANCH  12  13
HETATM   13  C   UNK N   1       0.498  -0.394  -0.079  0.00  0.00     0.262 C 
HETATM   14  C   UNK N   1       1.361  -1.481  -0.678  0.00  0.00     0.198 C 
HETATM   15  C   UNK N   1       0.433  -2.679  -0.475  0.00  0.00     0.182 C 
HETATM   16  C   UNK N   1      -0.939  -2.013  -0.221  0.00  0.00     0.179 C 
HETATM   17  O   UNK N   1      -0.797  -0.656  -0.566  0.00  0.00    -0.353 OA
BRANCH  14  18
HETATM   18  O   UNK N   1       1.516  -1.236  -2.046  0.00  0.00    -0.388 OA
HETATM   19  H   UNK N   1       1.717  -1.244  -2.995  0.00  0.00     0.210 HD
ENDBRANCH  14  18
BRANCH  15  20
HETATM   20  O   UNK N   1       0.800  -3.416   0.655  0.00  0.00    -0.390 OA
HETATM   21  H   UNK N   1       0.485  -3.893   1.439  0.00  0.00     0.210 HD
ENDBRANCH  15  20
BRANCH  16  22
HETATM   22  C   UNK N   1      -2.087  -2.688  -0.948  0.00  0.00     0.198 C 
BRANCH  22  23
HETATM   23  O   UNK N   1      -2.318  -3.946  -0.388  0.00  0.00    -0.398 OA
HETATM   24  H   UNK N   1      -3.155  -4.245   0.001  0.00  0.00     0.209 HD
ENDBRANCH  22  23
ENDBRANCH  16  22
ENDBRANCH  12  13
BRANCH   4  25
HETATM   25  N   UNK N   1       2.892   4.946   0.877  0.00  0.00    -0.371 N 
HETATM   26  H   UNK N   1       2.015   5.367   0.724  0.00  0.00     0.161 HD
BRANCH  25  27
HETATM   27  C   UNK N   1       3.965   5.741   1.400  0.00  0.00     0.148 C 
BRANCH  27  28
HETATM   28  C   UNK N   1       4.375   6.671   0.315  0.00  0.00    -0.005 C 
HETATM   29  C   UNK N   1       5.324   6.347  -0.567  0.00  0.00    -0.090 C 
HETATM   30  C   UNK N   1       5.620   7.284  -1.680  0.00  0.00     0.042 C 
HETATM   31  C   UNK N   1       6.069   5.051  -0.489  0.00  0.00     0.042 C 
ENDBRANCH  27  28
ENDBRANCH  25  27
ENDBRANCH   4  25
TORSDOF 8
