REMARK  5 active torsions:
REMARK  status: ('A' for Active; 'I' for Inactive)
REMARK    1  A    between atoms: C_16  and  C_9 
REMARK    2  A    between atoms: N_23  and  C_9 
REMARK    3  A    between atoms: N_24  and  C_15 
REMARK    4  A    between atoms: C_20  and  C_17 
REMARK    5  A    between atoms: O_28  and  C_20 
ROOT
HETATM    1  C   UNK N   1       0.684   1.987  -0.835  0.00  0.00     0.045 C 
HETATM    2  C   UNK N   1       4.659  -1.797  -0.201  0.00  0.00     0.062 A 
HETATM    3  C   UNK N   1       3.720   0.796   0.239  0.00  0.00     0.063 A 
HETATM    4  C   UNK N   1       0.616   1.094   0.396  0.00  0.00     0.155 A 
HETATM    5  C   UNK N   1       3.279  -1.569  -0.068  0.00  0.00     0.045 A 
HETATM    6  C   UNK N   1       5.571  -0.727  -0.125  0.00  0.00     0.143 A 
HETATM    7  C   UNK N   1       2.824  -0.252   0.133  0.00  0.00     0.053 A 
HETATM    8  C   UNK N   1       5.100   0.589   0.119  0.00  0.00     0.071 A 
HETATM    9  C   UNK N   1       0.929  -2.320  -0.007  0.00  0.00     0.122 A 
HETATM   10  C   UNK N   1       2.321  -2.621  -0.130  0.00  0.00     0.204 A 
HETATM   11  C   UNK N   1       0.590  -0.970   0.159  0.00  0.00     0.096 A 
HETATM   12  F   UNK N   1       6.896  -0.993  -0.238  0.00  0.00    -0.204 F 
HETATM   13  N   UNK N   1       1.495  -0.036   0.225  0.00  0.00    -0.325 N 
HETATM   14  O   UNK N   1       2.693  -3.773  -0.286  0.00  0.00    -0.286 OA
HETATM   15  S   UNK N   1      -0.921  -0.040   0.331  0.00  0.00    -0.085 SA
ENDROOT
BRANCH   8  16
HETATM   16  N   UNK N   1       5.969   1.718   0.269  0.00  0.00    -0.375 N 
HETATM   17  C   UNK N   1       5.405   2.912   0.891  0.00  0.00     0.153 C 
HETATM   18  C   UNK N   1       6.426   3.996   1.120  0.00  0.00     0.292 C 
HETATM   19  N   UNK N   1       7.168   4.163  -0.111  0.00  0.00     0.097 N 
HETATM   20  C   UNK N   1       8.093   3.036  -0.139  0.00  0.00     0.292 C 
HETATM   21  C   UNK N   1       7.338   1.691  -0.251  0.00  0.00     0.153 C 
BRANCH  19  22
HETATM   22  C   UNK N   1       7.927   5.402   0.002  0.00  0.00     0.340 C 
BRANCH  22  23
HETATM   23  C   UNK N   1       7.061   6.641  -0.089  0.00  0.00     0.116 A 
HETATM   24  C   UNK N   1       5.708   6.772  -0.399  0.00  0.00     0.086 A 
HETATM   25  C   UNK N   1       4.722   5.714  -0.757  0.00  0.00     0.079 C 
HETATM   26  O   UNK N   1       5.408   8.047  -0.334  0.00  0.00    -0.257 OA
HETATM   27  C   UNK N   1       6.510   8.677  -0.005  0.00  0.00     0.416 A 
HETATM   28  O   UNK N   1       6.588   9.883   0.142  0.00  0.00    -0.229 OA
HETATM   29  O   UNK N   1       7.519   7.850   0.146  0.00  0.00    -0.255 OA
ENDBRANCH  22  23
ENDBRANCH  19  22
ENDBRANCH   8  16
BRANCH   9  30
HETATM   30  C   UNK N   1      -0.129  -3.367  -0.053  0.00  0.00     0.183 C 
HETATM   31  O   UNK N   1      -1.306  -3.057   0.045  0.00  0.00    -0.646 OA
BRANCH  30  32
HETATM   32  O   UNK N   1       0.197  -4.666  -0.190  0.00  0.00    -0.772 OA
HETATM   33  H   UNK N   1      -0.473  -5.314  -0.285  0.00  0.00     0.167 HD
ENDBRANCH  30  32
ENDBRANCH   9  30
TORSDOF 5
