REMARK WARNING: 32 MAX_TORS EXCEEDED!!!
REMARK  48 active torsions:
REMARK  status: ('A' for Active; 'I' for Inactive)
REMARK    1  A    between atoms: C_2  and  C_3 
REMARK    2  A    between atoms: C_3  and  C_4 
REMARK    3  A    between atoms: C_4  and  C_5 
REMARK    4  A    between atoms: C_5  and  C_6 
REMARK    5  A    between atoms: C_6  and  C_7 
REMARK    6  A    between atoms: C_7  and  C_8 
REMARK    7  A    between atoms: C_8  and  C_9 
REMARK    8  A    between atoms: C_9  and  C_10 
REMARK    9  A    between atoms: C_10  and  C_11 
REMARK   10  A    between atoms: C_11  and  C_12 
REMARK   11  A    between atoms: C_12  and  C_13 
REMARK   12  A    between atoms: C_13  and  C_14 
REMARK   13  A    between atoms: C_14  and  C_15 
REMARK   14  A    between atoms: C_15  and  C_16 
REMARK       I    between atoms: C_16  and  N_18 
REMARK   15  A    between atoms: C_19  and  N_18 
REMARK   16  A    between atoms: C_19  and  C_20 
REMARK   17  A    between atoms: C_19  and  C_25 
REMARK   18  A    between atoms: C_20  and  C_21 
REMARK   19  A    between atoms: C_21  and  C_22 
REMARK   20  A    between atoms: C_22  and  C_23 
REMARK   21  A    between atoms: C_23  and  N_24 
REMARK       I    between atoms: C_25  and  N_27 
REMARK   22  A    between atoms: C_28  and  N_27 
REMARK   23  A    between atoms: C_28  and  C_29 
REMARK   24  A    between atoms: C_28  and  C_34 
REMARK   25  A    between atoms: C_29  and  C_30 
REMARK   26  A    between atoms: C_30  and  C_31 
REMARK   27  A    between atoms: C_31  and  C_32 
REMARK   28  A    between atoms: C_32  and  N_33 
REMARK       I    between atoms: C_34  and  N_36 
REMARK   29  A    between atoms: C_37  and  N_36 
REMARK   30  A    between atoms: C_37  and  C_38 
REMARK   31  A    between atoms: C_37  and  C_40 
REMARK   32  A    between atoms: C_38  and  O_39 
REMARK       I    between atoms: C_40  and  N_42 
REMARK   33  A    between atoms: C_43  and  N_42 
REMARK   34  A    between atoms: C_43  and  C_44 
REMARK   35  A    between atoms: C_43  and  C_52 
REMARK   36  A    between atoms: C_44  and  C_45 
REMARK   37  A    between atoms: C_45  and  C_46 
REMARK   38  A    between atoms: C_46  and  N_47 
REMARK       I    between atoms: N_47  and  C_48 
REMARK       I    between atoms: C_48  and  N_51 
REMARK       I    between atoms: C_52  and  N_54 
REMARK   39  A    between atoms: N_54  and  C_55 
REMARK   40  A    between atoms: C_55  and  C_57 
REMARK       I    between atoms: C_57  and  N_59 
REMARK   41  A    between atoms: C_60  and  N_59 
REMARK   42  A    between atoms: C_60  and  C_61 
REMARK   43  A    between atoms: C_60  and  C_65 
REMARK   44  A    between atoms: C_61  and  C_62 
REMARK       I    between atoms: C_65  and  N_67 
REMARK   45  A    between atoms: C_68  and  N_67 
REMARK   46  A    between atoms: C_68  and  C_69 
REMARK   47  A    between atoms: C_68  and  C_76 
REMARK   48  A    between atoms: C_69  and  C_70 
REMARK       I    between atoms: C_76  and  N_78 
ROOT
HETATM    1  C   UNK N   1      27.807 -22.523   1.044  0.00  0.00     0.243 C 
HETATM    2  O   UNK N   1      26.793 -22.785   1.667  0.00  0.00    -0.271 OA
HETATM    3  N   UNK N   1      28.894 -22.081   1.735  0.00  0.00    -0.346 N 
HETATM    4  H   UNK N   1      28.800 -22.004   2.712  0.00  0.00     0.163 HD
ENDROOT
BRANCH   1   5
HETATM    5  C   UNK N   1      27.808 -22.647  -0.471  0.00  0.00     0.200 C 
BRANCH   5   6
HETATM    6  N   UNK N   1      26.502 -22.865  -1.059  0.00  0.00    -0.344 N 
HETATM    7  C   UNK N   1      25.457 -22.005  -0.985  0.00  0.00     0.241 C 
HETATM    8  O   UNK N   1      24.458 -22.243  -1.642  0.00  0.00    -0.271 OA
HETATM    9  H   UNK N   1      26.362 -23.705  -1.553  0.00  0.00     0.163 HD
BRANCH   7  10
HETATM   10  C   UNK N   1      25.523 -20.742  -0.158  0.00  0.00     0.176 C 
BRANCH  10  11
HETATM   11  N   UNK N   1      24.550 -20.618   0.934  0.00  0.00    -0.346 N 
HETATM   12  C   UNK N   1      23.672 -21.526   1.455  0.00  0.00     0.241 C 
HETATM   13  O   UNK N   1      22.967 -21.188   2.393  0.00  0.00    -0.271 OA
HETATM   14  H   UNK N   1      24.526 -19.732   1.363  0.00  0.00     0.163 HD
BRANCH  12  15
HETATM   15  C   UNK N   1      23.577 -22.940   0.952  0.00  0.00     0.176 C 
BRANCH  15  16
HETATM   16  N   UNK N   1      22.233 -23.325   0.559  0.00  0.00    -0.348 N 
HETATM   17  C   UNK N   1      21.451 -22.704  -0.362  0.00  0.00     0.218 C 
HETATM   18  O   UNK N   1      20.389 -23.217  -0.674  0.00  0.00    -0.274 OA
HETATM   19  H   UNK N   1      21.850 -24.115   1.005  0.00  0.00     0.163 HD
BRANCH  17  20
HETATM   20  C   UNK N   1      21.859 -21.418  -1.023  0.00  0.00     0.103 C 
BRANCH  20  21
HETATM   21  C   UNK N   1      20.782 -20.339  -0.915  0.00  0.00     0.009 C 
BRANCH  21  22
HETATM   22  C   UNK N   1      20.692 -19.729   0.478  0.00  0.00     0.000 C 
BRANCH  22  23
HETATM   23  C   UNK N   1      19.921 -20.614   1.451  0.00  0.00     0.000 C 
BRANCH  23  24
HETATM   24  C   UNK N   1      18.419 -20.569   1.207  0.00  0.00     0.000 C 
BRANCH  24  25
HETATM   25  C   UNK N   1      18.025 -21.529   0.097  0.00  0.00     0.000 C 
BRANCH  25  26
HETATM   26  C   UNK N   1      16.528 -21.759   0.106  0.00  0.00     0.000 C 
BRANCH  26  27
HETATM   27  C   UNK N   1      16.166 -22.766   1.186  0.00  0.00     0.000 C 
BRANCH  27  28
HETATM   28  C   UNK N   1      14.659 -22.946   1.284  0.00  0.00     0.000 C 
BRANCH  28  29
HETATM   29  C   UNK N   1      14.120 -23.698   0.078  0.00  0.00     0.000 C 
BRANCH  29  30
HETATM   30  C   UNK N   1      13.550 -22.719  -0.936  0.00  0.00     0.000 C 
BRANCH  30  31
HETATM   31  C   UNK N   1      12.042 -22.871  -1.022  0.00  0.00     0.000 C 
BRANCH  31  32
HETATM   32  C   UNK N   1      11.372 -22.288   0.212  0.00  0.00    -0.000 C 
BRANCH  32  33
HETATM   33  C   UNK N   1       9.919 -22.723   0.283  0.00  0.00    -0.005 C 
HETATM   34  C   UNK N   1       9.082 -21.963  -0.726  0.00  0.00     0.005 C 
ENDBRANCH  32  33
ENDBRANCH  31  32
ENDBRANCH  30  31
ENDBRANCH  29  30
ENDBRANCH  28  29
ENDBRANCH  27  28
ENDBRANCH  26  27
ENDBRANCH  25  26
ENDBRANCH  24  25
ENDBRANCH  23  24
ENDBRANCH  22  23
ENDBRANCH  21  22
ENDBRANCH  20  21
ENDBRANCH  17  20
ENDBRANCH  15  16
BRANCH  15  35
HETATM   35  C   UNK N   1      24.060 -23.911   2.023  0.00  0.00     0.035 C 
BRANCH  35  36
HETATM   36  C   UNK N   1      24.887 -25.046   1.428  0.00  0.00     0.004 C 
BRANCH  36  37
HETATM   37  C   UNK N   1      24.098 -25.857   0.416  0.00  0.00     0.019 C 
BRANCH  37  38
HETATM   38  C   UNK N   1      24.772 -25.784  -0.941  0.00  0.00     0.111 C 
BRANCH  38  39
HETATM   39  N   UNK N   1      25.804 -26.800  -1.036  0.00  0.00    -0.430 N 
HETATM   40  H   UNK N   1      25.548 -27.786  -1.103  0.00  0.00     0.149 HD
HETATM   41  H   UNK N   1      26.787 -26.529  -1.036  0.00  0.00     0.149 HD
ENDBRANCH  38  39
ENDBRANCH  37  38
ENDBRANCH  36  37
ENDBRANCH  35  36
ENDBRANCH  15  35
ENDBRANCH  12  15
ENDBRANCH  10  11
BRANCH  10  42
HETATM   42  C   UNK N   1      25.421 -19.529  -1.068  0.00  0.00     0.035 C 
BRANCH  42  43
HETATM   43  C   UNK N   1      25.753 -18.264  -0.291  0.00  0.00     0.004 C 
BRANCH  43  44
HETATM   44  C   UNK N   1      24.983 -17.076  -0.848  0.00  0.00     0.019 C 
BRANCH  44  45
HETATM   45  C   UNK N   1      23.482 -17.235  -0.634  0.00  0.00     0.111 C 
BRANCH  45  46
HETATM   46  N   UNK N   1      23.171 -17.251   0.785  0.00  0.00    -0.430 N 
HETATM   47  H   UNK N   1      23.053 -17.067   1.781  0.00  0.00     0.149 HD
HETATM   48  H   UNK N   1      22.705 -18.158   0.785  0.00  0.00     0.149 HD
ENDBRANCH  45  46
ENDBRANCH  44  45
ENDBRANCH  43  44
ENDBRANCH  42  43
ENDBRANCH  10  42
ENDBRANCH   7  10
ENDBRANCH   5   6
BRANCH   5  49
HETATM   49  C   UNK N   1      28.723 -23.769  -0.939  0.00  0.00     0.199 C 
BRANCH  49  50
HETATM   50  O   UNK N   1      28.276 -25.006  -0.473  0.00  0.00    -0.398 OA
HETATM   51  H   UNK N   1      27.376 -25.167  -0.149  0.00  0.00     0.209 HD
ENDBRANCH  49  50
ENDBRANCH   5  49
ENDBRANCH   1   5
BRANCH   3  52
HETATM   52  C   UNK N   1      30.180 -21.711   1.166  0.00  0.00     0.176 C 
BRANCH  52  53
HETATM   53  C   UNK N   1      30.037 -20.664   0.070  0.00  0.00     0.036 C 
BRANCH  53  54
HETATM   54  C   UNK N   1      29.657 -19.306   0.610  0.00  0.00     0.023 C 
BRANCH  54  55
HETATM   55  C   UNK N   1      29.915 -18.294  -0.486  0.00  0.00     0.138 C 
BRANCH  55  56
HETATM   56  N   UNK N   1      31.127 -17.566  -0.205  0.00  0.00    -0.227 N 
HETATM   57  C   UNK N   1      31.202 -16.162  -0.388  0.00  0.00     0.665 C 
HETATM   58  N   UNK N   1      30.220 -15.517  -0.901  0.00  0.00    -0.235 N 
HETATM   59  N   UNK N   1      32.376 -15.469  -0.024  0.00  0.00    -0.235 N 
HETATM   60  H   UNK N   1      30.271 -14.616  -1.295  0.00  0.00     0.174 HD
ATOM     61  HN  UNK N   1      29.309 -15.976  -0.901  1.00  0.00     0.174 HD
HETATM   62  H   UNK N   1      33.204 -15.936   0.230  0.00  0.00     0.174 HD
HETATM   63  H   UNK N   1      32.366 -14.484  -0.024  0.00  0.00     0.174 HD
HETATM   64  H   UNK N   1      31.918 -18.054   0.119  0.00  0.00     0.177 HD
ENDBRANCH  55  56
ENDBRANCH  54  55
ENDBRANCH  53  54
ENDBRANCH  52  53
BRANCH  52  65
HETATM   65  C   UNK N   1      31.037 -22.938   0.883  0.00  0.00     0.241 C 
HETATM   66  O   UNK N   1      31.212 -23.725   1.797  0.00  0.00    -0.271 OA
HETATM   67  N   UNK N   1      31.621 -23.212  -0.319  0.00  0.00    -0.346 N 
HETATM   68  H   UNK N   1      32.141 -24.046  -0.375  0.00  0.00     0.163 HD
BRANCH  67  69
HETATM   69  C   UNK N   1      31.558 -22.410  -1.522  0.00  0.00     0.172 C 
HETATM   70  C   UNK N   1      31.934 -23.295  -2.697  0.00  0.00     0.042 C 
BRANCH  69  71
HETATM   71  C   UNK N   1      32.513 -21.244  -1.475  0.00  0.00     0.240 C 
HETATM   72  O   UNK N   1      32.637 -20.532  -2.460  0.00  0.00    -0.271 OA
HETATM   73  N   UNK N   1      33.270 -21.022  -0.372  0.00  0.00    -0.346 N 
HETATM   74  H   UNK N   1      33.074 -21.506   0.463  0.00  0.00     0.163 HD
BRANCH  73  75
HETATM   75  C   UNK N   1      34.358 -20.082  -0.416  0.00  0.00     0.177 C 
BRANCH  75  76
HETATM   76  C   UNK N   1      34.273 -19.030   0.690  0.00  0.00     0.038 C 
BRANCH  76  77
HETATM   77  C   UNK N   1      34.767 -17.661   0.206  0.00  0.00    -0.020 C 
HETATM   78  C   UNK N   1      34.894 -16.722   1.387  0.00  0.00     0.009 C 
HETATM   79  C   UNK N   1      36.106 -17.718  -0.512  0.00  0.00     0.009 C 
ENDBRANCH  76  77
ENDBRANCH  75  76
BRANCH  75  80
HETATM   80  C   UNK N   1      35.615 -20.892  -0.383  0.00  0.00     0.241 C 
HETATM   81  O   UNK N   1      35.776 -21.746  -1.244  0.00  0.00    -0.271 OA
HETATM   82  N   UNK N   1      36.549 -20.709   0.589  0.00  0.00    -0.346 N 
HETATM   83  H   UNK N   1      36.398 -20.007   1.262  0.00  0.00     0.163 HD
BRANCH  82  84
HETATM   84  C   UNK N   1      37.760 -21.505   0.675  0.00  0.00     0.180 C 
BRANCH  84  85
HETATM   85  C   UNK N   1      38.478 -21.486  -0.676  0.00  0.00     0.073 C 
BRANCH  85  86
HETATM   86  C   UNK N   1      39.946 -21.652  -0.558  0.00  0.00    -0.056 A 
HETATM   87  C   UNK N   1      40.722 -20.637   0.011  0.00  0.00     0.007 A 
HETATM   88  C   UNK N   1      42.110 -20.776   0.076  0.00  0.00     0.001 A 
HETATM   89  C   UNK N   1      42.721 -21.928  -0.429  0.00  0.00     0.000 A 
HETATM   90  C   UNK N   1      41.944 -22.940  -1.001  0.00  0.00     0.001 A 
HETATM   91  C   UNK N   1      40.557 -22.799  -1.071  0.00  0.00     0.007 A 
ENDBRANCH  85  86
ENDBRANCH  84  85
BRANCH  84  92
HETATM   92  C   UNK N   1      37.475 -22.920   1.136  0.00  0.00     0.238 C 
HETATM   93  O   UNK N   1      38.396 -23.709   1.278  0.00  0.00    -0.271 OA
HETATM   94  N   UNK N   1      36.216 -23.317   1.418  0.00  0.00    -0.368 N 
HETATM   95  H   UNK N   1      35.506 -22.666   1.623  0.00  0.00     0.159 HD
HETATM   96  H   UNK N   1      36.002 -24.278   1.418  0.00  0.00     0.159 HD
ENDBRANCH  84  92
ENDBRANCH  82  84
ENDBRANCH  75  80
ENDBRANCH  73  75
ENDBRANCH  69  71
ENDBRANCH  67  69
ENDBRANCH  52  65
ENDBRANCH   3  52
TORSDOF 48
