REMARK  6 active torsions:
REMARK  status: ('A' for Active; 'I' for Inactive)
REMARK    1  A    between atoms: C_3  and  O_11 
REMARK    2  A    between atoms: O_11  and  C_12 
REMARK    3  A    between atoms: C_13  and  C_12 
REMARK    4  A    between atoms: C_13  and  C_27 
REMARK    5  A    between atoms: C_15  and  C_16 
REMARK       I    between atoms: C_16  and  N_18 
REMARK    6  A    between atoms: N_18  and  C_19 
ROOT
HETATM    1  C   UNK N   1       1.877  -0.887   0.214  0.00  0.00     0.022 A 
HETATM    2  C   UNK N   1       1.838  -1.314   1.657  0.00  0.00     0.032 A 
HETATM    3  C   UNK N   1       1.768  -2.387   0.565  0.00  0.00     0.094 A 
ENDROOT
BRANCH   1   4
HETATM    4  C   UNK N   1       0.612  -0.279  -0.397  0.00  0.00     0.191 C 
BRANCH   4   5
HETATM    5  O   UNK N   1       0.500   1.044  -0.044  0.00  0.00    -0.347 OA
BRANCH   5   6
HETATM    6  C   UNK N   1      -0.658   1.737  -0.083  0.00  0.00     0.106 A 
HETATM    7  C   UNK N   1      -0.661   3.105   0.209  0.00  0.00     0.041 A 
HETATM    8  C   UNK N   1       0.608   3.809   0.551  0.00  0.00     0.071 C 
HETATM    9  N   UNK N   1      -1.825   3.799   0.181  0.00  0.00    -0.348 N 
HETATM   10  C   UNK N   1      -3.000   3.187  -0.128  0.00  0.00     0.077 A 
ATOM     11  HN  UNK N   1      -1.820   4.797   0.394  1.00  0.00     0.167 HD
HETATM   12  N   UNK N   1      -3.020   1.858  -0.418  0.00  0.00    -0.353 N 
HETATM   13  C   UNK N   1      -4.260   3.970  -0.146  0.00  0.00     0.089 C 
HETATM   14  C   UNK N   1      -1.878   1.126  -0.402  0.00  0.00     0.128 A 
ATOM     15  HN  UNK N   1      -3.904   1.407  -0.650  1.00  0.00     0.166 HD
ENDBRANCH   5   6
ENDBRANCH   4   5
ENDBRANCH   1   4
BRANCH   1  16
HETATM   16  C   UNK N   1       3.210  -0.227  -0.042  0.00  0.00    -0.044 A 
HETATM   17  C   UNK N   1       3.307   1.170   0.066  0.00  0.00     0.008 A 
HETATM   18  C   UNK N   1       4.535   1.814  -0.079  0.00  0.00     0.004 A 
HETATM   19  C   UNK N   1       5.686   1.065  -0.320  0.00  0.00     0.042 A 
HETATM   20  C   UNK N   1       5.607  -0.327  -0.419  0.00  0.00     0.117 A 
HETATM   21  C   UNK N   1       4.373  -0.976  -0.274  0.00  0.00     0.050 A 
HETATM   22  F   UNK N   1       6.731  -1.048  -0.643  0.00  0.00    -0.206 F 
ENDBRANCH   1  16
BRANCH   3  23
HETATM   23  C   UNK N   1       0.349  -2.949   0.592  0.00  0.00     0.228 C 
HETATM   24  O   UNK N   1      -0.486  -2.460   1.346  0.00  0.00    -0.273 OA
HETATM   25  N   UNK N   1       0.022  -4.036  -0.158  0.00  0.00    -0.313 N 
HETATM   26  H   UNK N   1       0.714  -4.466  -0.711  0.00  0.00     0.170 HD
BRANCH  25  27
HETATM   27  C   UNK N   1      -1.301  -4.567  -0.159  0.00  0.00     0.107 A 
HETATM   28  C   UNK N   1      -1.497  -5.948  -0.261  0.00  0.00     0.051 A 
HETATM   29  C   UNK N   1      -2.789  -6.466  -0.130  0.00  0.00     0.047 A 
HETATM   30  C   UNK N   1      -3.865  -5.603   0.088  0.00  0.00     0.131 A 
HETATM   31  C   UNK N   1      -3.639  -4.231   0.152  0.00  0.00     0.132 A 
HETATM   32  F   UNK N   1      -5.118  -6.093   0.250  0.00  0.00    -0.205 F 
HETATM   33  N   UNK N   1      -2.375  -3.746   0.036  0.00  0.00    -0.349 N 
ATOM     34  HN  UNK N   1      -2.223  -2.740   0.097  1.00  0.00     0.167 HD
ENDBRANCH  25  27
ENDBRANCH   3  23
TORSDOF 6
