REMARK  9 active torsions:
REMARK  status: ('A' for Active; 'I' for Inactive)
REMARK    1  A    between atoms: C_2  and  O_4 
REMARK    2  A    between atoms: O_4  and  C_5 
REMARK    3  A    between atoms: C_8  and  C_12 
REMARK    4  A    between atoms: C_15  and  C_19 
REMARK    5  A    between atoms: N_27  and  C_28 
REMARK    6  A    between atoms: C_28  and  C_29 
REMARK    7  A    between atoms: C_29  and  C_30 
REMARK    8  A    between atoms: C_30  and  C_31 
REMARK    9  A    between atoms: C_31  and  O_33 
ROOT
HETATM    1  C   UNK N   1       3.841   3.867   0.162  0.00  0.00     0.183 A 
HETATM    2  N   UNK N   1       4.393   2.650   0.021  0.00  0.00    -0.318 N 
ATOM      3  HN  UNK N   1       5.378   2.409  -0.087  1.00  0.00     0.169 HD
HETATM    4  C   UNK N   1       3.331   1.830   0.059  0.00  0.00     0.139 A 
HETATM    5  N   UNK N   1       2.184   2.523   0.218  0.00  0.00    -0.242 N 
ATOM      6  HN  UNK N   1       1.239   2.145   0.283  1.00  0.00     0.196 HD
HETATM    7  O   UNK N   1       2.536   3.775   0.271  0.00  0.00    -0.217 OA
ENDROOT
BRANCH   4   8
HETATM    8  C   UNK N   1       3.442   0.367  -0.063  0.00  0.00     0.022 A 
HETATM    9  C   UNK N   1       4.701  -0.220  -0.313  0.00  0.00     0.016 A 
HETATM   10  C   UNK N   1       4.835  -1.620  -0.416  0.00  0.00     0.003 A 
HETATM   11  C   UNK N   1       3.715  -2.453  -0.258  0.00  0.00     0.030 A 
HETATM   12  C   UNK N   1       2.485  -1.847  -0.008  0.00  0.00     0.045 A 
HETATM   13  C   UNK N   1       2.347  -0.489   0.083  0.00  0.00     0.006 A 
HETATM   14  N   UNK N   1       1.306  -2.444   0.206  0.00  0.00    -0.356 N 
HETATM   15  C   UNK N   1       1.019  -0.220   0.357  0.00  0.00     0.032 A 
HETATM   16  C   UNK N   1       0.399  -1.466   0.437  0.00  0.00     0.092 A 
BRANCH  14  17
HETATM   17  C   UNK N   1       1.053  -3.879   0.239  0.00  0.00     0.129 C 
BRANCH  17  18
HETATM   18  C   UNK N   1      -0.140  -4.242  -0.627  0.00  0.00     0.031 C 
BRANCH  18  19
HETATM   19  C   UNK N   1      -1.333  -4.512   0.275  0.00  0.00     0.111 C 
BRANCH  19  20
HETATM   20  C   UNK N   1      -2.478  -3.612  -0.055  0.00  0.00     0.139 C 
HETATM   21  O   UNK N   1      -3.529  -4.089  -0.447  0.00  0.00    -0.650 OA
BRANCH  20  22
HETATM   22  O   UNK N   1      -2.370  -2.280   0.108  0.00  0.00    -0.776 OA
HETATM   23  H   UNK N   1      -1.529  -1.882   0.222  0.00  0.00     0.167 HD
ENDBRANCH  20  22
ENDBRANCH  19  20
ENDBRANCH  18  19
ENDBRANCH  17  18
ENDBRANCH  14  17
ENDBRANCH   4   8
BRANCH   1  24
HETATM   24  C   UNK N   1       4.620   5.106   0.144  0.00  0.00     0.034 A 
HETATM   25  C   UNK N   1       6.010   5.032   0.061  0.00  0.00     0.045 A 
HETATM   26  C   UNK N   1       6.770   6.192  -0.019  0.00  0.00     0.086 A 
HETATM   27  C   UNK N   1       6.125   7.434  -0.032  0.00  0.00     0.164 A 
HETATM   28 Cl   UNK N   1       8.515   6.070  -0.139  0.00  0.00    -0.080 Cl
HETATM   29  N   UNK N   1       4.762   7.489   0.069  0.00  0.00    -0.345 N 
HETATM   30  C   UNK N   1       4.005   6.360   0.161  0.00  0.00     0.106 A 
ATOM     31  HN  UNK N   1       4.301   8.399   0.076  1.00  0.00     0.167 HD
BRANCH  27  32
HETATM   32  O   UNK N   1       6.865   8.566  -0.165  0.00  0.00    -0.330 OA
BRANCH  32  33
HETATM   33  C   UNK N   1       6.356   9.846  -0.304  0.00  0.00     0.122 C 
HETATM   34  C   UNK N   1       5.610  10.295   0.939  0.00  0.00     0.040 C 
HETATM   35  C   UNK N   1       5.485   9.971  -1.544  0.00  0.00     0.040 C 
ENDBRANCH  32  33
ENDBRANCH  27  32
ENDBRANCH   1  24
TORSDOF 9
