REMARK  3 active torsions:
REMARK  status: ('A' for Active; 'I' for Inactive)
REMARK    1  A    between atoms: C_3  and  C_9 
REMARK       I    between atoms: C_9  and  N_11 
REMARK    2  A    between atoms: N_11  and  S_12 
REMARK    3  A    between atoms: S_12  and  C_15 
ROOT
HETATM    1  C   UNK N   1      -1.138   6.238   1.037  0.00  0.00     0.266 C 
HETATM    2  O   UNK N   1      -0.112   6.196   1.701  0.00  0.00    -0.267 OA
HETATM    3  N   UNK N   1      -1.837   5.081   0.887  0.00  0.00    -0.245 N 
HETATM    4  H   UNK N   1      -1.656   4.393   1.567  0.00  0.00     0.182 HD
ENDROOT
BRANCH   3   5
HETATM    5  S   UNK N   1      -3.020   4.628  -0.344  0.00  0.00     0.272 S 
HETATM    6  O   UNK N   1      -4.358   5.284   0.008  0.00  0.00    -0.200 OA
HETATM    7  O   UNK N   1      -2.586   5.311  -1.650  0.00  0.00    -0.200 OA
BRANCH   5   8
HETATM    8  C   UNK N   1      -3.145   2.849  -0.450  0.00  0.00     0.121 A 
HETATM    9  C   UNK N   1      -2.068   1.968  -0.578  0.00  0.00     0.035 A 
HETATM   10  C   UNK N   1      -2.452   0.600  -0.451  0.00  0.00     0.028 A 
HETATM   11  C   UNK N   1      -3.819   0.439  -0.204  0.00  0.00     0.052 A 
HETATM   12  S   UNK N   1      -4.499   1.947  -0.152  0.00  0.00    -0.069 SA
HETATM   13 Br   UNK N   1      -4.727  -1.211   0.089  0.00  0.00    -0.043 Br
ENDBRANCH   5   8
ENDBRANCH   3   5
BRANCH   1  14
HETATM   14  C   UNK N   1      -1.489   7.537   0.410  0.00  0.00     0.054 A 
HETATM   15  C   UNK N   1      -0.468   8.249  -0.239  0.00  0.00     0.020 A 
HETATM   16  C   UNK N   1      -0.693   9.531  -0.743  0.00  0.00     0.025 A 
HETATM   17  C   UNK N   1      -1.939  10.133  -0.580  0.00  0.00     0.035 A 
HETATM   18  C   UNK N   1      -2.954   9.459   0.099  0.00  0.00     0.048 A 
HETATM   19 Cl   UNK N   1      -2.207  11.762  -1.161  0.00  0.00    -0.084 Cl
HETATM   20  C   UNK N   1      -2.744   8.168   0.598  0.00  0.00     0.051 A 
HETATM   21 Cl   UNK N   1      -3.996   7.492   1.624  0.00  0.00    -0.083 Cl
ENDBRANCH   1  14
TORSDOF 3
