REMARK  10 active torsions:
REMARK  status: ('A' for Active; 'I' for Inactive)
REMARK    1  A    between atoms: C_25  and  C_7 
REMARK    2  A    between atoms: S_56  and  C_27 
REMARK    3  A    between atoms: C_29  and  C_31 
REMARK    4  A    between atoms: C_30  and  C_36 
REMARK    5  A    between atoms: C_31  and  O_47 
REMARK    6  A    between atoms: C_38  and  C_33 
REMARK    7  A    between atoms: O_49  and  C_33 
REMARK    8  A    between atoms: C_34  and  O_50 
REMARK    9  A    between atoms: C_38  and  N_41 
REMARK   10  A    between atoms: N_43  and  S_56 
ROOT
HETATM    1  C   UNK N   1       5.548  -7.120   2.748  0.00  0.00     0.017 C 
HETATM    2  C   UNK N   1       5.479  -7.482   0.334  0.00  0.00     0.017 C 
HETATM    3  C   UNK N   1       3.140  -5.013  -0.489  0.00  0.00     0.005 C 
HETATM    4  C   UNK N   1       2.784  -5.286   0.957  0.00  0.00     0.001 C 
HETATM    5  C   UNK N   1       1.522  -0.418   0.210  0.00  0.00     0.001 A 
HETATM    6  C   UNK N   1       2.246  -3.935  -1.080  0.00  0.00     0.039 C 
HETATM    7  C   UNK N   1       1.368  -1.777  -0.133  0.00  0.00     0.007 A 
HETATM    8  C   UNK N   1       2.756   0.230   0.024  0.00  0.00     0.009 A 
HETATM    9  C   UNK N   1       3.502  -6.517   1.522  0.00  0.00     0.011 C 
HETATM   10  C   UNK N   1      10.034   0.032  -0.333  0.00  0.00     0.068 C 
HETATM   11  C   UNK N   1       5.220  -0.062  -0.706  0.00  0.00     0.167 C 
HETATM   12  C   UNK N   1       9.206  -2.081  -1.074  0.00  0.00     0.159 C 
HETATM   13  C   UNK N   1       4.981  -2.441  -1.043  0.00  0.00     0.168 C 
HETATM   14  C   UNK N   1       5.661  -5.151   1.305  0.00  0.00     0.188 C 
HETATM   15  C   UNK N   1       2.461  -2.517  -0.607  0.00  0.00    -0.050 A 
HETATM   16  C   UNK N   1       3.829  -0.520  -0.444  0.00  0.00    -0.032 A 
HETATM   17  C   UNK N   1       8.747  -0.638  -0.767  0.00  0.00     0.154 C 
HETATM   18  C   UNK N   1       3.691  -1.861  -0.705  0.00  0.00    -0.026 A 
HETATM   19  C   UNK N   1      10.767  -1.067   0.430  0.00  0.00     0.164 C 
HETATM   20  C   UNK N   1       9.615  -4.855   0.256  0.00  0.00     0.185 C 
HETATM   21  C   UNK N   1      10.359  -3.525   0.598  0.00  0.00     0.244 C 
HETATM   22  C   UNK N   1       7.230  -4.756  -0.433  0.00  0.00     0.258 C 
HETATM   23  C   UNK N   1       6.831  -1.506   0.242  0.00  0.00     0.363 C 
HETATM   24  C   UNK N   1       5.036  -6.541   1.447  0.00  0.00    -0.026 C 
HETATM   25  N   UNK N   1       8.181  -4.775   0.448  0.00  0.00    -0.337 N 
ATOM     26  HN  UNK N   1       7.874  -4.727   1.419  1.00  0.00     0.164 HD
HETATM   27  N   UNK N   1       5.870  -1.352  -0.700  0.00  0.00    -0.320 N 
HETATM   28  N   UNK N   1      10.162  -2.312  -0.038  0.00  0.00    -0.336 N 
HETATM   29  O   UNK N   1      11.111  -3.551   1.563  0.00  0.00    -0.271 OA
HETATM   30  O   UNK N   1       6.838  -2.488   0.964  0.00  0.00    -0.238 OA
HETATM   31  O   UNK N   1       5.948  -4.859  -0.015  0.00  0.00    -0.316 OA
HETATM   32  O   UNK N   1       7.867  -0.659   0.305  0.00  0.00    -0.297 OA
ENDROOT
BRANCH  19  33
HETATM   33  C   UNK N   1      12.218  -1.001   0.075  0.00  0.00     0.136 C 
HETATM   34  N   UNK N   1      13.111  -0.829   0.991  0.00  0.00    -0.355 N 
ATOM     35  HN  UNK N   1      12.811  -0.618   1.943  1.00  0.00     0.162 HD
BRANCH  34  36
HETATM   36  C   UNK N   1      14.529  -0.929   0.703  0.00  0.00     0.101 A 
HETATM   37  C   UNK N   1      15.274  -0.397   1.931  0.00  0.00     0.047 A 
HETATM   38  C   UNK N   1      15.410   0.317   0.612  0.00  0.00     0.024 A 
BRANCH  38  39
HETATM   39  C   UNK N   1      14.647   1.640   0.417  0.00  0.00     0.003 C 
HETATM   40  C   UNK N   1      13.634   1.989   1.502  0.00  0.00     0.005 C 
ENDBRANCH  38  39
BRANCH  36  41
HETATM   41  C   UNK N   1      14.963  -2.348   0.452  0.00  0.00     0.154 C 
HETATM   42  N   UNK N   1      14.380  -2.970  -0.503  0.00  0.00    -0.266 N 
ATOM     43  HN  UNK N   1      13.899  -2.417  -1.212  1.00  0.00     0.180 HD
BRANCH  42  44
HETATM   44  S   UNK N   1      14.360  -4.700  -0.662  0.00  0.00     0.236 S 
HETATM   45  O   UNK N   1      13.670  -5.071  -1.985  0.00  0.00    -0.205 OA
HETATM   46  O   UNK N   1      13.039  -4.663   0.101  0.00  0.00    -0.205 OA
BRANCH  44  47
HETATM   47  C   UNK N   1      15.082  -6.010   0.416  0.00  0.00     0.130 A 
HETATM   48  C   UNK N   1      14.067  -6.743   1.298  0.00  0.00     0.023 A 
HETATM   49  C   UNK N   1      14.517  -7.357  -0.005  0.00  0.00     0.023 A 
ENDBRANCH  44  47
ENDBRANCH  42  44
BRANCH  41  50
HETATM   50  O   UNK N   1      15.786  -3.002   1.301  0.00  0.00    -0.347 OA
HETATM   51  H   UNK N   1      15.678  -3.722   1.890  0.00  0.00     0.219 HD
ENDBRANCH  41  50
ENDBRANCH  36  41
ENDBRANCH  34  36
BRANCH  33  52
HETATM   52  O   UNK N   1      12.576  -1.130  -1.222  0.00  0.00    -0.348 OA
HETATM   53  H   UNK N   1      12.623  -1.390  -2.121  0.00  0.00     0.219 HD
ENDBRANCH  33  52
ENDBRANCH  19  33
BRANCH  20  54
HETATM   54  C   UNK N   1      10.044  -5.797  -0.931  0.00  0.00    -0.022 C 
HETATM   55  C   UNK N   1       9.091  -6.982  -1.069  0.00  0.00     0.017 C 
HETATM   56  C   UNK N   1      10.148  -5.070  -2.256  0.00  0.00     0.017 C 
HETATM   57  C   UNK N   1      11.362  -6.481  -0.670  0.00  0.00     0.017 C 
ENDBRANCH  20  54
BRANCH  22  58
HETATM   58  O   UNK N   1       7.483  -4.672  -1.752  0.00  0.00    -0.327 OA
HETATM   59  H   UNK N   1       7.622  -4.795  -2.671  0.00  0.00     0.221 HD
ENDBRANCH  22  58
TORSDOF 10
