REMARK  11 active torsions:
REMARK  status: ('A' for Active; 'I' for Inactive)
REMARK    1  A    between atoms: C_7  and  N_6 
REMARK    2  A    between atoms: C_9  and  O_35 
REMARK    3  A    between atoms: C_10  and  C_12 
REMARK    4  A    between atoms: C_12  and  O_13 
REMARK    5  A    between atoms: O_13  and  P_14 
REMARK    6  A    between atoms: P_14  and  O_16 
REMARK    7  A    between atoms: P_14  and  O_17 
REMARK    8  A    between atoms: C_18  and  O_17 
REMARK    9  A    between atoms: C_20  and  N_25 
REMARK   10  A    between atoms: C_22  and  C_23 
REMARK   11  A    between atoms: C_23  and  O_24 
REMARK       I    between atoms: C_29  and  N_34 
REMARK       I    between atoms: C_37  and  N_42 
ROOT
HETATM    1  O   UNK N   1      -0.621   3.844  -0.739  0.00  0.00    -0.294 OA
ENDROOT
BRANCH   1   2
HETATM    2  C   UNK N   1      -0.381   2.734  -1.533  0.00  0.00     0.215 C 
BRANCH   2   3
HETATM    3  C   UNK N   1      -1.116   1.546  -0.956  0.00  0.00     0.177 C 
HETATM    4  C   UNK N   1      -2.618   1.550  -1.055  0.00  0.00     0.153 C 
HETATM    5  C   UNK N   1      -2.879   0.336  -0.199  0.00  0.00     0.088 C 
HETATM    6  C   UNK N   1      -1.637   0.248   0.700  0.00  0.00     0.233 C 
HETATM    7  O   UNK N   1      -0.837   1.359   0.399  0.00  0.00    -0.356 OA
BRANCH   4   8
HETATM    8  O   UNK N   1      -3.142   2.675  -0.406  0.00  0.00    -0.393 OA
HETATM    9  H   UNK N   1      -2.648   3.379   0.044  0.00  0.00     0.210 HD
ENDBRANCH   4   8
BRANCH   6  10
HETATM   10  N   UNK N   1      -0.872  -0.980   0.454  0.00  0.00    -0.299 N 
HETATM   11  C   UNK N   1       0.436  -1.101   0.172  0.00  0.00     0.159 A 
HETATM   12  C   UNK N   1       0.747  -2.401   0.038  0.00  0.00     0.147 A 
HETATM   13  N   UNK N   1       1.362  -0.114   0.050  0.00  0.00    -0.174 N 
HETATM   14  N   UNK N   1      -0.354  -3.155   0.228  0.00  0.00    -0.345 N 
HETATM   15  C   UNK N   1       2.050  -2.780  -0.241  0.00  0.00     0.290 A 
HETATM   16  C   UNK N   1      -1.342  -2.253   0.491  0.00  0.00     0.188 A 
ATOM     17  HN  UNK N   1      -0.431  -4.171   0.185  1.00  0.00     0.167 HD
HETATM   18  N   UNK N   1       2.998  -1.786  -0.369  0.00  0.00    -0.154 N 
HETATM   19  O   UNK N   1       2.358  -3.950  -0.362  0.00  0.00    -0.265 OA
HETATM   20  C   UNK N   1       2.655  -0.465  -0.224  0.00  0.00     0.680 A 
ATOM     21  HN  UNK N   1       3.966  -2.036  -0.574  1.00  0.00     0.187 HD
HETATM   22  N   UNK N   1       3.641   0.534  -0.349  0.00  0.00    -0.234 N 
HETATM   23  H   UNK N   1       4.590   0.286  -0.436  0.00  0.00     0.174 HD
HETATM   24  H   UNK N   1       3.381   1.483  -0.349  0.00  0.00     0.174 HD
HETATM   25  H   UNK N   1       1.108   0.832   0.156  0.00  0.00     0.186 HD
ENDBRANCH   6  10
ENDBRANCH   2   3
ENDBRANCH   1   2
BRANCH   1  26
HETATM   26  P   UNK N   1       0.856   4.191   0.118  0.00  0.00     0.393 P 
HETATM   27  O   UNK N   1       0.619   4.000   1.641  0.00  0.00    -0.631 OA
BRANCH  26  28
HETATM   28  O   UNK N   1       2.235   3.240  -0.342  0.00  0.00    -0.307 OA
HETATM   29  H   UNK N   1       2.160   2.307  -0.599  0.00  0.00     0.222 HD
ENDBRANCH  26  28
BRANCH  26  30
HETATM   30  O   UNK N   1       1.207   5.866  -0.154  0.00  0.00    -0.289 OA
BRANCH  30  31
HETATM   31  C   UNK N   1       0.328   6.704   0.566  0.00  0.00     0.169 C 
HETATM   32  C   UNK N   1      -1.130   6.270   0.661  0.00  0.00     0.089 C 
HETATM   33  C   UNK N   1      -1.779   7.096  -0.409  0.00  0.00     0.236 C 
HETATM   34  O   UNK N   1      -1.117   8.332  -0.374  0.00  0.00    -0.356 OA
HETATM   35  C   UNK N   1       0.228   7.956  -0.272  0.00  0.00     0.177 C 
BRANCH  33  36
HETATM   36  N   UNK N   1      -3.239   7.190  -0.216  0.00  0.00    -0.267 N 
HETATM   37  C   UNK N   1      -3.959   6.032  -0.243  0.00  0.00     0.207 A 
HETATM   38  N   UNK N   1      -5.308   6.048  -0.099  0.00  0.00    -0.188 N 
HETATM   39  C   UNK N   1      -5.965   7.221   0.067  0.00  0.00     0.680 A 
ATOM     40  HN  UNK N   1      -5.831   5.172  -0.116  1.00  0.00     0.185 HD
HETATM   41  N   UNK N   1      -5.275   8.384   0.096  0.00  0.00    -0.141 N 
HETATM   42  N   UNK N   1      -7.366   7.232   0.202  0.00  0.00    -0.234 N 
HETATM   43  C   UNK N   1      -3.915   8.386  -0.043  0.00  0.00     0.343 A 
ATOM     44  HN  UNK N   1      -5.772   9.266   0.222  1.00  0.00     0.189 HD
HETATM   45  O   UNK N   1      -3.321   9.448  -0.021  0.00  0.00    -0.246 OA
HETATM   46  H   UNK N   1      -7.849   8.085   0.296  0.00  0.00     0.174 HD
HETATM   47  H   UNK N   1      -7.865   6.384   0.202  0.00  0.00     0.174 HD
ENDBRANCH  33  36
BRANCH  35  48
HETATM   48  C   UNK N   1       1.102   9.047   0.310  0.00  0.00     0.198 C 
BRANCH  48  49
HETATM   49  O   UNK N   1       2.439   8.641   0.269  0.00  0.00    -0.398 OA
HETATM   50  H   UNK N   1       2.659   7.697   0.241  0.00  0.00     0.209 HD
ENDBRANCH  48  49
ENDBRANCH  35  48
ENDBRANCH  30  31
ENDBRANCH  26  30
ENDBRANCH   1  26
TORSDOF 11
