REMARK  4 active torsions:
REMARK  status: ('A' for Active; 'I' for Inactive)
REMARK    1  A    between atoms: N_2  and  C_4 
REMARK    2  A    between atoms: C_4  and  C_5 
REMARK    3  A    between atoms: C_5  and  N_6 
REMARK       I    between atoms: N_6  and  C_7 
REMARK    4  A    between atoms: C_7  and  C_9 
ROOT
HETATM    1  C   UNK N   1       2.509  -5.909  -0.020  0.00  0.00     0.059 A 
HETATM    2  C   UNK N   1       2.374  -7.307  -0.021  0.00  0.00     0.019 A 
HETATM    3  C   UNK N   1       3.495  -8.143  -0.018  0.00  0.00     0.002 A 
HETATM    4  C   UNK N   1       4.780  -7.599  -0.013  0.00  0.00     0.014 A 
HETATM    5  C   UNK N   1       4.949  -6.215  -0.012  0.00  0.00    -0.007 A 
HETATM    6  C   UNK N   1       3.820  -5.360  -0.016  0.00  0.00     0.059 A 
HETATM    7  N   UNK N   1       4.008  -4.012  -0.013  0.00  0.00    -0.354 N 
ATOM      8  HN  UNK N   1       3.191  -3.402  -0.016  1.00  0.00     0.166 HD
HETATM    9  C   UNK N   1       5.242  -3.452  -0.007  0.00  0.00     0.043 A 
HETATM   10  C   UNK N   1       5.375  -2.062  -0.004  0.00  0.00     0.030 A 
HETATM   11  C   UNK N   1       6.647  -1.484   0.003  0.00  0.00     0.002 A 
HETATM   12  C   UNK N   1       7.787  -2.296   0.008  0.00  0.00     0.001 A 
HETATM   13  C   UNK N   1       7.658  -3.691   0.005  0.00  0.00     0.014 A 
HETATM   14  C   UNK N   1       6.387  -4.273  -0.002  0.00  0.00    -0.009 A 
HETATM   15  C   UNK N   1       6.234  -5.661  -0.005  0.00  0.00     0.027 A 
ENDROOT
BRANCH   1  16
HETATM   16  C   UNK N   1       1.299  -5.004  -0.016  0.00  0.00     0.253 C 
HETATM   17  N   UNK N   1       0.017  -5.448   0.005  0.00  0.00    -0.355 N 
HETATM   18  H   UNK N   1      -0.680  -4.752   0.032  0.00  0.00     0.162 HD
HETATM   19  O   UNK N   1       1.466  -3.797  -0.017  0.00  0.00    -0.268 OA
BRANCH  17  20
HETATM   20  C   UNK N   1      -0.451  -6.807  -0.007  0.00  0.00     0.153 C 
BRANCH  20  21
HETATM   21  C   UNK N   1      -1.918  -6.832   0.431  0.00  0.00     0.291 C 
BRANCH  21  22
HETATM   22  N   UNK N   1      -2.738  -5.903  -0.345  0.00  0.00     0.081 N 
HETATM   23  C   UNK N   1      -4.111  -6.358  -0.243  0.00  0.00     0.309 C 
HETATM   24  C   UNK N   1      -2.701  -4.601   0.306  0.00  0.00     0.309 C 
ENDBRANCH  21  22
ENDBRANCH  20  21
ENDBRANCH  17  20
ENDBRANCH   1  16
TORSDOF 4
