REMARK  6 active torsions:
REMARK  status: ('A' for Active; 'I' for Inactive)
REMARK    1  A    between atoms: C_6  and  C_10 
REMARK    2  A    between atoms: C_10  and  O_11 
REMARK    3  A    between atoms: O_11  and  C_12 
REMARK    4  A    between atoms: C_17  and  O_18 
REMARK    5  A    between atoms: C_20  and  N_26 
REMARK    6  A    between atoms: N_26  and  C_27 
ROOT
HETATM    1  C   UNK N   1      -1.101  -1.928   0.225  0.00  0.00     0.104 A 
HETATM    2  C   UNK N   1       0.078  -2.685   0.122  0.00  0.00     0.070 A 
HETATM    3  C   UNK N   1       1.326  -2.065   0.027  0.00  0.00     0.050 A 
HETATM    4  C   UNK N   1       1.410  -0.669   0.037  0.00  0.00     0.038 A 
HETATM    5  C   UNK N   1       0.247   0.099   0.124  0.00  0.00     0.057 A 
HETATM    6  C   UNK N   1      -1.010  -0.500   0.205  0.00  0.00     0.102 A 
HETATM    7  C   UNK N   1       2.665  -0.061  -0.038  0.00  0.00     0.119 A 
HETATM    8  N   UNK N   1       3.775  -0.843  -0.122  0.00  0.00    -0.338 N 
ATOM      9  HN  UNK N   1       4.694  -0.405  -0.179  1.00  0.00     0.168 HD
HETATM   10  C   UNK N   1       3.679  -2.202  -0.133  0.00  0.00     0.182 A 
HETATM   11  N   UNK N   1       2.461  -2.807  -0.058  0.00  0.00    -0.351 N 
ATOM     12  HN  UNK N   1       2.401  -3.825  -0.065  1.00  0.00     0.166 HD
ENDROOT
BRANCH   1  13
HETATM   13  O   UNK N   1      -2.260  -2.622   0.379  0.00  0.00    -0.348 OA
BRANCH  13  14
HETATM   14  C   UNK N   1      -3.483  -2.100   0.726  0.00  0.00     0.180 C 
BRANCH  14  15
HETATM   15  C   UNK N   1      -4.513  -2.509  -0.310  0.00  0.00     0.011 C 
HETATM   16  C   UNK N   1      -5.849  -1.765  -0.118  0.00  0.00     0.013 C 
HETATM   17  C   UNK N   1      -6.782  -2.893   0.229  0.00  0.00     0.020 C 
HETATM   18  C   UNK N   1      -8.233  -2.911  -0.167  0.00  0.00     0.277 C 
HETATM   19  C   UNK N   1      -6.273  -3.983  -0.596  0.00  0.00     0.020 C 
HETATM   20  N   UNK N   1      -8.553  -4.342  -0.332  0.00  0.00     0.085 N 
HETATM   21  C   UNK N   1      -9.352  -4.763   0.806  0.00  0.00     0.309 C 
HETATM   22  C   UNK N   1      -7.266  -5.052  -0.267  0.00  0.00     0.277 C 
HETATM   23  C   UNK N   1      -4.830  -4.010  -0.208  0.00  0.00     0.013 C 
ENDBRANCH  14  15
ENDBRANCH  13  14
ENDBRANCH   1  13
BRANCH   6  24
HETATM   24  O   UNK N   1      -2.079   0.325   0.269  0.00  0.00    -0.353 OA
HETATM   25  C   UNK N   1      -3.052   0.344  -0.703  0.00  0.00     0.210 C 
ENDBRANCH   6  24
BRANCH   7  26
HETATM   26  N   UNK N   1       2.724   1.362  -0.023  0.00  0.00    -0.339 N 
HETATM   27  H   UNK N   1       1.830   1.773  -0.009  0.00  0.00     0.167 HD
BRANCH  26  28
HETATM   28  C   UNK N   1       3.766   2.333  -0.025  0.00  0.00     0.074 A 
HETATM   29  C   UNK N   1       3.350   3.667  -0.025  0.00  0.00     0.034 A 
HETATM   30  C   UNK N   1       4.267   4.712  -0.016  0.00  0.00     0.028 A 
HETATM   31  C   UNK N   1       5.630   4.443  -0.006  0.00  0.00     0.059 A 
HETATM   32  C   UNK N   1       6.081   3.111  -0.005  0.00  0.00     0.096 A 
HETATM   33 Cl   UNK N   1       6.750   5.795   0.009  0.00  0.00    -0.082 Cl
HETATM   34  C   UNK N   1       5.155   2.051  -0.013  0.00  0.00     0.166 A 
HETATM   35 Cl   UNK N   1       7.805   2.757   0.011  0.00  0.00    -0.079 Cl
HETATM   36  F   UNK N   1       5.632   0.787  -0.005  0.00  0.00    -0.202 F 
ENDBRANCH  26  28
ENDBRANCH   7  26
TORSDOF 6
