REMARK  3 active torsions:
REMARK  status: ('A' for Active; 'I' for Inactive)
REMARK    1  A    between atoms: C_2  and  C_3 
REMARK       I    between atoms: C_2  and  N_16 
REMARK    2  A    between atoms: C_4  and  O_5 
REMARK    3  A    between atoms: N_16  and  C_17 
ROOT
HETATM    1  C   UNK N   1       0.019   0.990   0.078  0.00  0.00     0.134 A 
HETATM    2  C   UNK N   1       1.286   0.392   0.306  0.00  0.00     0.099 A 
HETATM    3  C   UNK N   1       2.450   1.165   0.254  0.00  0.00     0.025 A 
HETATM    4  C   UNK N   1       2.365   2.551   0.012  0.00  0.00     0.050 A 
HETATM    5  N   UNK N   1       1.143   3.141  -0.161  0.00  0.00    -0.317 N 
HETATM    6  C   UNK N   1       1.055   4.585  -0.385  0.00  0.00     0.159 C 
HETATM    7  C   UNK N   1      -0.020   2.395  -0.131  0.00  0.00     0.266 A 
HETATM    8  O   UNK N   1      -1.094   2.954  -0.301  0.00  0.00    -0.267 OA
HETATM    9  C   UNK N   1       3.549   3.311  -0.029  0.00  0.00     0.031 A 
HETATM   10  C   UNK N   1       4.793   2.704   0.162  0.00  0.00     0.002 A 
HETATM   11  C   UNK N   1       4.870   1.333   0.405  0.00  0.00     0.001 A 
HETATM   12  C   UNK N   1       3.704   0.568   0.456  0.00  0.00     0.016 A 
ENDROOT
BRANCH   1  13
HETATM   13  C   UNK N   1      -1.286   0.208   0.120  0.00  0.00     0.266 C 
HETATM   14  O   UNK N   1      -2.264   0.795   0.560  0.00  0.00    -0.267 OA
HETATM   15  N   UNK N   1      -1.420  -1.100  -0.325  0.00  0.00    -0.318 N 
HETATM   16  C   UNK N   1      -0.346  -1.733  -1.060  0.00  0.00     0.159 C 
BRANCH  15  17
HETATM   17  C   UNK N   1      -2.641  -1.861  -0.173  0.00  0.00     0.037 A 
HETATM   18  C   UNK N   1      -3.826  -1.294   0.335  0.00  0.00     0.029 A 
HETATM   19  C   UNK N   1      -4.984  -2.061   0.488  0.00  0.00     0.002 A 
HETATM   20  C   UNK N   1      -4.975  -3.415   0.151  0.00  0.00     0.000 A 
HETATM   21  C   UNK N   1      -3.812  -4.000  -0.348  0.00  0.00     0.002 A 
HETATM   22  C   UNK N   1      -2.658  -3.230  -0.513  0.00  0.00     0.029 A 
ENDBRANCH  15  17
ENDBRANCH   1  13
BRANCH   2  23
HETATM   23  O   UNK N   1       1.397  -0.909   0.632  0.00  0.00    -0.359 OA
HETATM   24  H   UNK N   1       0.651  -1.428   0.860  0.00  0.00     0.217 HD
ENDBRANCH   2  23
TORSDOF 3
