REMARK  2 active torsions:
REMARK  status: ('A' for Active; 'I' for Inactive)
REMARK    1  A    between atoms: C_1  and  C_2 
REMARK    2  A    between atoms: C_1  and  C_11 
ROOT
HETATM    1  C   UNK N   1       1.289  -2.733   0.004  0.00  0.00     0.082 C 
ENDROOT
BRANCH   1   2
HETATM    2  C   UNK N   1      -0.194  -3.040   0.018  0.00  0.00    -0.026 A 
HETATM    3  C   UNK N   1      -0.668  -4.347   0.100  0.00  0.00     0.096 A 
HETATM    4  N   UNK N   1      -2.023  -4.354   0.100  0.00  0.00    -0.365 N 
HETATM    5  C   UNK N   1      -2.404  -3.069   0.014  0.00  0.00     0.042 A 
HETATM    6  H   UNK N   1      -2.611  -5.142   0.153  0.00  0.00     0.165 HD
HETATM    7  C   UNK N   1      -3.713  -2.593  -0.014  0.00  0.00     0.030 A 
HETATM    8  C   UNK N   1      -1.322  -2.234  -0.044  0.00  0.00    -0.002 A 
HETATM    9  C   UNK N   1      -3.906  -1.204  -0.109  0.00  0.00     0.002 A 
HETATM   10  C   UNK N   1      -2.798  -0.337  -0.179  0.00  0.00     0.001 A 
HETATM   11  C   UNK N   1      -1.494  -0.855  -0.149  0.00  0.00     0.014 A 
ENDBRANCH   1   2
BRANCH   1  12
HETATM   12  C   UNK N   1       1.821  -1.324   0.074  0.00  0.00    -0.026 A 
HETATM   13  C   UNK N   1       1.136  -0.125   0.231  0.00  0.00     0.096 A 
HETATM   14  N   UNK N   1       2.006   0.914   0.240  0.00  0.00    -0.365 N 
HETATM   15  C   UNK N   1       3.224   0.373   0.099  0.00  0.00     0.042 A 
HETATM   16  H   UNK N   1       1.789   1.870   0.331  0.00  0.00     0.165 HD
HETATM   17  C   UNK N   1       4.437   1.052   0.054  0.00  0.00     0.030 A 
HETATM   18  C   UNK N   1       3.151  -0.988  -0.000  0.00  0.00    -0.002 A 
HETATM   19  C   UNK N   1       5.608   0.287  -0.095  0.00  0.00     0.002 A 
HETATM   20  C   UNK N   1       5.535  -1.122  -0.194  0.00  0.00     0.001 A 
HETATM   21  C   UNK N   1       4.289  -1.776  -0.148  0.00  0.00     0.014 A 
ENDBRANCH   1  12
TORSDOF 2
