REMARK  7 active torsions:
REMARK  status: ('A' for Active; 'I' for Inactive)
REMARK    1  A    between atoms: C_3  and  N_9 
REMARK    2  A    between atoms: N_9  and  C_10 
REMARK    3  A    between atoms: C_11  and  C_20 
REMARK       I    between atoms: C_20  and  N_22 
REMARK    4  A    between atoms: N_22  and  O_23 
REMARK    5  A    between atoms: O_23  and  C_24 
REMARK    6  A    between atoms: C_24  and  C_25 
REMARK    7  A    between atoms: C_25  and  O_26 
ROOT
HETATM    1  C   UNK N   1      -1.748   0.212  -0.016  0.00  0.00     0.129 A 
HETATM    2  C   UNK N   1      -1.597  -1.220   0.104  0.00  0.00     0.078 A 
HETATM    3  C   UNK N   1      -2.784  -1.984   0.238  0.00  0.00     0.023 A 
HETATM    4  C   UNK N   1      -4.049  -1.409   0.246  0.00  0.00     0.032 A 
HETATM    5  C   UNK N   1      -4.123  -0.044   0.099  0.00  0.00     0.057 A 
HETATM    6  N   UNK N   1      -3.029   0.718  -0.030  0.00  0.00    -0.292 N 
HETATM    7  C   UNK N   1      -3.488   1.973  -0.199  0.00  0.00     0.190 A 
HETATM    8  N   UNK N   1      -4.841   2.012  -0.155  0.00  0.00    -0.359 N 
ATOM      9  HN  UNK N   1      -5.434   2.837  -0.244  1.00  0.00     0.166 HD
HETATM   10  C   UNK N   1      -5.247   0.738   0.033  0.00  0.00     0.119 A 
ENDROOT
BRANCH   1  11
HETATM   11  N   UNK N   1      -0.606   1.050  -0.193  0.00  0.00    -0.339 N 
HETATM   12  H   UNK N   1       0.179   0.586  -0.563  0.00  0.00     0.167 HD
BRANCH  11  13
HETATM   13  C   UNK N   1      -0.391   2.439   0.067  0.00  0.00     0.072 A 
HETATM   14  C   UNK N   1      -1.267   3.210   0.847  0.00  0.00     0.034 A 
HETATM   15  C   UNK N   1      -1.020   4.568   1.067  0.00  0.00     0.020 A 
HETATM   16  C   UNK N   1       0.122   5.165   0.531  0.00  0.00     0.009 A 
HETATM   17  C   UNK N   1       1.024   4.400  -0.209  0.00  0.00     0.062 A 
HETATM   18  I   UNK N   1       0.483   7.217   0.828  0.00  0.00    -0.044 I 
HETATM   19  C   UNK N   1       0.773   3.044  -0.436  0.00  0.00     0.144 A 
HETATM   20  F   UNK N   1       1.663   2.316  -1.155  0.00  0.00    -0.204 F 
ENDBRANCH  11  13
ENDBRANCH   1  11
BRANCH   2  21
HETATM   21  C   UNK N   1      -0.325  -2.062   0.085  0.00  0.00     0.279 C 
HETATM   22  O   UNK N   1      -0.475  -3.276   0.070  0.00  0.00    -0.265 OA
HETATM   23  N   UNK N   1       0.962  -1.619   0.085  0.00  0.00    -0.231 N 
HETATM   24  H   UNK N   1       1.669  -2.302   0.023  0.00  0.00     0.197 HD
BRANCH  23  25
HETATM   25  O   UNK N   1       1.358  -0.347   0.160  0.00  0.00    -0.275 OA
BRANCH  25  26
HETATM   26  C   UNK N   1       2.478  -0.371   0.998  0.00  0.00     0.227 C 
BRANCH  26  27
HETATM   27  C   UNK N   1       3.744  -0.633   0.195  0.00  0.00     0.192 C 
BRANCH  27  28
HETATM   28  O   UNK N   1       3.974   0.415  -0.696  0.00  0.00    -0.399 OA
HETATM   29  H   UNK N   1       4.685   0.641  -1.316  0.00  0.00     0.209 HD
ENDBRANCH  27  28
ENDBRANCH  26  27
ENDBRANCH  25  26
ENDBRANCH  23  25
ENDBRANCH   2  21
TORSDOF 7
