REMARK  5 active torsions:
REMARK  status: ('A' for Active; 'I' for Inactive)
REMARK    1  A    between atoms: C_4  and  O_22 
REMARK    2  A    between atoms: C_5  and  N_9 
REMARK       I    between atoms: N_9  and  C_10 
REMARK       I    between atoms: C_10  and  N_12 
REMARK    3  A    between atoms: N_12  and  C_13 
REMARK    4  A    between atoms: O_22  and  C_23 
REMARK    5  A    between atoms: C_24  and  C_23 
ROOT
HETATM    1  C   UNK N   1      -2.695   2.779  -1.200  0.00  0.00     0.049 C 
HETATM    2  C   UNK N   1      -2.273   1.425  -0.752  0.00  0.00    -0.042 A 
HETATM    3  C   UNK N   1      -0.965   0.997  -1.000  0.00  0.00     0.047 A 
HETATM    4  C   UNK N   1      -0.527  -0.272  -0.597  0.00  0.00     0.096 A 
HETATM    5  C   UNK N   1      -1.447  -1.148   0.023  0.00  0.00     0.071 A 
HETATM    6  C   UNK N   1      -2.750  -0.688   0.285  0.00  0.00     0.052 A 
HETATM    7  C   UNK N   1      -3.163   0.581  -0.081  0.00  0.00     0.019 A 
HETATM    8 Br   UNK N   1      -4.961   1.097   0.321  0.00  0.00    -0.051 Br
ENDROOT
BRANCH   5   9
HETATM    9  N   UNK N   1      -1.153  -2.518   0.300  0.00  0.00    -0.306 N 
HETATM   10  C   UNK N   1      -2.086  -3.450  -0.048  0.00  0.00     0.326 C 
HETATM   11  O   UNK N   1      -2.991  -3.128  -0.813  0.00  0.00    -0.247 OA
HETATM   12  N   UNK N   1      -2.063  -4.711   0.459  0.00  0.00    -0.293 N 
HETATM   13  H   UNK N   1      -1.253  -5.050   0.905  0.00  0.00     0.172 HD
HETATM   14  H   UNK N   1      -0.305  -2.781   0.726  0.00  0.00     0.171 HD
BRANCH  12  15
HETATM   15  C   UNK N   1      -3.221  -5.541   0.341  0.00  0.00     0.124 A 
HETATM   16  C   UNK N   1      -3.136  -6.931   0.440  0.00  0.00     0.137 A 
HETATM   17  N   UNK N   1      -4.272  -7.677   0.318  0.00  0.00    -0.365 N 
HETATM   18  C   UNK N   1      -5.486  -7.090   0.118  0.00  0.00     0.020 A 
ATOM     19  HN  UNK N   1      -4.212  -8.694   0.378  1.00  0.00     0.165 HD
HETATM   20  C   UNK N   1      -5.575  -5.708   0.045  0.00  0.00     0.114 A 
HETATM   21  C   UNK N   1      -6.715  -7.913  -0.020  0.00  0.00     0.069 C 
HETATM   22  N   UNK N   1      -4.448  -4.970   0.159  0.00  0.00    -0.349 N 
ATOM     23  HN  UNK N   1      -4.517  -3.953   0.109  1.00  0.00     0.167 HD
ENDBRANCH  12  15
ENDBRANCH   5   9
BRANCH   4  24
HETATM   24  O   UNK N   1       0.763  -0.596  -0.831  0.00  0.00    -0.346 OA
BRANCH  24  25
HETATM   25  C   UNK N   1       1.522  -1.310   0.064  0.00  0.00     0.209 C 
BRANCH  25  26
HETATM   26  C   UNK N   1       2.400  -0.357   0.896  0.00  0.00     0.163 C 
HETATM   27  C   UNK N   1       1.634   0.611   1.820  0.00  0.00     0.147 C 
HETATM   28  N   UNK N   1       1.107   1.754   1.073  0.00  0.00    -0.417 N 
HETATM   29  C   UNK N   1       2.194   2.385   0.330  0.00  0.00     0.140 C 
HETATM   30  H   UNK N   1       0.134   2.060   1.071  0.00  0.00     0.153 HD
HETATM   31  C   UNK N   1       2.833   1.355  -0.599  0.00  0.00     0.187 C 
HETATM   32  O   UNK N   1       3.406   0.303   0.149  0.00  0.00    -0.381 OA
ENDBRANCH  25  26
ENDBRANCH  24  25
ENDBRANCH   4  24
TORSDOF 5
