REMARK  5 active torsions:
REMARK  status: ('A' for Active; 'I' for Inactive)
REMARK    1  A    between atoms: N_2  and  C_4 
REMARK       I    between atoms: N_7  and  C_10 
REMARK    2  A    between atoms: C_10  and  C_12 
REMARK    3  A    between atoms: C_15  and  N_18 
REMARK       I    between atoms: N_18  and  C_19 
REMARK       I    between atoms: C_19  and  N_21 
REMARK    4  A    between atoms: N_21  and  C_22 
REMARK    5  A    between atoms: C_25  and  C_28 
REMARK       I    between atoms: C_31  and  N_43 
ROOT
HETATM    1  C   UNK N   1     -13.721  -5.307  -0.787  0.00  0.00     0.132 C 
HETATM    2  C   UNK N   1     -12.604  -5.769  -1.472  0.00  0.00     0.003 C 
HETATM    3  C   UNK N   1     -11.872  -6.741  -0.911  0.00  0.00     0.009 C 
HETATM    4  C   UNK N   1     -12.265  -7.319   0.286  0.00  0.00    -0.016 C 
HETATM    5  C   UNK N   1     -13.558  -7.062   0.779  0.00  0.00     0.009 C 
HETATM    6  C   UNK N   1     -14.306  -6.080   0.204  0.00  0.00     0.003 C 
ENDROOT
BRANCH   1   7
HETATM    7  N   UNK N   1     -13.536  -3.988  -0.366  0.00  0.00    -0.332 N 
HETATM    8  C   UNK N   1     -12.350  -3.617   0.234  0.00  0.00     0.321 C 
HETATM    9  N   UNK N   1     -11.437  -4.555   0.660  0.00  0.00    -0.309 N 
HETATM   10  O   UNK N   1     -12.047  -2.445   0.232  0.00  0.00    -0.247 OA
HETATM   11  H   UNK N   1     -11.670  -5.112   1.438  0.00  0.00     0.170 HD
HETATM   12  H   UNK N   1     -14.251  -3.324  -0.499  0.00  0.00     0.165 HD
BRANCH   9  13
HETATM   13  C   UNK N   1     -10.169  -4.763   0.033  0.00  0.00     0.035 C 
HETATM   14  C   UNK N   1      -9.377  -5.868   0.418  0.00  0.00     0.026 C 
HETATM   15  C   UNK N   1      -8.196  -6.156  -0.264  0.00  0.00    -0.007 C 
HETATM   16  C   UNK N   1      -7.696  -5.170  -1.092  0.00  0.00     0.123 C 
HETATM   17  C   UNK N   1      -8.651  -4.428  -1.819  0.00  0.00    -0.007 C 
HETATM   18  C   UNK N   1      -9.894  -4.183  -1.218  0.00  0.00     0.026 C 
BRANCH  16  19
HETATM   19  C   UNK N   1      -6.725  -4.377  -0.243  0.00  0.00     0.231 C 
HETATM   20  N   UNK N   1      -6.883  -3.037   0.021  0.00  0.00    -0.351 N 
HETATM   21  C   UNK N   1      -5.903  -2.313   0.820  0.00  0.00     0.128 C 
HETATM   22  C   UNK N   1      -8.102  -2.356  -0.346  0.00  0.00     0.128 C 
HETATM   23  C   UNK N   1      -5.993  -0.780   0.579  0.00  0.00     0.055 C 
HETATM   24  C   UNK N   1      -7.413  -0.325   0.136  0.00  0.00     0.225 C 
HETATM   25  C   UNK N   1      -8.445  -1.289   0.602  0.00  0.00     0.055 C 
HETATM   26  O   UNK N   1      -5.854  -4.994   0.358  0.00  0.00    -0.272 OA
BRANCH  24  27
HETATM   27  N   UNK N   1      -7.818   1.030   0.454  0.00  0.00     0.084 N 
HETATM   28  C   UNK N   1      -8.956   1.321  -0.415  0.00  0.00     0.309 C 
HETATM   29  C   UNK N   1      -6.765   1.935   0.042  0.00  0.00     0.309 C 
ENDBRANCH  24  27
ENDBRANCH  16  19
ENDBRANCH   9  13
ENDBRANCH   1   7
BRANCH   4  30
HETATM   30  C   UNK N   1     -11.783  -8.605   0.420  0.00  0.00     0.232 C 
HETATM   31  N   UNK N   1     -10.906  -8.982  -0.541  0.00  0.00    -0.360 N 
HETATM   32  C   UNK N   1     -11.023 -10.211  -0.997  0.00  0.00     0.300 C 
ATOM     33  HN  UNK N   1     -10.191  -8.346  -0.894  1.00  0.00     0.159 HD
HETATM   34  N   UNK N   1     -12.284 -10.673  -1.166  0.00  0.00    -0.188 N 
HETATM   35  N   UNK N   1     -10.244 -11.084  -0.261  0.00  0.00    -0.372 N 
HETATM   36  C   UNK N   1     -13.138 -10.298  -0.203  0.00  0.00     0.676 C 
ATOM     37  HN  UNK N   1     -12.560 -11.256  -1.957  1.00  0.00     0.181 HD
HETATM   38  N   UNK N   1     -12.783  -9.436   0.734  0.00  0.00    -0.201 N 
HETATM   39  N   UNK N   1     -14.307 -10.965  -0.037  0.00  0.00    -0.214 N 
ATOM     40  HN  UNK N   1     -13.244  -9.407   1.644  1.00  0.00     0.180 HD
HETATM   41  C   UNK N   1     -14.201 -12.188   0.682  0.00  0.00     0.167 C 
HETATM   42  C   UNK N   1     -15.538 -10.230   0.036  0.00  0.00     0.167 C 
HETATM   43  C   UNK N   1     -15.292 -13.088   0.148  0.00  0.00     0.188 C 
HETATM   44  O   UNK N   1     -16.102 -12.413  -0.803  0.00  0.00    -0.388 OA
HETATM   45  C   UNK N   1     -16.643 -11.257  -0.182  0.00  0.00     0.188 C 
HETATM   46  C   UNK N   1      -9.132 -10.558   0.484  0.00  0.00     0.147 C 
HETATM   47  C   UNK N   1     -10.637 -12.438  -0.026  0.00  0.00     0.147 C 
HETATM   48  C   UNK N   1      -8.002 -11.426   0.064  0.00  0.00     0.187 C 
HETATM   49  O   UNK N   1      -8.316 -12.739   0.472  0.00  0.00    -0.388 OA
HETATM   50  C   UNK N   1      -9.393 -13.239  -0.305  0.00  0.00     0.187 C 
ENDBRANCH   4  30
TORSDOF 5
