REMARK  4 active torsions:
REMARK  status: ('A' for Active; 'I' for Inactive)
REMARK    1  A    between atoms: S_2  and  N_5 
REMARK    2  A    between atoms: C_14  and  N_12 
REMARK    3  A    between atoms: C_16  and  N_28 
REMARK    4  A    between atoms: C_17  and  C_20 
ROOT
HETATM    1  C   UNK N   1       2.578  -0.432  -0.672  0.00  0.00     0.249 C 
HETATM    2  C   UNK N   1       3.306   0.884  -1.067  0.00  0.00     0.065 C 
HETATM    3  C   UNK N   1       4.795   0.945  -0.677  0.00  0.00     0.109 C 
HETATM    4  C   UNK N   1       5.282  -0.452  -0.285  0.00  0.00     0.179 C 
HETATM    5  O   UNK N   1       4.802  -1.355  -1.239  0.00  0.00    -0.377 OA
HETATM    6  C   UNK N   1       3.505  -1.675  -0.800  0.00  0.00     0.204 C 
ENDROOT
BRANCH   1   7
HETATM    7  N   UNK N   1       1.964  -0.353   0.667  0.00  0.00     0.105 N 
HETATM    8  C   UNK N   1       0.942   0.736   0.631  0.00  0.00     0.332 C 
HETATM    9  C   UNK N   1      -0.322   0.005   0.616  0.00  0.00     0.064 A 
HETATM   10  C   UNK N   1      -0.171  -1.283   0.771  0.00  0.00     0.014 A 
HETATM   11  N   UNK N   1      -1.611   0.331   0.474  0.00  0.00    -0.287 N 
HETATM   12  C   UNK N   1      -1.428  -1.843   0.734  0.00  0.00     0.140 A 
HETATM   13  C   UNK N   1       1.238  -1.640   0.922  0.00  0.00     0.315 C 
HETATM   14  N   UNK N   1      -2.296  -0.815   0.520  0.00  0.00    -0.192 N 
ATOM     15  HN  UNK N   1      -1.996   1.268   0.355  1.00  0.00     0.188 HD
BRANCH  14  16
HETATM   16  S   UNK N   1      -4.089  -0.948   0.453  0.00  0.00     0.245 S 
HETATM   17  C   UNK N   1      -5.223  -1.031  -0.961  0.00  0.00     0.188 C 
HETATM   18  O   UNK N   1      -3.719  -2.033  -0.573  0.00  0.00    -0.204 OA
HETATM   19  O   UNK N   1      -3.957   0.304  -0.429  0.00  0.00    -0.204 OA
ENDBRANCH  14  16
ENDBRANCH   1   7
BRANCH   3  20
HETATM   20  N   UNK N   1       4.993   1.887   0.409  0.00  0.00    -0.423 N 
HETATM   21  H   UNK N   1       5.636   2.098   1.172  0.00  0.00     0.150 HD
HETATM   22  H   UNK N   1       4.234   2.568   0.409  0.00  0.00     0.150 HD
ENDBRANCH   3  20
BRANCH   4  23
HETATM   23  C   UNK N   1       6.755  -0.636  -0.037  0.00  0.00     0.014 A 
HETATM   24  C   UNK N   1       7.662   0.423  -0.194  0.00  0.00     0.055 A 
HETATM   25  C   UNK N   1       9.021   0.234   0.075  0.00  0.00     0.117 A 
HETATM   26  C   UNK N   1       9.483  -1.015   0.497  0.00  0.00     0.045 A 
HETATM   27  F   UNK N   1       9.890   1.263  -0.065  0.00  0.00    -0.206 F 
HETATM   28  C   UNK N   1       8.588  -2.076   0.651  0.00  0.00     0.046 A 
HETATM   29  C   UNK N   1       7.229  -1.890   0.388  0.00  0.00     0.125 A 
HETATM   30  F   UNK N   1       6.372  -2.930   0.554  0.00  0.00    -0.205 F 
ENDBRANCH   4  23
TORSDOF 4
