REMARK  22 active torsions:
REMARK  status: ('A' for Active; 'I' for Inactive)
REMARK    1  A    between atoms: C_2  and  C_3 
REMARK    2  A    between atoms: C_3  and  C_4 
REMARK    3  A    between atoms: C_10  and  C_13 
REMARK    4  A    between atoms: C_15  and  S_22 
REMARK    5  A    between atoms: C_18  and  O_19 
REMARK    6  A    between atoms: O_19  and  C_20 
REMARK    7  A    between atoms: S_22  and  N_25 
REMARK    8  A    between atoms: N_28  and  C_31 
REMARK    9  A    between atoms: C_31  and  C_32 
REMARK   10  A    between atoms: C_32  and  O_33 
REMARK   11  A    between atoms: O_33  and  C_34 
REMARK   12  A    between atoms: C_34  and  O_36 
REMARK   13  A    between atoms: O_36  and  C_37 
REMARK   14  A    between atoms: C_37  and  C_38 
REMARK   15  A    between atoms: C_38  and  N_39 
REMARK   16  A    between atoms: N_42  and  S_45 
REMARK   17  A    between atoms: S_45  and  C_48 
REMARK   18  A    between atoms: C_51  and  O_70 
REMARK   19  A    between atoms: C_52  and  C_54 
REMARK   20  A    between atoms: C_62  and  C_67 
REMARK   21  A    between atoms: C_67  and  C_68 
REMARK   22  A    between atoms: O_70  and  C_71 
ROOT
HETATM    1  C   UNK N   1       4.597  10.149  -1.535  0.00  0.00     0.406 C 
HETATM    2  O   UNK N   1       3.706   9.590  -2.155  0.00  0.00    -0.230 OA
ENDROOT
BRANCH   1   3
HETATM    3  O   UNK N   1       4.268  11.183  -0.723  0.00  0.00    -0.296 OA
BRANCH   3   4
HETATM    4  C   UNK N   1       4.968  11.593   0.383  0.00  0.00     0.200 C 
BRANCH   4   5
HETATM    5  C   UNK N   1       4.362  12.882   0.934  0.00  0.00     0.143 C 
BRANCH   5   6
HETATM    6  N   UNK N   1       2.903  12.858   1.134  0.00  0.00    -0.408 N 
HETATM    7  C   UNK N   1       2.142  13.624   0.141  0.00  0.00     0.132 C 
HETATM    8  C   UNK N   1       1.661  12.782  -1.049  0.00  0.00     0.127 C 
HETATM    9  N   UNK N   1       1.025  11.517  -0.656  0.00  0.00    -0.203 NA
HETATM   10  C   UNK N   1       1.856  10.754   0.287  0.00  0.00     0.127 C 
HETATM   11  C   UNK N   1       2.298  11.577   1.511  0.00  0.00     0.132 C 
BRANCH   9  12
HETATM   12  S   UNK N   1      -0.657  11.610  -0.040  0.00  0.00     0.243 S 
HETATM   13  O   UNK N   1      -1.094  10.153   0.154  0.00  0.00    -0.206 OA
HETATM   14  O   UNK N   1      -0.393  11.921   1.435  0.00  0.00    -0.206 OA
BRANCH  12  15
HETATM   15  C   UNK N   1      -2.070  12.679  -0.281  0.00  0.00     0.075 A 
HETATM   16  C   UNK N   1      -1.909  14.015   0.012  0.00  0.00     0.042 A 
HETATM   17  C   UNK N   1      -2.986  14.893   0.038  0.00  0.00     0.043 A 
HETATM   18  C   UNK N   1      -4.290  14.409  -0.202  0.00  0.00     0.082 A 
HETATM   19  C   UNK N   1      -4.470  13.036  -0.462  0.00  0.00     0.039 A 
HETATM   20  C   UNK N   1      -3.361  12.171  -0.496  0.00  0.00     0.027 A 
BRANCH  17  21
HETATM   21  C   UNK N   1      -2.662  16.306   0.245  0.00  0.00     0.121 A 
HETATM   22  N   UNK N   1      -1.357  16.643   0.525  0.00  0.00    -0.307 N 
HETATM   23  C   UNK N   1      -0.933  17.946   0.492  0.00  0.00     0.277 A 
HETATM   24  H   UNK N   1      -0.714  15.933   0.754  0.00  0.00     0.170 HD
HETATM   25  C   UNK N   1      -1.860  18.909   0.141  0.00  0.00     0.147 A 
HETATM   26  O   UNK N   1       0.229  18.223   0.727  0.00  0.00    -0.265 OA
HETATM   27  C   UNK N   1      -3.145  18.558  -0.089  0.00  0.00     0.092 A 
HETATM   28  N   UNK N   1      -1.734  20.234  -0.052  0.00  0.00    -0.289 N 
HETATM   29  C   UNK N   1      -3.810  19.711  -0.412  0.00  0.00     0.055 A 
HETATM   30  N   UNK N   1      -3.578  17.279  -0.038  0.00  0.00    -0.338 N 
HETATM   31  N   UNK N   1      -2.917  20.734  -0.393  0.00  0.00    -0.300 N 
ATOM     32  HN  UNK N   1      -3.119  21.712  -0.603  1.00  0.00     0.187 HD
ATOM     33  HN  UNK N   1      -4.557  17.047  -0.205  1.00  0.00     0.167 HD
HETATM   34  C   UNK N   1      -0.511  21.014   0.036  0.00  0.00     0.178 C 
BRANCH  29  35
HETATM   35  C   UNK N   1      -5.253  19.835  -0.756  0.00  0.00     0.061 C 
BRANCH  35  36
HETATM   36  C   UNK N   1      -6.089  19.408   0.437  0.00  0.00     0.002 C 
HETATM   37  C   UNK N   1      -7.490  19.058  -0.012  0.00  0.00     0.005 C 
ENDBRANCH  35  36
ENDBRANCH  29  35
ENDBRANCH  17  21
BRANCH  18  38
HETATM   38  O   UNK N   1      -5.349  15.253  -0.189  0.00  0.00    -0.351 OA
BRANCH  38  39
HETATM   39  C   UNK N   1      -6.371  15.114   0.723  0.00  0.00     0.171 C 
HETATM   40  C   UNK N   1      -7.574  14.444   0.097  0.00  0.00     0.034 C 
ENDBRANCH  38  39
ENDBRANCH  18  38
ENDBRANCH  12  15
ENDBRANCH   9  12
ENDBRANCH   5   6
ENDBRANCH   4   5
ENDBRANCH   3   4
ENDBRANCH   1   3
BRANCH   1  41
HETATM   41  O   UNK N   1       5.879   9.732  -1.709  0.00  0.00    -0.296 OA
BRANCH  41  42
HETATM   42  C   UNK N   1       6.968  10.256  -1.047  0.00  0.00     0.211 C 
BRANCH  42  43
HETATM   43  C   UNK N   1       7.746   9.158  -0.316  0.00  0.00     0.299 C 
BRANCH  43  44
HETATM   44  N   UNK N   1       7.008   8.548   0.808  0.00  0.00     0.092 N 
HETATM   45  C   UNK N   1       7.790   7.436   1.358  0.00  0.00     0.288 C 
HETATM   46  C   UNK N   1       8.025   6.311   0.325  0.00  0.00     0.138 C 
HETATM   47  N   UNK N   1       6.814   5.908  -0.409  0.00  0.00    -0.203 NA
HETATM   48  C   UNK N   1       5.936   7.028  -0.775  0.00  0.00     0.138 C 
HETATM   49  C   UNK N   1       5.724   7.983   0.398  0.00  0.00     0.288 C 
BRANCH  47  50
HETATM   50  S   UNK N   1       5.895   4.648   0.438  0.00  0.00     0.243 S 
HETATM   51  O   UNK N   1       4.602   5.253   1.010  0.00  0.00    -0.206 OA
HETATM   52  O   UNK N   1       5.169   4.510  -0.916  0.00  0.00    -0.206 OA
BRANCH  50  53
HETATM   53  C   UNK N   1       5.892   2.860   0.305  0.00  0.00     0.075 A 
HETATM   54  C   UNK N   1       7.060   2.098   0.286  0.00  0.00     0.027 A 
HETATM   55  C   UNK N   1       6.968   0.702   0.178  0.00  0.00     0.039 A 
HETATM   56  C   UNK N   1       5.707   0.061   0.086  0.00  0.00     0.082 A 
HETATM   57  C   UNK N   1       4.536   0.852   0.106  0.00  0.00     0.043 A 
HETATM   58  C   UNK N   1       4.661   2.226   0.225  0.00  0.00     0.042 A 
BRANCH  56  59
HETATM   59  O   UNK N   1       5.618  -1.286  -0.029  0.00  0.00    -0.351 OA
BRANCH  59  60
HETATM   60  C   UNK N   1       6.722  -2.108  -0.082  0.00  0.00     0.171 C 
HETATM   61  C   UNK N   1       6.276  -3.554  -0.128  0.00  0.00     0.034 C 
ENDBRANCH  59  60
ENDBRANCH  56  59
BRANCH  57  62
HETATM   62  C   UNK N   1       3.152   0.343   0.016  0.00  0.00     0.121 A 
HETATM   63  N   UNK N   1       2.861  -0.999   0.097  0.00  0.00    -0.307 N 
HETATM   64  C   UNK N   1       1.551  -1.438   0.076  0.00  0.00     0.277 A 
HETATM   65  H   UNK N   1       3.593  -1.653   0.170  0.00  0.00     0.170 HD
HETATM   66  O   UNK N   1       1.296  -2.626   0.158  0.00  0.00    -0.265 OA
HETATM   67  C   UNK N   1       0.542  -0.484  -0.039  0.00  0.00     0.147 A 
HETATM   68  C   UNK N   1       0.863   0.821  -0.139  0.00  0.00     0.092 A 
HETATM   69  N   UNK N   1      -0.800  -0.600  -0.078  0.00  0.00    -0.289 N 
HETATM   70  N   UNK N   1       2.136   1.256  -0.111  0.00  0.00    -0.338 N 
HETATM   71  C   UNK N   1      -0.321   1.511  -0.257  0.00  0.00     0.055 A 
ATOM     72  HN  UNK N   1       2.343   2.253  -0.183  1.00  0.00     0.167 HD
HETATM   73  N   UNK N   1      -1.335   0.613  -0.212  0.00  0.00    -0.300 N 
ATOM     74  HN  UNK N   1      -2.330   0.827  -0.271  1.00  0.00     0.187 HD
HETATM   75  C   UNK N   1      -1.580  -1.822   0.008  0.00  0.00     0.178 C 
BRANCH  71  76
HETATM   76  C   UNK N   1      -0.505   2.985  -0.446  0.00  0.00     0.061 C 
BRANCH  76  77
HETATM   77  C   UNK N   1       0.176   3.789   0.647  0.00  0.00     0.002 C 
HETATM   78  C   UNK N   1       1.393   4.488   0.071  0.00  0.00     0.005 C 
ENDBRANCH  76  77
ENDBRANCH  71  76
ENDBRANCH  57  62
ENDBRANCH  50  53
ENDBRANCH  47  50
ENDBRANCH  43  44
ENDBRANCH  42  43
ENDBRANCH  41  42
ENDBRANCH   1  41
TORSDOF 22
