REMARK  22 active torsions:
REMARK  status: ('A' for Active; 'I' for Inactive)
REMARK    1  A    between atoms: C_4  and  C_7 
REMARK    2  A    between atoms: C_7  and  C_8 
REMARK    3  A    between atoms: C_8  and  C_9 
REMARK    4  A    between atoms: C_9  and  C_10 
REMARK    5  A    between atoms: C_9  and  O_36 
REMARK    6  A    between atoms: C_10  and  C_11 
REMARK    7  A    between atoms: C_12  and  C_11 
REMARK    8  A    between atoms: C_13  and  O_35 
REMARK    9  A    between atoms: C_15  and  O_34 
REMARK   10  A    between atoms: C_16  and  C_17 
REMARK   11  A    between atoms: C_17  and  C_18 
REMARK   12  A    between atoms: C_19  and  C_20 
REMARK   13  A    between atoms: C_20  and  C_21 
REMARK   14  A    between atoms: C_21  and  C_22 
REMARK   15  A    between atoms: C_22  and  C_23 
REMARK   16  A    between atoms: C_23  and  O_25 
REMARK   17  A    between atoms: O_25  and  C_26 
REMARK   18  A    between atoms: C_26  and  C_27 
REMARK   19  A    between atoms: C_27  and  C_28 
REMARK   20  A    between atoms: C_28  and  C_29 
REMARK   21  A    between atoms: C_29  and  O_30 
REMARK   22  A    between atoms: O_30  and  N_31 
ROOT
HETATM    1  C   UNK N   1      -0.279  11.373   0.388  0.00  0.00     0.021 C 
HETATM    2  C   UNK N   1       0.255  12.710  -0.068  0.00  0.00     0.125 C 
HETATM    3  C   UNK N   1       1.772  12.525  -0.045  0.00  0.00     0.064 C 
HETATM    4  C   UNK N   1       1.985  11.016   0.045  0.00  0.00     0.125 C 
HETATM    5  C   UNK N   1       0.646  10.438  -0.347  0.00  0.00     0.024 C 
ENDROOT
BRANCH   5   6
HETATM    6  C   UNK N   1       0.486   8.987   0.055  0.00  0.00     0.034 C 
BRANCH   6   7
HETATM    7  C   UNK N   1      -0.414   8.301  -0.930  0.00  0.00    -0.030 C 
HETATM    8  C   UNK N   1      -0.832   7.044  -0.761  0.00  0.00    -0.031 C 
BRANCH   8   9
HETATM    9  C   UNK N   1      -0.468   6.249   0.451  0.00  0.00     0.027 C 
BRANCH   9  10
HETATM   10  C   UNK N   1       0.449   5.106   0.065  0.00  0.00     0.013 C 
BRANCH  10  11
HETATM   11  C   UNK N   1       1.740   5.192   0.864  0.00  0.00     0.111 C 
BRANCH  11  12
HETATM   12  C   UNK N   1       2.788   5.944   0.108  0.00  0.00     0.258 C 
HETATM   13  O   UNK N   1       2.610   7.117  -0.182  0.00  0.00    -0.265 OA
BRANCH  12  14
HETATM   14  O   UNK N   1       3.936   5.317  -0.239  0.00  0.00    -0.321 OA
BRANCH  14  15
HETATM   15  C   UNK N   1       4.883   5.909  -1.044  0.00  0.00     0.178 C 
BRANCH  15  16
HETATM   16  C   UNK N   1       5.951   6.573  -0.200  0.00  0.00     0.029 C 
BRANCH  16  17
HETATM   17  C   UNK N   1       5.687   8.066  -0.107  0.00  0.00     0.031 C 
BRANCH  17  18
HETATM   18  C   UNK N   1       6.818   8.736   0.651  0.00  0.00     0.208 C 
BRANCH  18  19
HETATM   19  O   UNK N   1       7.963   8.733  -0.115  0.00  0.00    -0.221 OA
BRANCH  19  20
HETATM   20  N   UNK N   1       8.950   7.886   0.116  0.00  0.00     0.004 N 
HETATM   21  O   UNK N   1       9.932   7.925  -0.561  0.00  0.00    -0.511 OA
HETATM   22  O   UNK N   1       8.837   6.957   1.044  0.00  0.00    -0.511 OA
ENDBRANCH  19  20
ENDBRANCH  18  19
ENDBRANCH  17  18
ENDBRANCH  16  17
ENDBRANCH  15  16
ENDBRANCH  14  15
ENDBRANCH  12  14
ENDBRANCH  11  12
ENDBRANCH  10  11
ENDBRANCH   9  10
ENDBRANCH   8   9
ENDBRANCH   6   7
ENDBRANCH   5   6
BRANCH   4  23
HETATM   23  O   UNK N   1       2.990  10.594  -0.825  0.00  0.00    -0.395 OA
HETATM   24  H   UNK N   1       3.086   9.842  -1.430  0.00  0.00     0.210 HD
ENDBRANCH   4  23
BRANCH   1  25
HETATM   25  C   UNK N   1      -1.754  11.153   0.097  0.00  0.00     0.010 C 
BRANCH  25  26
HETATM   26  C   UNK N   1      -2.268  10.097   1.067  0.00  0.00     0.032 C 
BRANCH  26  27
HETATM   27  C   UNK N   1      -3.421   9.278   0.504  0.00  0.00     0.118 C 
BRANCH  27  28
HETATM   28  C   UNK N   1      -4.717  10.066   0.537  0.00  0.00     0.036 C 
BRANCH  28  29
HETATM   29  C   UNK N   1      -4.768  11.077  -0.595  0.00  0.00     0.041 C 
BRANCH  29  30
HETATM   30  C   UNK N   1      -5.727  12.166  -0.268  0.00  0.00    -0.058 A 
HETATM   31  C   UNK N   1      -5.259  13.477  -0.132  0.00  0.00     0.007 A 
HETATM   32  C   UNK N   1      -6.149  14.509   0.180  0.00  0.00     0.001 A 
HETATM   33  C   UNK N   1      -7.508  14.231   0.355  0.00  0.00     0.000 A 
HETATM   34  C   UNK N   1      -7.978  12.922   0.216  0.00  0.00     0.001 A 
HETATM   35  C   UNK N   1      -7.090  11.889  -0.096  0.00  0.00     0.007 A 
ENDBRANCH  29  30
ENDBRANCH  28  29
ENDBRANCH  27  28
BRANCH  27  36
HETATM   36  O   UNK N   1      -3.574   8.138   1.290  0.00  0.00    -0.396 OA
HETATM   37  H   UNK N   1      -4.315   7.833   1.838  0.00  0.00     0.210 HD
ENDBRANCH  27  36
ENDBRANCH  26  27
ENDBRANCH  25  26
ENDBRANCH   1  25
BRANCH   2  38
HETATM   38  O   UNK N   1      -0.138  13.726   0.801  0.00  0.00    -0.395 OA
HETATM   39  H   UNK N   1       0.338  14.317   1.406  0.00  0.00     0.210 HD
ENDBRANCH   2  38
TORSDOF 22
