REMARK  8 active torsions:
REMARK  status: ('A' for Active; 'I' for Inactive)
REMARK    1  A    between atoms: O_34  and  C_13 
REMARK    2  A    between atoms: N_26  and  C_16 
REMARK    3  A    between atoms: O_34  and  C_18 
REMARK    4  A    between atoms: O_32  and  C_19 
REMARK    5  A    between atoms: O_33  and  C_20 
REMARK    6  A    between atoms: N_28  and  C_21 
REMARK    7  A    between atoms: N_28  and  C_22 
REMARK    8  A    between atoms: O_31  and  C_22 
ROOT
HETATM    1  C   UNK N   1       0.528   2.219  -0.849  0.00  0.00     0.039 A 
HETATM    2  C   UNK N   1      -0.705   2.503  -1.431  0.00  0.00     0.034 A 
HETATM    3  C   UNK N   1      -0.599   1.449   1.145  0.00  0.00     0.063 A 
HETATM    4  C   UNK N   1       0.586   1.637   0.415  0.00  0.00     0.077 A 
HETATM    5  C   UNK N   1      -1.843   1.748   0.578  0.00  0.00     0.063 A 
HETATM    6  C   UNK N   1      -1.901   2.237  -0.755  0.00  0.00     0.057 A 
HETATM    7 Cl   UNK N   1      -3.265   1.258   1.487  0.00  0.00    -0.082 Cl
ENDROOT
BRANCH   4   8
HETATM    8  O   UNK N   1       1.731   1.001   0.774  0.00  0.00    -0.310 OA
BRANCH   8   9
HETATM    9  C   UNK N   1       1.787  -0.367   0.680  0.00  0.00     0.090 A 
HETATM   10  C   UNK N   1       0.606  -1.134   0.752  0.00  0.00     0.055 A 
HETATM   11  C   UNK N   1       0.635  -2.509   0.569  0.00  0.00     0.091 A 
HETATM   12  N   UNK N   1       1.807  -3.128   0.291  0.00  0.00    -0.365 N 
HETATM   13  C   UNK N   1       2.973  -2.438   0.207  0.00  0.00     0.048 A 
ATOM     14  HN  UNK N   1       1.813  -4.137   0.140  1.00  0.00     0.165 HD
HETATM   15  C   UNK N   1       4.139  -3.120  -0.117  0.00  0.00     0.070 A 
HETATM   16  C   UNK N   1       2.998  -1.038   0.415  0.00  0.00     0.027 A 
HETATM   17  C   UNK N   1       5.357  -2.454  -0.236  0.00  0.00     0.103 A 
HETATM   18  C   UNK N   1       5.407  -1.050  -0.010  0.00  0.00     0.102 A 
HETATM   19  C   UNK N   1       4.216  -0.356   0.307  0.00  0.00     0.056 A 
BRANCH  17  20
HETATM   20  O   UNK N   1       6.441  -3.205  -0.567  0.00  0.00    -0.353 OA
HETATM   21  C   UNK N   1       7.718  -2.734  -0.758  0.00  0.00     0.210 C 
ENDBRANCH  17  20
BRANCH  18  22
HETATM   22  O   UNK N   1       6.586  -0.388  -0.098  0.00  0.00    -0.353 OA
HETATM   23  C   UNK N   1       6.726   0.957   0.157  0.00  0.00     0.210 C 
ENDBRANCH  18  22
ENDBRANCH   8   9
ENDBRANCH   4   8
BRANCH   6  24
HETATM   24  N   UNK N   1      -3.100   2.235  -1.529  0.00  0.00    -0.321 N 
HETATM   25  C   UNK N   1      -4.296   2.619  -1.230  0.00  0.00     0.223 C 
ATOM     26  HN  UNK N   1      -2.994   1.869  -2.476  1.00  0.00     0.169 HD
BRANCH  25  27
HETATM   27  N   UNK N   1      -4.603   3.377  -0.065  0.00  0.00    -0.307 N 
ATOM     28  HN  UNK N   1      -5.320   3.021   0.567  1.00  0.00     0.171 HD
BRANCH  27  29
HETATM   29  C   UNK N   1      -4.023   4.486   0.234  0.00  0.00     0.131 A 
HETATM   30  C   UNK N   1      -3.058   5.142  -0.510  0.00  0.00     0.084 A 
HETATM   31  C   UNK N   1      -2.844   6.292   0.220  0.00  0.00     0.076 A 
HETATM   32  C   UNK N   1      -1.891   7.378  -0.124  0.00  0.00     0.079 C 
HETATM   33  O   UNK N   1      -3.626   6.292   1.276  0.00  0.00    -0.241 OA
HETATM   34  N   UNK N   1      -4.353   5.214   1.313  0.00  0.00    -0.245 N 
HETATM   35  H   UNK N   1      -5.017   4.978   1.999  0.00  0.00     0.196 HD
ENDBRANCH  27  29
ENDBRANCH  25  27
BRANCH  25  36
HETATM   36  O   UNK N   1      -5.295   2.320  -2.080  0.00  0.00    -0.332 OA
HETATM   37  H   UNK N   1      -5.824   2.819  -2.672  0.00  0.00     0.220 HD
ENDBRANCH  25  36
ENDBRANCH   6  24
TORSDOF 8
