REMARK  4 active torsions:
REMARK  status: ('A' for Active; 'I' for Inactive)
REMARK    1  A    between atoms: O_2  and  C_3 
REMARK    2  A    between atoms: C_8  and  C_9 
REMARK    3  A    between atoms: N_16  and  C_17 
REMARK    4  A    between atoms: C_17  and  C_18 
REMARK       I    between atoms: C_18  and  N_20 
ROOT
HETATM    1  C   UNK N   1       2.149  -0.897  -0.094  0.00  0.00     0.055 A 
HETATM    2  C   UNK N   1       2.032   0.463   0.219  0.00  0.00     0.105 A 
HETATM    3  C   UNK N   1       3.150   1.264   0.293  0.00  0.00     0.249 A 
HETATM    4  O   UNK N   1       3.040   2.446   0.559  0.00  0.00    -0.268 OA
HETATM    5  N   UNK N   1       4.377   0.728   0.059  0.00  0.00    -0.300 N 
HETATM    6  C   UNK N   1       4.529  -0.582  -0.257  0.00  0.00     0.181 A 
HETATM    7  S   UNK N   1       5.862  -1.052  -0.539  0.00  0.00    -0.040 SA
HETATM    8  N   UNK N   1       3.420  -1.420  -0.336  0.00  0.00    -0.314 N 
HETATM    9  H   UNK N   1       5.173   1.304   0.120  0.00  0.00     0.171 HD
ENDROOT
BRANCH   1  10
HETATM   10  C   UNK N   1       0.866  -1.719  -0.126  0.00  0.00     0.026 A 
HETATM   11  C   UNK N   1       0.929  -3.121  -0.120  0.00  0.00     0.040 A 
HETATM   12  C   UNK N   1      -0.215  -3.915  -0.100  0.00  0.00     0.035 A 
HETATM   13  C   UNK N   1      -1.471  -3.322  -0.090  0.00  0.00     0.026 A 
HETATM   14 Cl   UNK N   1      -0.068  -5.658  -0.067  0.00  0.00    -0.084 Cl
HETATM   15  C   UNK N   1      -1.579  -1.936  -0.102  0.00  0.00     0.039 A 
HETATM   16  C   UNK N   1      -0.433  -1.117  -0.116  0.00  0.00     0.080 A 
BRANCH  16  17
HETATM   17  O   UNK N   1      -0.573   0.233  -0.132  0.00  0.00    -0.355 OA
HETATM   18  C   UNK N   1      -1.792   0.875  -0.140  0.00  0.00     0.210 C 
ENDBRANCH  16  17
ENDBRANCH   1  10
BRANCH   8  19
HETATM   19  C   UNK N   1       3.588  -2.826  -0.766  0.00  0.00     0.234 C 
BRANCH  19  20
HETATM   20  C   UNK N   1       4.054  -3.751   0.326  0.00  0.00     0.233 C 
HETATM   21  O   UNK N   1       5.124  -3.571   0.882  0.00  0.00    -0.272 OA
HETATM   22  N   UNK N   1       3.316  -4.832   0.641  0.00  0.00    -0.369 N 
HETATM   23  H   UNK N   1       2.362  -4.761   0.871  0.00  0.00     0.159 HD
HETATM   24  H   UNK N   1       3.744  -5.719   0.641  0.00  0.00     0.159 HD
ENDBRANCH  19  20
ENDBRANCH   8  19
TORSDOF 4
