REMARK  8 active torsions:
REMARK  status: ('A' for Active; 'I' for Inactive)
REMARK    1  A    between atoms: C_5  and  C_4 
REMARK    2  A    between atoms: O_27  and  C_4 
REMARK    3  A    between atoms: O_29  and  C_5 
REMARK    4  A    between atoms: C_17  and  C_10 
REMARK    5  A    between atoms: N_23  and  C_12 
REMARK    6  A    between atoms: N_23  and  C_15 
REMARK    7  A    between atoms: O_28  and  C_17 
REMARK    8  A    between atoms: N_24  and  O_29 
ROOT
HETATM    1  C   UNK N   1      -1.992  -1.434   0.927  0.00  0.00     0.157 C 
HETATM    2  C   UNK N   1       0.834  -0.226   0.480  0.00  0.00     0.050 A 
HETATM    3  C   UNK N   1      -2.475   0.942   0.300  0.00  0.00     0.183 A 
HETATM    4  C   UNK N   1       2.008   0.531   0.246  0.00  0.00     0.049 A 
HETATM    5  C   UNK N   1      -0.394   0.415   0.370  0.00  0.00     0.066 A 
HETATM    6  C   UNK N   1       0.608   2.512  -0.222  0.00  0.00     0.172 A 
HETATM    7  C   UNK N   1       1.902   1.927  -0.085  0.00  0.00     0.088 A 
HETATM    8  C   UNK N   1      -0.499   1.718   0.026  0.00  0.00     0.101 A 
HETATM    9  F   UNK N   1       0.419   3.791  -0.623  0.00  0.00    -0.201 F 
HETATM   10  N   UNK N   1      -1.798   2.073  -0.031  0.00  0.00    -0.348 N 
ATOM     11  HN  UNK N   1      -2.186   2.985  -0.270  1.00  0.00     0.167 HD
HETATM   12  N   UNK N   1      -1.624  -0.082   0.549  0.00  0.00    -0.345 N 
ENDROOT
BRANCH   4  13
HETATM   13  C   UNK N   1       3.330  -0.155   0.323  0.00  0.00     0.172 C 
HETATM   14  N   UNK N   1       3.385  -1.442   0.458  0.00  0.00    -0.244 N 
ATOM     15  HN  UNK N   1       2.510  -1.955   0.562  1.00  0.00     0.196 HD
BRANCH  14  16
HETATM   16  O   UNK N   1       4.522  -2.127   0.467  0.00  0.00    -0.276 OA
BRANCH  16  17
HETATM   17  C   UNK N   1       5.569  -1.847  -0.389  0.00  0.00     0.227 C 
BRANCH  17  18
HETATM   18  C   UNK N   1       6.795  -1.455   0.412  0.00  0.00     0.192 C 
BRANCH  18  19
HETATM   19  O   UNK N   1       7.262  -0.215  -0.026  0.00  0.00    -0.399 OA
HETATM   20  H   UNK N   1       8.170  -0.065  -0.331  0.00  0.00     0.209 HD
ENDBRANCH  18  19
ENDBRANCH  17  18
ENDBRANCH  16  17
ENDBRANCH  14  16
BRANCH  13  21
HETATM   21  O   UNK N   1       4.468   0.565   0.242  0.00  0.00    -0.344 OA
HETATM   22  H   UNK N   1       5.296   0.130   0.185  0.00  0.00     0.219 HD
ENDBRANCH  13  21
ENDBRANCH   4  13
BRANCH   7  23
HETATM   23  N   UNK N   1       3.094   2.676  -0.330  0.00  0.00    -0.352 N 
HETATM   24  H   UNK N   1       3.872   2.160  -0.643  0.00  0.00     0.166 HD
BRANCH  23  25
HETATM   25  C   UNK N   1       3.296   4.077  -0.176  0.00  0.00     0.054 A 
HETATM   26  C   UNK N   1       2.429   4.863   0.598  0.00  0.00     0.032 A 
HETATM   27  C   UNK N   1       2.632   6.238   0.719  0.00  0.00     0.021 A 
HETATM   28  C   UNK N   1       3.717   6.840   0.083  0.00  0.00     0.012 A 
HETATM   29  C   UNK N   1       4.613   6.062  -0.655  0.00  0.00     0.045 A 
HETATM   30 Br   UNK N   1       3.966   8.723   0.209  0.00  0.00    -0.051 Br
HETATM   31  C   UNK N   1       4.412   4.684  -0.780  0.00  0.00     0.062 A 
HETATM   32 Cl   UNK N   1       5.559   3.735  -1.711  0.00  0.00    -0.082 Cl
ENDBRANCH  23  25
ENDBRANCH   7  23
TORSDOF 8
