REMARK  3 active torsions:
REMARK  status: ('A' for Active; 'I' for Inactive)
REMARK    1  A    between atoms: C_18  and  C_15 
REMARK    2  A    between atoms: N_31  and  C_15 
REMARK    3  A    between atoms: O_34  and  C_27 
ROOT
HETATM    1  C   UNK N   1      12.381   3.426  -0.379  0.00  0.00     0.001 A 
HETATM    2  C   UNK N   1       1.885   3.311   0.591  0.00  0.00     0.001 A 
HETATM    3  C   UNK N   1      12.796   2.123  -0.031  0.00  0.00     0.002 A 
HETATM    4  C   UNK N   1       1.480   1.982   0.341  0.00  0.00     0.002 A 
HETATM    5  C   UNK N   1      11.020   3.778  -0.330  0.00  0.00     0.014 A 
HETATM    6  C   UNK N   1       3.229   3.691   0.421  0.00  0.00     0.014 A 
HETATM    7  C   UNK N   1      11.853   1.162   0.369  0.00  0.00     0.030 A 
HETATM    8  C   UNK N   1       2.416   1.021  -0.081  0.00  0.00     0.030 A 
HETATM    9  C   UNK N   1       9.191  -1.452  -0.153  0.00  0.00     0.054 C 
HETATM   10  C   UNK N   1       9.478  -0.628   1.100  0.00  0.00     0.131 C 
HETATM   11  C   UNK N   1       4.783  -0.724  -0.998  0.00  0.00     0.154 C 
HETATM   12  C   UNK N   1       5.542  -1.577   0.011  0.00  0.00     0.188 C 
HETATM   13  C   UNK N   1       8.354   1.553   0.620  0.00  0.00     0.104 A 
HETATM   14  C   UNK N   1       5.872   1.489  -0.631  0.00  0.00     0.104 A 
HETATM   15  C   UNK N   1       7.790  -2.061  -0.204  0.00  0.00     0.151 C 
HETATM   16  C   UNK N   1      10.102   2.810   0.074  0.00  0.00     0.003 A 
HETATM   17  C   UNK N   1       4.138   2.721   0.001  0.00  0.00     0.003 A 
HETATM   18  C   UNK N   1       8.716   2.834   0.198  0.00  0.00     0.007 A 
HETATM   19  C   UNK N   1       5.506   2.772  -0.237  0.00  0.00     0.009 A 
HETATM   20  C   UNK N   1      10.513   1.545   0.409  0.00  0.00     0.045 A 
HETATM   21  C   UNK N   1       3.740   1.430  -0.237  0.00  0.00     0.045 A 
HETATM   22  C   UNK N   1       7.772   3.980  -0.031  0.00  0.00     0.044 A 
HETATM   23  C   UNK N   1       6.422   3.948  -0.164  0.00  0.00     0.060 A 
HETATM   24  C   UNK N   1       8.136   5.416  -0.100  0.00  0.00     0.155 A 
HETATM   25  C   UNK N   1       6.022   5.355  -0.291  0.00  0.00     0.259 A 
HETATM   26  N   UNK N   1       7.098   6.152  -0.248  0.00  0.00    -0.303 N 
ATOM     27  HN  UNK N   1       7.092   7.169  -0.320  1.00  0.00     0.171 HD
HETATM   28  N   UNK N   1       9.458   0.785   0.739  0.00  0.00    -0.355 N 
HETATM   29  N   UNK N   1       4.789   0.685  -0.621  0.00  0.00    -0.353 N 
HETATM   30  O   UNK N   1       4.890   5.777  -0.465  0.00  0.00    -0.267 OA
HETATM   31  O   UNK N   1       6.846  -1.100   0.227  0.00  0.00    -0.382 OA
ENDROOT
BRANCH  15  32
HETATM   32  C   UNK N   1       7.776  -3.333   0.656  0.00  0.00     0.303 C 
BRANCH  32  33
HETATM   33  N   UNK N   1       6.743  -4.249   0.191  0.00  0.00     0.082 N 
HETATM   34  C   UNK N   1       7.396  -5.503  -0.137  0.00  0.00     0.309 C 
HETATM   35  C   UNK N   1       5.841  -4.513   1.297  0.00  0.00     0.309 C 
ENDBRANCH  32  33
ENDBRANCH  15  32
BRANCH  24  36
HETATM   36  O   UNK N   1       9.372   5.936   0.004  0.00  0.00    -0.345 OA
HETATM   37  H   UNK N   1      10.116   5.372   0.076  0.00  0.00     0.219 HD
ENDBRANCH  24  36
TORSDOF 3
