REMARK  3 active torsions:
REMARK  status: ('A' for Active; 'I' for Inactive)
REMARK    1  A    between atoms: N_7  and  C_8 
REMARK    2  A    between atoms: C_12  and  C_28 
REMARK       I    between atoms: C_18  and  N_21 
REMARK    3  A    between atoms: C_32  and  C_34 
REMARK       I    between atoms: C_34  and  N_36 
ROOT
HETATM    1  C   UNK N   1       0.999   0.888  -0.119  0.00  0.00     0.133 A 
HETATM    2  C   UNK N   1       2.270   0.231  -0.061  0.00  0.00     0.053 A 
HETATM    3  C   UNK N   1       3.516   0.892  -0.042  0.00  0.00     0.021 A 
HETATM    4  C   UNK N   1       4.715   0.166   0.005  0.00  0.00     0.031 A 
HETATM    5  C   UNK N   1       4.659  -1.232   0.039  0.00  0.00     0.044 A 
HETATM    6  N   UNK N   1       3.450  -1.846   0.037  0.00  0.00    -0.341 N 
ATOM      7  HN  UNK N   1       3.422  -2.865   0.071  1.00  0.00     0.167 HD
HETATM    8  C   UNK N   1       2.284  -1.172  -0.009  0.00  0.00     0.135 A 
HETATM    9  N   UNK N   1       1.135  -1.870   0.002  0.00  0.00    -0.175 N 
ATOM     10  HN  UNK N   1       1.174  -2.888   0.053  1.00  0.00     0.186 HD
HETATM   11  C   UNK N   1      -0.068  -1.261  -0.053  0.00  0.00     0.684 A 
HETATM   12  N   UNK N   1      -0.128   0.102  -0.123  0.00  0.00    -0.176 N 
ATOM     13  HN  UNK N   1      -1.041   0.553  -0.180  1.00  0.00     0.186 HD
HETATM   14  N   UNK N   1      -1.250  -2.066  -0.009  0.00  0.00    -0.209 N 
HETATM   15  C   UNK N   1      -1.074  -3.510   0.153  0.00  0.00     0.168 C 
HETATM   16  C   UNK N   1      -2.395  -4.266   0.212  0.00  0.00     0.188 C 
HETATM   17  O   UNK N   1      -3.272  -3.722  -0.729  0.00  0.00    -0.388 OA
HETATM   18  C   UNK N   1      -3.693  -2.527  -0.140  0.00  0.00     0.193 C 
HETATM   19  C   UNK N   1      -2.578  -1.476  -0.198  0.00  0.00     0.122 C 
HETATM   20  C   UNK N   1      -2.880  -0.449   0.875  0.00  0.00     0.035 C 
ENDROOT
BRANCH   5  21
HETATM   21  C   UNK N   1       5.857  -2.088   0.053  0.00  0.00    -0.009 A 
HETATM   22  C   UNK N   1       7.165  -1.585   0.049  0.00  0.00     0.014 A 
HETATM   23  C   UNK N   1       8.250  -2.475   0.040  0.00  0.00     0.002 A 
HETATM   24  C   UNK N   1       8.030  -3.862   0.029  0.00  0.00     0.017 A 
HETATM   25  C   UNK N   1       6.719  -4.363   0.031  0.00  0.00     0.032 A 
HETATM   26  C   UNK N   1       5.656  -3.469   0.044  0.00  0.00     0.030 A 
BRANCH  25  27
HETATM   27  C   UNK N   1       6.428  -5.812   0.011  0.00  0.00     0.251 C 
HETATM   28  O   UNK N   1       7.343  -6.623  -0.010  0.00  0.00    -0.268 OA
HETATM   29  N   UNK N   1       5.137  -6.234   0.013  0.00  0.00    -0.361 N 
HETATM   30  C   UNK N   1       4.778  -7.628  -0.010  0.00  0.00     0.149 C 
HETATM   31  H   UNK N   1       4.419  -5.560   0.030  0.00  0.00     0.162 HD
ENDBRANCH  25  27
ENDBRANCH   5  21
BRANCH   1  32
HETATM   32  N   UNK N   1       0.858   2.333  -0.141  0.00  0.00    -0.358 N 
HETATM   33  C   UNK N   1       2.031   3.175  -0.345  0.00  0.00     0.151 C 
HETATM   34  C   UNK N   1       1.800   4.591   0.157  0.00  0.00     0.187 C 
HETATM   35  O   UNK N   1       0.655   5.096  -0.463  0.00  0.00    -0.388 OA
HETATM   36  C   UNK N   1      -0.408   4.449   0.173  0.00  0.00     0.192 C 
HETATM   37  C   UNK N   1      -0.473   2.965  -0.221  0.00  0.00     0.105 C 
HETATM   38  C   UNK N   1      -1.469   2.359   0.750  0.00  0.00     0.034 C 
ENDBRANCH   1  32
TORSDOF 3
