REMARK  9 active torsions:
REMARK  status: ('A' for Active; 'I' for Inactive)
REMARK    1  A    between atoms: C_3  and  C_15 
REMARK    2  A    between atoms: C_5  and  O_7 
REMARK    3  A    between atoms: O_7  and  C_8 
REMARK    4  A    between atoms: C_8  and  C_9 
REMARK    5  A    between atoms: C_9  and  C_10 
REMARK    6  A    between atoms: C_15  and  N_16 
REMARK    7  A    between atoms: N_16  and  C_17 
REMARK    8  A    between atoms: C_17  and  C_18 
REMARK    9  A    between atoms: C_18  and  C_19 
ROOT
HETATM    1  C   UNK N   1      -3.674  -1.759  -0.823  0.00  0.00     0.152 C 
ENDROOT
BRANCH   1   2
HETATM    2  C   UNK N   1      -4.640  -0.708  -0.334  0.00  0.00    -0.038 A 
HETATM    3  C   UNK N   1      -4.323   0.659  -0.363  0.00  0.00     0.009 A 
HETATM    4  C   UNK N   1      -5.206   1.603   0.156  0.00  0.00     0.003 A 
HETATM    5  C   UNK N   1      -6.421   1.193   0.697  0.00  0.00     0.037 A 
HETATM    6  C   UNK N   1      -6.770  -0.160   0.709  0.00  0.00     0.069 A 
HETATM    7  C   UNK N   1      -5.871  -1.114   0.196  0.00  0.00     0.045 A 
BRANCH   6   8
HETATM    8  O   UNK N   1      -7.977  -0.508   1.210  0.00  0.00    -0.345 OA
BRANCH   8   9
HETATM    9  C   UNK N   1      -8.590  -1.727   1.012  0.00  0.00     0.260 C 
BRANCH   9  10
HETATM   10  C   UNK N   1      -9.173  -1.831  -0.403  0.00  0.00     0.322 C 
HETATM   11  F   UNK N   1      -8.317  -2.569  -1.200  0.00  0.00    -0.198 F 
HETATM   12  F   UNK N   1      -9.329  -0.573  -0.965  0.00  0.00    -0.198 F 
BRANCH  10  13
HETATM   13  C   UNK N   1     -10.539  -2.503  -0.361  0.00  0.00     0.426 C 
HETATM   14  F   UNK N   1     -11.420  -1.751   0.397  0.00  0.00    -0.208 F 
HETATM   15  F   UNK N   1     -10.448  -3.780   0.163  0.00  0.00    -0.208 F 
ENDBRANCH  10  13
ENDBRANCH   9  10
ENDBRANCH   8   9
ENDBRANCH   6   8
ENDBRANCH   1   2
BRANCH   1  16
HETATM   16  N   UNK N   1      -2.435  -1.230  -1.409  0.00  0.00    -0.417 N 
HETATM   17  H   UNK N   1      -2.136  -1.403  -2.369  0.00  0.00     0.153 HD
BRANCH  16  18
HETATM   18  C   UNK N   1      -1.681  -0.424  -0.446  0.00  0.00     0.118 C 
BRANCH  18  19
HETATM   19  C   UNK N   1      -1.220  -1.238   0.751  0.00  0.00     0.060 C 
BRANCH  19  20
HETATM   20  C   UNK N   1       0.144  -1.770   0.502  0.00  0.00    -0.029 A 
HETATM   21  C   UNK N   1       0.498  -3.110   0.436  0.00  0.00     0.096 A 
HETATM   22  N   UNK N   1       1.829  -3.213   0.188  0.00  0.00    -0.365 N 
HETATM   23  C   UNK N   1       2.292  -1.953   0.104  0.00  0.00     0.045 A 
HETATM   24  H   UNK N   1       2.351  -4.043   0.089  0.00  0.00     0.165 HD
HETATM   25  C   UNK N   1       1.291  -1.047   0.294  0.00  0.00    -0.002 A 
HETATM   26  C   UNK N   1       3.603  -1.557  -0.143  0.00  0.00     0.072 A 
HETATM   27  C   UNK N   1       1.519   0.327   0.254  0.00  0.00     0.017 A 
HETATM   28  C   UNK N   1       2.834   0.763   0.006  0.00  0.00     0.043 A 
HETATM   29  C   UNK N   1       3.872  -0.176  -0.193  0.00  0.00     0.118 A 
HETATM   30  F   UNK N   1       5.133   0.255  -0.435  0.00  0.00    -0.206 F 
ENDBRANCH  19  20
ENDBRANCH  18  19
ENDBRANCH  16  18
ENDBRANCH   1  16
TORSDOF 9
