REMARK  9 active torsions:
REMARK  status: ('A' for Active; 'I' for Inactive)
REMARK    1  A    between atoms: C_2  and  N_3 
REMARK       I    between atoms: N_3  and  C_4 
REMARK    2  A    between atoms: C_4  and  C_6 
REMARK    3  A    between atoms: C_7  and  C_24 
REMARK    4  A    between atoms: C_8  and  C_12 
REMARK    5  A    between atoms: C_14  and  C_20 
REMARK    6  A    between atoms: C_15  and  O_19 
REMARK    7  A    between atoms: C_17  and  O_18 
REMARK    8  A    between atoms: C_27  and  C_30 
REMARK    9  A    between atoms: C_30  and  N_31 
ROOT
HETATM    1  C   UNK N   1       2.894  -1.961  -0.302  0.00  0.00     0.136 A 
HETATM    2  C   UNK N   1       4.086  -2.688  -0.222  0.00  0.00     0.045 A 
HETATM    3  C   UNK N   1       3.667  -4.037  -0.280  0.00  0.00     0.125 A 
HETATM    4  O   UNK N   1       2.353  -4.031  -0.373  0.00  0.00    -0.235 OA
HETATM    5  N   UNK N   1       1.868  -2.827  -0.388  0.00  0.00    -0.254 N 
ATOM      6  HN  UNK N   1       0.881  -2.580  -0.454  1.00  0.00     0.195 HD
ENDROOT
BRANCH   3   7
HETATM    7  C   UNK N   1       4.426  -5.337  -0.188  0.00  0.00     0.035 A 
HETATM    8  C   UNK N   1       5.826  -5.377  -0.101  0.00  0.00     0.028 A 
HETATM    9  C   UNK N   1       6.543  -6.589  -0.030  0.00  0.00    -0.016 A 
HETATM   10  C   UNK N   1       5.818  -7.797  -0.030  0.00  0.00     0.075 A 
HETATM   11  C   UNK N   1       4.428  -7.777  -0.100  0.00  0.00     0.074 A 
HETATM   12  C   UNK N   1       3.730  -6.571  -0.180  0.00  0.00     0.081 A 
BRANCH   9  13
HETATM   13  C   UNK N   1       8.070  -6.598   0.028  0.00  0.00    -0.021 C 
HETATM   14  C   UNK N   1       8.549  -7.298   1.287  0.00  0.00     0.019 C 
HETATM   15  C   UNK N   1       8.679  -5.210   0.036  0.00  0.00     0.019 C 
HETATM   16  C   UNK N   1       8.631  -7.322  -1.184  0.00  0.00     0.019 C 
ENDBRANCH   9  13
BRANCH  10  17
HETATM   17  O   UNK N   1       6.452  -8.982   0.035  0.00  0.00    -0.360 OA
HETATM   18  H   UNK N   1       5.959  -9.777   0.080  0.00  0.00     0.217 HD
ENDBRANCH  10  17
BRANCH  12  19
HETATM   19  O   UNK N   1       2.388  -6.613  -0.245  0.00  0.00    -0.360 OA
HETATM   20  H   UNK N   1       1.895  -5.817  -0.291  0.00  0.00     0.217 HD
ENDBRANCH  12  19
ENDBRANCH   3   7
BRANCH   2  21
HETATM   21  C   UNK N   1       5.455  -2.123  -0.046  0.00  0.00    -0.021 A 
HETATM   22  C   UNK N   1       5.647  -0.948   0.702  0.00  0.00     0.013 A 
HETATM   23  C   UNK N   1       6.933  -0.462   0.964  0.00  0.00     0.010 A 
HETATM   24  C   UNK N   1       8.045  -1.148   0.475  0.00  0.00    -0.030 A 
HETATM   25  C   UNK N   1       7.854  -2.294  -0.304  0.00  0.00     0.010 A 
HETATM   26  C   UNK N   1       6.574  -2.773  -0.555  0.00  0.00     0.013 A 
BRANCH  24  27
HETATM   27  C   UNK N   1       9.429  -0.684   0.826  0.00  0.00     0.311 C 
BRANCH  27  28
HETATM   28  N   UNK N   1      10.420  -1.690   0.459  0.00  0.00     0.096 N 
HETATM   29  C   UNK N   1      11.717  -1.049   0.249  0.00  0.00     0.299 C 
HETATM   30  C   UNK N   1      12.801  -2.122   0.031  0.00  0.00     0.198 C 
HETATM   31  O   UNK N   1      12.231  -3.411  -0.020  0.00  0.00    -0.388 OA
HETATM   32  C   UNK N   1      11.678  -3.655   1.253  0.00  0.00     0.198 C 
HETATM   33  C   UNK N   1      10.524  -2.679   1.538  0.00  0.00     0.299 C 
ENDBRANCH  27  28
ENDBRANCH  24  27
ENDBRANCH   2  21
BRANCH   1  34
HETATM   34  C   UNK N   1       2.678  -0.493  -0.348  0.00  0.00     0.271 C 
HETATM   35  N   UNK N   1       1.420  -0.000  -0.244  0.00  0.00    -0.356 N 
HETATM   36  H   UNK N   1       0.666  -0.627  -0.153  0.00  0.00     0.162 HD
HETATM   37  O   UNK N   1       3.618   0.272  -0.506  0.00  0.00    -0.266 OA
BRANCH  35  38
HETATM   38  C   UNK N   1       1.156   1.418  -0.263  0.00  0.00     0.118 C 
HETATM   39  C   UNK N   1       0.165   1.741  -1.360  0.00  0.00     0.026 C 
ENDBRANCH  35  38
ENDBRANCH   1  34
TORSDOF 9
