REMARK  9 active torsions:
REMARK  status: ('A' for Active; 'I' for Inactive)
REMARK    1  A    between atoms: C_9  and  O_12 
REMARK    2  A    between atoms: O_12  and  C_13 
REMARK    3  A    between atoms: C_16  and  O_24 
REMARK    4  A    between atoms: O_24  and  C_25 
REMARK    5  A    between atoms: C_25  and  C_26 
REMARK    6  A    between atoms: C_26  and  O_28 
REMARK    7  A    between atoms: O_28  and  C_29 
REMARK    8  A    between atoms: C_29  and  C_31 
REMARK    9  A    between atoms: C_31  and  N_33 
ROOT
HETATM    1  C   UNK N   1      -5.961   0.418   0.289  0.00  0.00     0.178 A 
HETATM    2  C   UNK N   1      -4.652   0.549  -0.150  0.00  0.00     0.116 A 
HETATM    3  C   UNK N   1      -3.863   1.669  -0.296  0.00  0.00     0.006 A 
HETATM    4  C   UNK N   1      -2.671   1.210  -0.857  0.00  0.00     0.094 A 
HETATM    5  C   UNK N   1      -2.773  -0.165  -1.017  0.00  0.00     0.154 A 
HETATM    6  N   UNK N   1      -3.985  -0.532  -0.573  0.00  0.00    -0.259 N 
HETATM    7  N   UNK N   1      -4.507  -1.756  -0.572  0.00  0.00    -0.289 N 
ATOM      8  HN  UNK N   1      -3.960  -2.555  -0.894  1.00  0.00     0.188 HD
HETATM    9  C   UNK N   1      -5.785  -1.921  -0.133  0.00  0.00     0.200 A 
HETATM   10  N   UNK N   1      -6.507  -0.836   0.275  0.00  0.00    -0.330 N 
ATOM     11  HN  UNK N   1      -7.474  -0.963   0.575  1.00  0.00     0.168 HD
HETATM   12  C   UNK N   1      -4.237   3.075   0.037  0.00  0.00     0.054 C 
ENDROOT
BRANCH   1  13
HETATM   13  O   UNK N   1      -6.689   1.518   0.616  0.00  0.00    -0.288 OA
BRANCH  13  14
HETATM   14  C   UNK N   1      -8.032   1.578   0.459  0.00  0.00     0.117 A 
HETATM   15  C   UNK N   1      -8.551   2.598  -0.371  0.00  0.00     0.043 A 
HETATM   16  C   UNK N   1      -9.916   2.637  -0.699  0.00  0.00     0.033 A 
HETATM   17  C   UNK N   1     -10.731   1.638  -0.181  0.00  0.00     0.045 A 
HETATM   18  C   UNK N   1     -10.250   0.671   0.658  0.00  0.00     0.034 A 
HETATM   19  N   UNK N   1     -12.038   1.460  -0.420  0.00  0.00    -0.359 N 
HETATM   20  C   UNK N   1     -11.293  -0.165   0.981  0.00  0.00     0.041 A 
HETATM   21  C   UNK N   1      -8.910   0.615   1.022  0.00  0.00     0.162 A 
HETATM   22  C   UNK N   1     -12.379   0.357   0.286  0.00  0.00     0.006 A 
HETATM   23  C   UNK N   1     -13.743  -0.232   0.277  0.00  0.00     0.068 C 
HETATM   24  F   UNK N   1      -8.472  -0.357   1.860  0.00  0.00    -0.202 F 
HETATM   25  H   UNK N   1     -12.623   2.013  -0.987  0.00  0.00     0.166 HD
ENDBRANCH  13  14
ENDBRANCH   1  13
BRANCH   4  26
HETATM   26  O   UNK N   1      -1.589   1.934  -1.216  0.00  0.00    -0.347 OA
BRANCH  26  27
HETATM   27  C   UNK N   1      -1.352   3.217  -0.779  0.00  0.00     0.207 C 
BRANCH  27  28
HETATM   28  C   UNK N   1      -0.763   3.161   0.629  0.00  0.00     0.152 C 
HETATM   29  C   UNK N   1      -0.216   4.513   1.048  0.00  0.00     0.042 C 
BRANCH  28  30
HETATM   30  O   UNK N   1       0.191   2.159   0.725  0.00  0.00    -0.313 OA
BRANCH  30  31
HETATM   31  C   UNK N   1       1.306   2.071  -0.052  0.00  0.00     0.281 C 
HETATM   32  O   UNK N   1       1.629   2.995  -0.786  0.00  0.00    -0.263 OA
BRANCH  31  33
HETATM   33  C   UNK N   1       2.113   0.806  -0.065  0.00  0.00     0.170 C 
HETATM   34  C   UNK N   1       3.537   1.076   0.378  0.00  0.00     0.042 C 
BRANCH  33  35
HETATM   35  N   UNK N   1       1.519  -0.201   0.798  0.00  0.00    -0.418 N 
HETATM   36  H   UNK N   1       0.698  -0.193   1.404  0.00  0.00     0.150 HD
HETATM   37  H   UNK N   1       2.020  -1.089   0.798  0.00  0.00     0.150 HD
ENDBRANCH  33  35
ENDBRANCH  31  33
ENDBRANCH  30  31
ENDBRANCH  28  30
ENDBRANCH  27  28
ENDBRANCH  26  27
ENDBRANCH   4  26
TORSDOF 9
