REMARK  2 active torsions:
REMARK  status: ('A' for Active; 'I' for Inactive)
REMARK    1  A    between atoms: C_3  and  C_10 
REMARK    2  A    between atoms: C_3  and  O_17 
ROOT
HETATM    1  C   UNK N   1       2.487  -1.809   1.328  0.00  0.00     0.038 C 
HETATM    2  C   UNK N   1       1.097  -1.457   0.818  0.00  0.00     0.141 C 
HETATM    3  C   UNK N   1       0.020  -2.582   0.751  0.00  0.00     0.211 C 
HETATM    4  O   UNK N   1      -1.105  -2.162  -0.028  0.00  0.00    -0.347 OA
HETATM    5  C   UNK N   1      -1.337  -0.779   0.137  0.00  0.00     0.201 C 
HETATM    6  C   UNK N   1      -0.191   0.039  -0.498  0.00  0.00     0.040 C 
HETATM    7  N   UNK N   1       1.102  -0.665  -0.405  0.00  0.00    -0.402 N 
HETATM    8  C   UNK N   1      -0.504   0.301  -1.956  0.00  0.00     0.040 C 
HETATM    9  C   UNK N   1      -0.100   1.372   0.222  0.00  0.00     0.040 C 
HETATM   10  H   UNK N   1       1.866  -0.608  -1.079  0.00  0.00     0.154 HD
ENDROOT
BRANCH   3  11
HETATM   11  C   UNK N   1       0.495  -3.899   0.153  0.00  0.00     0.007 A 
HETATM   12  C   UNK N   1       1.787  -4.068  -0.381  0.00  0.00     0.013 A 
HETATM   13  C   UNK N   1       2.189  -5.307  -0.888  0.00  0.00     0.002 A 
HETATM   14  C   UNK N   1       1.310  -6.391  -0.868  0.00  0.00     0.024 A 
HETATM   15  C   UNK N   1       0.023  -6.236  -0.348  0.00  0.00     0.034 A 
HETATM   16  C   UNK N   1      -0.380  -4.996   0.155  0.00  0.00     0.036 A 
HETATM   17 Cl   UNK N   1      -1.078  -7.595  -0.313  0.00  0.00    -0.084 Cl
ENDBRANCH   3  11
BRANCH   3  18
HETATM   18  O   UNK N   1      -0.399  -2.837   2.060  0.00  0.00    -0.360 OA
HETATM   19  H   UNK N   1      -0.698  -2.674   2.968  0.00  0.00     0.213 HD
ENDBRANCH   3  18
TORSDOF 2
