REMARK WARNING: 32 MAX_TORS EXCEEDED!!!
REMARK  46 active torsions:
REMARK  status: ('A' for Active; 'I' for Inactive)
REMARK    1  A    between atoms: C_12  and  C_11 
REMARK    2  A    between atoms: C_19  and  C_11 
REMARK    3  A    between atoms: C_21  and  C_12 
REMARK    4  A    between atoms: C_43  and  C_19 
REMARK    5  A    between atoms: C_22  and  C_20 
REMARK    6  A    between atoms: C_41  and  C_20 
REMARK    7  A    between atoms: N_63  and  C_21 
REMARK    8  A    between atoms: N_81  and  C_22 
REMARK    9  A    between atoms: C_24  and  C_23 
REMARK   10  A    between atoms: N_81  and  C_23 
REMARK   11  A    between atoms: N_82  and  C_24 
REMARK   12  A    between atoms: C_37  and  C_25 
REMARK   13  A    between atoms: C_44  and  C_25 
REMARK   14  A    between atoms: C_38  and  C_26 
REMARK   15  A    between atoms: C_45  and  C_26 
REMARK   16  A    between atoms: C_39  and  C_27 
REMARK   17  A    between atoms: C_46  and  C_27 
REMARK   18  A    between atoms: C_50  and  C_29 
REMARK   19  A    between atoms: N_82  and  C_29 
REMARK   20  A    between atoms: C_51  and  C_30 
REMARK   21  A    between atoms: N_81  and  C_30 
REMARK   22  A    between atoms: C_52  and  C_31 
REMARK   23  A    between atoms: N_82  and  C_31 
REMARK   24  A    between atoms: C_47  and  C_32 
REMARK   25  A    between atoms: O_83  and  C_32 
REMARK   26  A    between atoms: C_47  and  C_35 
REMARK   27  A    between atoms: O_84  and  C_35 
REMARK   28  A    between atoms: C_53  and  C_36 
REMARK   29  A    between atoms: O_85  and  C_36 
REMARK   30  A    between atoms: C_61  and  C_41 
REMARK   31  A    between atoms: C_62  and  C_41 
REMARK   32  A    between atoms: C_55  and  C_44 
REMARK   33  A    between atoms: N_65  and  C_44 
REMARK   34  A    between atoms: N_73  and  C_47 
REMARK   35  A    between atoms: N_75  and  C_48 
REMARK   36  A    between atoms: C_59  and  C_49 
REMARK   37  A    between atoms: O_86  and  C_50 
REMARK   38  A    between atoms: O_92  and  C_54 
REMARK   39  A    between atoms: O_94  and  C_55 
REMARK   40  A    between atoms: O_95  and  C_56 
REMARK   41  A    between atoms: O_96  and  C_57 
REMARK   42  A    between atoms: O_97  and  C_58 
REMARK   43  A    between atoms: O_98  and  C_59 
REMARK   44  A    between atoms: O_101  and  C_61 
REMARK   45  A    between atoms: O_103  and  C_62 
REMARK   46  A    between atoms: In_106  and  In_106 
ROOT
HETATM    1  C   UNK N   1      -0.382   2.917   0.255  0.00  0.00     0.119 C 
HETATM    2  C   UNK N   1       1.703   0.066   2.034  0.00  0.00     0.119 C 
HETATM    3  C   UNK N   1       3.555  -5.501  -0.042  0.00  0.00     0.158 C 
HETATM    4  C   UNK N   1      -1.491  -0.962  -0.299  0.00  0.00     0.162 C 
HETATM    5  C   UNK N   1       0.355  -3.932   1.195  0.00  0.00     0.162 C 
HETATM    6  C   UNK N   1      -1.650   2.085   0.207  0.00  0.00     0.168 C 
HETATM    7  C   UNK N   1       2.987  -0.530   1.452  0.00  0.00     0.168 C 
HETATM    8  C   UNK N   1       4.162  -2.614  -0.233  0.00  0.00     0.186 C 
HETATM    9  C   UNK N   1       4.016  -4.795  -1.292  0.00  0.00     0.135 C 
HETATM   10  C   UNK N   1      -0.996  -2.377  -0.093  0.00  0.00     0.135 C 
HETATM   11  C   UNK N   1       1.355  -4.536   0.251  0.00  0.00     0.135 C 
HETATM   12  C   UNK N   1      -1.654   0.972   1.245  0.00  0.00     0.136 C 
HETATM   13  C   UNK N   1       3.447  -1.386  -0.765  0.00  0.00     0.138 C 
HETATM   14  N   UNK N   1       2.526  -4.812   0.707  0.00  0.00    -0.361 N 
ATOM     15  HN  UNK N   1       2.744  -4.526   1.661  1.00  0.00     0.162 HD
HETATM   16  N   UNK N   1      -1.589  -0.298   0.990  0.00  0.00    -0.360 N 
ATOM     17  HN  UNK N   1      -1.610  -0.914   1.803  1.00  0.00     0.162 HD
HETATM   18  N   UNK N   1      -0.115  -2.611   0.823  0.00  0.00    -0.360 N 
ATOM     19  HN  UNK N   1       0.277  -1.811   1.320  1.00  0.00     0.162 HD
HETATM   20  N   UNK N   1       2.954  -0.481   0.010  0.00  0.00    -0.360 N 
ATOM     21  HN  UNK N   1       2.510   0.327  -0.427  1.00  0.00     0.162 HD
HETATM   22  N   UNK N   1       4.340  -3.549  -1.325  0.00  0.00    -0.358 N 
ATOM     23  HN  UNK N   1       4.754  -3.192  -2.186  1.00  0.00     0.162 HD
HETATM   24  O   UNK N   1       3.299  -1.237  -2.097  0.00  0.00    -0.348 OA
HETATM   25  S   UNK N   1       1.101   1.949  -0.133  0.00  0.00    -0.095 SA
HETATM   26  S   UNK N   1       1.678   1.889   1.921  0.00  0.00    -0.095 SA
HETATM   27  H   UNK N   1       3.338  -1.096  -3.023  0.00  0.00     0.219 HD
ENDROOT
BRANCH   8  28
HETATM   28  C   UNK N   1       5.502  -2.263   0.433  0.00  0.00     0.144 C 
HETATM   29  C   UNK N   1       6.646  -2.116  -0.559  0.00  0.00     0.042 C 
BRANCH  28  30
HETATM   30  O   UNK N   1       5.842  -3.211   1.393  0.00  0.00    -0.393 OA
HETATM   31  H   UNK N   1       5.388  -3.747   2.062  0.00  0.00     0.210 HD
ENDBRANCH  28  30
ENDBRANCH   8  28
BRANCH   7  32
HETATM   32  C   UNK N   1       4.253   0.019   2.105  0.00  0.00     0.136 C 
HETATM   33  N   UNK N   1       5.095   0.810   1.516  0.00  0.00    -0.364 N 
ATOM     34  HN  UNK N   1       5.941   1.065   2.026  1.00  0.00     0.162 HD
BRANCH  33  35
HETATM   35  C   UNK N   1       4.922   1.357   0.187  0.00  0.00     0.135 C 
BRANCH  35  36
HETATM   36  C   UNK N   1       5.977   0.816  -0.769  0.00  0.00     0.191 C 
BRANCH  36  37
HETATM   37  O   UNK N   1       7.262   1.140  -0.331  0.00  0.00    -0.399 OA
HETATM   38  H   UNK N   1       7.904   0.480  -0.026  0.00  0.00     0.209 HD
ENDBRANCH  36  37
ENDBRANCH  35  36
BRANCH  35  39
HETATM   39  C   UNK N   1       4.980   2.875   0.216  0.00  0.00     0.138 C 
HETATM   40  C   UNK N   1       4.494   3.424  -1.112  0.00  0.00     0.041 C 
BRANCH  39  41
HETATM   41  O   UNK N   1       4.184   3.377   1.242  0.00  0.00    -0.394 OA
HETATM   42  H   UNK N   1       4.209   4.032   1.956  0.00  0.00     0.210 HD
ENDBRANCH  39  41
ENDBRANCH  35  39
ENDBRANCH  33  35
BRANCH  32  43
HETATM   43  O   UNK N   1       4.505  -0.352   3.374  0.00  0.00    -0.348 OA
HETATM   44  H   UNK N   1       4.369  -0.634   4.258  0.00  0.00     0.219 HD
ENDBRANCH  32  43
ENDBRANCH   7  32
BRANCH   9  45
HETATM   45  O   UNK N   1       4.138  -5.524  -2.416  0.00  0.00    -0.348 OA
ATOM     46  HO  UNK N   1       4.428  -5.079  -3.204  1.00  0.00     0.219 HD
ENDBRANCH   9  45
BRANCH   3  47
HETATM   47  C   UNK N   1       4.750  -5.798   0.852  0.00  0.00     0.033 C 
BRANCH  47  48
HETATM   48  C   UNK N   1       4.414  -6.778   1.974  0.00  0.00     0.004 C 
BRANCH  48  49
HETATM   49  C   UNK N   1       3.769  -8.071   1.469  0.00  0.00     0.019 C 
BRANCH  49  50
HETATM   50  C   UNK N   1       4.544  -8.717   0.326  0.00  0.00     0.111 C 
BRANCH  50  51
HETATM   51  N   UNK N   1       5.866  -9.117   0.769  0.00  0.00    -0.430 N 
HETATM   52  H   UNK N   1       6.087 -10.063   1.081  0.00  0.00     0.149 HD
HETATM   53  H   UNK N   1       6.610  -8.420   0.769  0.00  0.00     0.149 HD
ENDBRANCH  50  51
ENDBRANCH  49  50
ENDBRANCH  48  49
ENDBRANCH  47  48
ENDBRANCH   3  47
BRANCH  11  54
HETATM   54  O   UNK N   1       1.008  -4.851  -1.015  0.00  0.00    -0.348 OA
HETATM   55  H   UNK N   1       0.698  -4.752  -1.894  0.00  0.00     0.219 HD
ENDBRANCH  11  54
BRANCH   5  56
HETATM   56  C   UNK N   1      -0.784  -4.842   1.700  0.00  0.00     0.074 C 
BRANCH  56  57
HETATM   57  C   UNK N   1      -0.978  -6.131   0.956  0.00  0.00    -0.028 A 
HETATM   58  C   UNK N   1      -0.082  -7.196   0.880  0.00  0.00     0.096 A 
HETATM   59  N   UNK N   1      -0.619  -8.188   0.125  0.00  0.00    -0.365 N 
HETATM   60  C   UNK N   1      -1.834  -7.750  -0.257  0.00  0.00     0.042 A 
HETATM   61  H   UNK N   1      -0.204  -9.052  -0.099  0.00  0.00     0.165 HD
HETATM   62  C   UNK N   1      -2.760  -8.429  -1.043  0.00  0.00     0.030 A 
HETATM   63  C   UNK N   1      -2.083  -6.501   0.237  0.00  0.00    -0.002 A 
HETATM   64  C   UNK N   1      -3.981  -7.784  -1.319  0.00  0.00     0.002 A 
HETATM   65  C   UNK N   1      -4.240  -6.492  -0.806  0.00  0.00     0.001 A 
HETATM   66  C   UNK N   1      -3.281  -5.835  -0.015  0.00  0.00     0.014 A 
ENDBRANCH  56  57
ENDBRANCH   5  56
BRANCH   6  67
HETATM   67  N   UNK N   1      -1.977   1.700  -1.140  0.00  0.00    -0.360 N 
HETATM   68  C   UNK N   1      -3.018   2.146  -1.764  0.00  0.00     0.135 C 
ATOM     69  HN  UNK N   1      -1.361   1.047  -1.624  1.00  0.00     0.162 HD
BRANCH  68  70
HETATM   70  C   UNK N   1      -3.976   3.158  -1.165  0.00  0.00     0.162 C 
BRANCH  70  71
HETATM   71  C   UNK N   1      -4.586   2.682   0.153  0.00  0.00     0.072 C 
BRANCH  71  72
HETATM   72  C   UNK N   1      -5.913   3.312   0.430  0.00  0.00    -0.056 A 
HETATM   73  C   UNK N   1      -7.051   2.501   0.501  0.00  0.00     0.007 A 
HETATM   74  C   UNK N   1      -8.302   3.066   0.765  0.00  0.00     0.001 A 
HETATM   75  C   UNK N   1      -8.418   4.445   0.964  0.00  0.00     0.000 A 
HETATM   76  C   UNK N   1      -7.282   5.259   0.902  0.00  0.00     0.001 A 
HETATM   77  C   UNK N   1      -6.030   4.694   0.637  0.00  0.00     0.007 A 
ENDBRANCH  71  72
ENDBRANCH  70  71
BRANCH  70  78
HETATM   78  N   UNK N   1      -3.407   4.488  -1.030  0.00  0.00    -0.361 N 
HETATM   79  C   UNK N   1      -3.006   5.179  -2.045  0.00  0.00     0.141 C 
ATOM     80  HN  UNK N   1      -3.321   4.892  -0.097  1.00  0.00     0.162 HD
BRANCH  79  81
HETATM   81  C   UNK N   1      -2.629   6.623  -1.872  0.00  0.00     0.356 C 
BRANCH  81  82
HETATM   82  N   UNK N   1      -1.340   6.946  -1.241  0.00  0.00     0.107 N 
BRANCH  82  83
HETATM   83  C   UNK N   1      -0.745   5.930  -0.367  0.00  0.00     0.303 C 
BRANCH  83  84
HETATM   84  C   UNK N   1       0.692   6.346   0.003  0.00  0.00     0.303 C 
BRANCH  84  85
HETATM   85  N   UNK N   1       1.737   5.687  -0.792  0.00  0.00     0.100 N 
BRANCH  85  86
HETATM   86  C   UNK N   1       2.989   6.410  -0.569  0.00  0.00     0.274 C 
BRANCH  86  87
HETATM   87  C   UNK N   1       3.550   6.152   0.830  0.00  0.00     0.056 C 
BRANCH  87  88
HETATM   88  C   UNK N   1       4.982   6.681   1.052  0.00  0.00     0.182 C 
BRANCH  88  89
HETATM   89  C   UNK N   1       5.995   6.010   0.169  0.00  0.00     0.154 C 
HETATM   90  O   UNK N   1       5.968   6.167  -1.042  0.00  0.00    -0.649 OA
BRANCH  89  91
HETATM   91  O   UNK N   1       6.957   5.246   0.721  0.00  0.00    -0.776 OA
HETATM   92  H   UNK N   1       6.831   4.400   1.105  0.00  0.00     0.167 HD
ENDBRANCH  89  91
ENDBRANCH  88  89
BRANCH  88  93
HETATM   93  C   UNK N   1       5.116   8.180   0.976  0.00  0.00     0.154 C 
HETATM   94  O   UNK N   1       4.166   8.882   0.667  0.00  0.00    -0.649 OA
BRANCH  93  95
HETATM   95  O   UNK N   1       6.299   8.755   1.265  0.00  0.00    -0.776 OA
HETATM   96  H   UNK N   1       7.057   8.242   1.466  0.00  0.00     0.167 HD
ENDBRANCH  93  95
ENDBRANCH  88  93
ENDBRANCH  87  88
ENDBRANCH  86  87
ENDBRANCH  85  86
BRANCH  85  97
HETATM   97  C   UNK N   1       1.448   5.834  -2.215  0.00  0.00     0.385 C 
BRANCH  97  98
HETATM   98  C   UNK N   1       1.163   4.501  -2.827  0.00  0.00     0.202 C 
HETATM   99  O   UNK N   1       2.038   3.655  -2.893  0.00  0.00    -0.647 OA
HETATM  100  O   UNK N   1      -0.059   4.239  -3.324  0.00  0.00    -0.647 OA
ENDBRANCH  97  98
ENDBRANCH  85  97
ENDBRANCH  84  85
ENDBRANCH  83  84
ENDBRANCH  82  83
BRANCH  82 101
HETATM  101  C   UNK N   1      -1.493   8.223  -0.529  0.00  0.00     0.385 C 
BRANCH 101 102
HETATM  102  C   UNK N   1      -2.475   8.192   0.623  0.00  0.00     0.202 C 
HETATM  103  O   UNK N   1      -2.683   9.211   1.258  0.00  0.00    -0.647 OA
HETATM  104  O   UNK N   1      -3.130   7.060   0.954  0.00  0.00    -0.647 OA
ENDBRANCH 101 102
ENDBRANCH  82 101
ENDBRANCH  81  82
ENDBRANCH  79  81
BRANCH  79 105
HETATM  105  O   UNK N   1      -3.073   4.672  -3.293  0.00  0.00    -0.348 OA
ATOM    106  HO  UNK N   1      -3.311   3.759  -3.403  1.00  0.00     0.219 HD
ENDBRANCH  79 105
ENDBRANCH  70  78
ENDBRANCH  68  70
BRANCH  68 107
HETATM  107  O   UNK N   1      -3.283   1.684  -2.999  0.00  0.00    -0.348 OA
HETATM  108  H   UNK N   1      -3.654   1.682  -3.860  0.00  0.00     0.219 HD
ENDBRANCH  68 107
ENDBRANCH   6  67
BRANCH  12 109
HETATM  109  O   UNK N   1      -1.699   1.350   2.536  0.00  0.00    -0.348 OA
HETATM  110  H   UNK N   1      -1.487   1.509   3.435  0.00  0.00     0.219 HD
ENDBRANCH  12 109
BRANCH  10 111
HETATM  111  O   UNK N   1      -1.513  -3.390  -0.822  0.00  0.00    -0.348 OA
HETATM  112  H   UNK N   1      -2.301  -3.431  -1.328  0.00  0.00     0.219 HD
ENDBRANCH  10 111
BRANCH   4 113
HETATM  113  C   UNK N   1      -2.835  -0.965  -1.060  0.00  0.00     0.072 C 
BRANCH 113 114
HETATM  114  C   UNK N   1      -4.029  -1.374  -0.245  0.00  0.00    -0.056 A 
HETATM  115  C   UNK N   1      -4.715  -2.552  -0.556  0.00  0.00     0.007 A 
HETATM  116  C   UNK N   1      -5.849  -2.917   0.178  0.00  0.00     0.001 A 
HETATM  117  C   UNK N   1      -6.304  -2.101   1.218  0.00  0.00     0.000 A 
HETATM  118  C   UNK N   1      -5.628  -0.918   1.524  0.00  0.00     0.001 A 
HETATM  119  C   UNK N   1      -4.496  -0.554   0.791  0.00  0.00     0.007 A 
ENDBRANCH 113 114
ENDBRANCH   4 113
TORSDOF 46
