REMARK  3 active torsions:
REMARK  status: ('A' for Active; 'I' for Inactive)
REMARK    1  A    between atoms: N_10  and  C_11 
REMARK    2  A    between atoms: C_11  and  C_12 
REMARK    3  A    between atoms: C_12  and  C_13 
ROOT
HETATM    1  C   UNK N   1       6.031   3.221  -0.527  0.00  0.00     0.048 C 
HETATM    2  C   UNK N   1       4.946   2.251  -0.230  0.00  0.00    -0.061 A 
HETATM    3  C   UNK N   1       5.261   0.885  -0.037  0.00  0.00     0.009 A 
HETATM    4  C   UNK N   1       4.248  -0.050   0.235  0.00  0.00     0.031 A 
HETATM    5  C   UNK N   1       2.937   0.420   0.309  0.00  0.00     0.045 A 
HETATM    6  C   UNK N   1       2.631   1.748   0.124  0.00  0.00     0.001 A 
HETATM    7  C   UNK N   1       3.611   2.696  -0.150  0.00  0.00     0.021 A 
HETATM    8  C   UNK N   1       1.260   1.851   0.239  0.00  0.00     0.005 A 
HETATM    9  C   UNK N   1       0.794   0.592   0.489  0.00  0.00     0.022 A 
HETATM   10  N   UNK N   1       1.816  -0.292   0.528  0.00  0.00    -0.349 N 
HETATM   11  C   UNK N   1      -0.655   0.322   0.611  0.00  0.00     0.088 C 
HETATM   12  C   UNK N   1      -1.327   1.150  -0.495  0.00  0.00     0.278 C 
HETATM   13  N   UNK N   1      -0.988   2.597  -0.467  0.00  0.00     0.088 N 
HETATM   14  C   UNK N   1       0.333   3.008   0.073  0.00  0.00     0.313 C 
HETATM   15  C   UNK N   1      -2.020   3.293   0.280  0.00  0.00     0.310 C 
ENDROOT
BRANCH  10  16
HETATM   16  C   UNK N   1       1.722  -1.725   0.727  0.00  0.00     0.134 C 
BRANCH  16  17
HETATM   17  C   UNK N   1       1.571  -2.418  -0.616  0.00  0.00     0.060 C 
BRANCH  17  18
HETATM   18  C   UNK N   1       2.145  -3.781  -0.514  0.00  0.00    -0.041 A 
HETATM   19  C   UNK N   1       3.529  -3.963  -0.435  0.00  0.00     0.010 A 
HETATM   20  C   UNK N   1       4.048  -5.249  -0.288  0.00  0.00     0.025 A 
HETATM   21  C   UNK N   1       3.171  -6.334  -0.216  0.00  0.00     0.005 A 
HETATM   22  N   UNK N   1       1.828  -6.136  -0.303  0.00  0.00    -0.369 N 
HETATM   23  C   UNK N   1       3.707  -7.707  -0.034  0.00  0.00     0.068 C 
HETATM   24  C   UNK N   1       1.302  -4.891  -0.452  0.00  0.00     0.095 A 
ATOM     25  HN  UNK N   1       1.201  -6.939  -0.255  1.00  0.00     0.165 HD
ENDBRANCH  17  18
ENDBRANCH  16  17
ENDBRANCH  10  16
TORSDOF 3
