REMARK  12 active torsions:
REMARK  status: ('A' for Active; 'I' for Inactive)
REMARK    1  A    between atoms: C_2  and  B_1 
REMARK    2  A    between atoms: B_1  and  O_30 
REMARK    3  A    between atoms: B_1  and  O_31 
REMARK    4  A    between atoms: C_2  and  C_3 
REMARK    5  A    between atoms: C_2  and  N_7 
REMARK    6  A    between atoms: C_3  and  C_4 
REMARK       I    between atoms: N_7  and  C_8 
REMARK    7  A    between atoms: C_8  and  C_10 
REMARK    8  A    between atoms: C_10  and  C_11 
REMARK    9  A    between atoms: C_10  and  N_14 
REMARK   10  A    between atoms: C_11  and  O_13 
REMARK       I    between atoms: N_14  and  C_15 
REMARK   11  A    between atoms: C_15  and  C_17 
REMARK   12  A    between atoms: C_21  and  C_24 
ROOT
HETATM    1  C   UNK N   1       7.011  -7.423  -0.541  0.00  0.00     0.205 C 
ENDROOT
BRANCH   1   2
HETATM    2  C   UNK N   1       6.020  -6.348  -0.207  0.00  0.00     0.242 C 
HETATM    3  N   UNK N   1       4.713  -6.478  -0.544  0.00  0.00    -0.358 N 
HETATM    4  H   UNK N   1       4.448  -7.190  -1.171  0.00  0.00     0.162 HD
HETATM    5  O   UNK N   1       6.392  -5.399   0.454  0.00  0.00    -0.271 OA
BRANCH   3   6
HETATM    6  C   UNK N   1       3.699  -5.601  -0.009  0.00  0.00     0.111 C 
BRANCH   6   7
HETATM    7  B   UNK N   1       3.762  -4.019  -0.237  0.00  0.00     0.515 B 
BRANCH   7   8
HETATM    8  O   UNK N   1       4.849  -3.235   0.346  0.00  0.00    -0.436 OA
HETATM    9  H   UNK N   1       5.661  -3.600   0.732  0.00  0.00     0.184 HD
ENDBRANCH   7   8
BRANCH   7  10
HETATM   10  O   UNK N   1       2.678  -3.338  -0.931  0.00  0.00    -0.436 OA
HETATM   11  H   UNK N   1       2.709  -2.486  -1.394  0.00  0.00     0.184 HD
ENDBRANCH   7  10
ENDBRANCH   6   7
BRANCH   6  12
HETATM   12  C   UNK N   1       2.564  -6.309   0.704  0.00  0.00     0.024 C 
BRANCH  12  13
HETATM   13  C   UNK N   1       1.496  -6.715  -0.290  0.00  0.00    -0.021 C 
HETATM   14  C   UNK N   1       0.878  -8.028   0.141  0.00  0.00     0.009 C 
HETATM   15  C   UNK N   1       0.424  -5.646  -0.336  0.00  0.00     0.009 C 
ENDBRANCH  12  13
ENDBRANCH   6  12
ENDBRANCH   3   6
ENDBRANCH   1   2
BRANCH   1  16
HETATM   16  C   UNK N   1       6.372  -8.650  -1.220  0.00  0.00     0.146 C 
HETATM   17  C   UNK N   1       7.426  -9.653  -1.654  0.00  0.00     0.042 C 
BRANCH  16  18
HETATM   18  O   UNK N   1       5.471  -9.283  -0.355  0.00  0.00    -0.393 OA
HETATM   19  H   UNK N   1       4.780  -8.961   0.244  0.00  0.00     0.210 HD
ENDBRANCH  16  18
ENDBRANCH   1  16
BRANCH   1  20
HETATM   20  N   UNK N   1       7.581  -7.821   0.719  0.00  0.00    -0.340 N 
HETATM   21  C   UNK N   1       8.686  -7.268   1.260  0.00  0.00     0.269 C 
HETATM   22  O   UNK N   1       9.089  -7.705   2.328  0.00  0.00    -0.266 OA
HETATM   23  H   UNK N   1       7.136  -8.543   1.218  0.00  0.00     0.163 HD
BRANCH  21  24
HETATM   24  C   UNK N   1       9.538  -6.288   0.569  0.00  0.00     0.101 A 
HETATM   25  C   UNK N   1       9.265  -4.910   0.556  0.00  0.00     0.035 A 
HETATM   26  C   UNK N   1      10.292  -4.018   0.194  0.00  0.00     0.005 A 
HETATM   27  C   UNK N   1      11.581  -4.506  -0.079  0.00  0.00     0.030 A 
HETATM   28  C   UNK N   1      11.795  -5.893  -0.055  0.00  0.00     0.043 A 
HETATM   29  N   UNK N   1      10.775  -6.709   0.273  0.00  0.00    -0.351 N 
ATOM     30  HN  UNK N   1      10.956  -7.713   0.299  1.00  0.00     0.166 HD
BRANCH  28  31
HETATM   31  C   UNK N   1      13.112  -6.527  -0.151  0.00  0.00    -0.009 A 
HETATM   32  C   UNK N   1      14.293  -5.814   0.081  0.00  0.00     0.013 A 
HETATM   33  C   UNK N   1      15.506  -6.503   0.193  0.00  0.00     0.001 A 
HETATM   34  C   UNK N   1      15.543  -7.898   0.065  0.00  0.00     0.000 A 
HETATM   35  C   UNK N   1      14.371  -8.608  -0.190  0.00  0.00     0.001 A 
HETATM   36  C   UNK N   1      13.163  -7.927  -0.279  0.00  0.00     0.013 A 
ENDBRANCH  28  31
ENDBRANCH  21  24
ENDBRANCH   1  20
TORSDOF 12
