REMARK  11 active torsions:
REMARK  status: ('A' for Active; 'I' for Inactive)
REMARK    1  A    between atoms: C_2  and  S_4 
REMARK    2  A    between atoms: S_4  and  C_5 
REMARK    3  A    between atoms: C_5  and  C_6 
REMARK    4  A    between atoms: C_6  and  C_7 
REMARK    5  A    between atoms: C_6  and  C_14 
REMARK    6  A    between atoms: C_7  and  C_8 
REMARK       I    between atoms: C_14  and  N_16 
REMARK    7  A    between atoms: N_16  and  C_17 
REMARK    8  A    between atoms: C_17  and  C_18 
REMARK    9  A    between atoms: C_18  and  O_20 
REMARK   10  A    between atoms: O_20  and  C_21 
REMARK   11  A    between atoms: C_21  and  C_22 
ROOT
HETATM    1  C   UNK N   1       2.493  -7.320   0.001  0.00  0.00     0.223 C 
HETATM    2  O   UNK N   1       2.645  -8.383  -0.579  0.00  0.00    -0.273 OA
HETATM    3  N   UNK N   1       3.601  -6.647   0.401  0.00  0.00    -0.351 N 
HETATM    4  H   UNK N   1       4.473  -7.055   0.198  0.00  0.00     0.163 HD
ENDROOT
BRANCH   1   5
HETATM    5  C   UNK N   1       1.086  -6.798   0.256  0.00  0.00     0.092 C 
BRANCH   5   6
HETATM    6  C   UNK N   1       0.904  -5.413  -0.358  0.00  0.00     0.096 C 
BRANCH   6   7
HETATM    7  S   UNK N   1       0.533  -4.235   0.986  0.00  0.00    -0.092 SA
BRANCH   7   8
HETATM    8  C   UNK N   1       0.135  -2.887  -0.123  0.00  0.00     0.182 C 
HETATM    9  C   UNK N   1      -1.269  -2.680  -0.572  0.00  0.00     0.104 C 
HETATM   10  O   UNK N   1       1.006  -2.109  -0.474  0.00  0.00    -0.286 OA
ENDBRANCH   7   8
ENDBRANCH   6   7
ENDBRANCH   5   6
BRANCH   5  11
HETATM   11  C   UNK N   1       0.055  -7.809  -0.287  0.00  0.00     0.053 C 
BRANCH  11  12
HETATM   12  C   UNK N   1      -1.409  -7.531  -0.093  0.00  0.00    -0.057 A 
HETATM   13  C   UNK N   1      -2.312  -8.588  -0.251  0.00  0.00     0.007 A 
HETATM   14  C   UNK N   1      -3.686  -8.371  -0.111  0.00  0.00     0.001 A 
HETATM   15  C   UNK N   1      -4.165  -7.090   0.175  0.00  0.00     0.000 A 
HETATM   16  C   UNK N   1      -3.270  -6.028   0.327  0.00  0.00     0.001 A 
HETATM   17  C   UNK N   1      -1.897  -6.250   0.194  0.00  0.00     0.007 A 
ENDBRANCH  11  12
ENDBRANCH   5  11
ENDBRANCH   1   5
BRANCH   3  18
HETATM   18  C   UNK N   1       3.609  -5.384   1.097  0.00  0.00     0.233 C 
BRANCH  18  19
HETATM   19  C   UNK N   1       4.192  -4.302   0.219  0.00  0.00     0.276 C 
HETATM   20  O   UNK N   1       3.580  -3.257   0.091  0.00  0.00    -0.263 OA
BRANCH  19  21
HETATM   21  O   UNK N   1       5.371  -4.459  -0.439  0.00  0.00    -0.316 OA
BRANCH  21  22
HETATM   22  C   UNK N   1       6.072  -5.645  -0.444  0.00  0.00     0.217 C 
BRANCH  22  23
HETATM   23  C   UNK N   1       7.533  -5.466  -0.206  0.00  0.00    -0.034 A 
HETATM   24  C   UNK N   1       8.115  -4.196  -0.084  0.00  0.00     0.009 A 
HETATM   25  C   UNK N   1       9.494  -4.076   0.119  0.00  0.00     0.001 A 
HETATM   26  C   UNK N   1      10.292  -5.221   0.200  0.00  0.00     0.000 A 
HETATM   27  C   UNK N   1       9.713  -6.487   0.080  0.00  0.00     0.001 A 
HETATM   28  C   UNK N   1       8.337  -6.607  -0.125  0.00  0.00     0.009 A 
ENDBRANCH  22  23
ENDBRANCH  21  22
ENDBRANCH  19  21
ENDBRANCH  18  19
ENDBRANCH   3  18
TORSDOF 11
