REMARK  8 active torsions:
REMARK  status: ('A' for Active; 'I' for Inactive)
REMARK    1  A    between atoms: C_8  and  C_10 
REMARK    2  A    between atoms: C_10  and  C_11 
REMARK    3  A    between atoms: C_18  and  C_13 
REMARK    4  A    between atoms: C_19  and  O_28 
REMARK    5  A    between atoms: C_20  and  O_27 
REMARK    6  A    between atoms: C_21  and  O_26 
REMARK    7  A    between atoms: C_22  and  C_24 
REMARK    8  A    between atoms: C_24  and  O_25 
ROOT
HETATM    1  C   UNK N   1      -0.502   2.353   0.458  0.00  0.00    -0.014 A 
HETATM    2  C   UNK N   1      -1.893   2.389   0.614  0.00  0.00     0.020 A 
HETATM    3  C   UNK N   1      -2.665   3.375  -0.018  0.00  0.00    -0.026 A 
HETATM    4  C   UNK N   1      -2.030   4.351  -0.794  0.00  0.00     0.013 A 
HETATM    5  C   UNK N   1      -0.646   4.346  -0.938  0.00  0.00     0.043 A 
HETATM    6  C   UNK N   1       0.123   3.353  -0.331  0.00  0.00     0.123 A 
HETATM    7  F   UNK N   1       1.462   3.384  -0.530  0.00  0.00    -0.206 F 
ENDROOT
BRANCH   3   8
HETATM    8  C   UNK N   1      -4.168   3.345   0.088  0.00  0.00     0.186 C 
HETATM    9  C   UNK N   1      -4.760   1.956  -0.252  0.00  0.00     0.182 C 
HETATM   10  C   UNK N   1      -6.260   2.059  -0.544  0.00  0.00     0.181 C 
HETATM   11  C   UNK N   1      -6.855   3.278   0.149  0.00  0.00     0.180 C 
HETATM   12  C   UNK N   1      -6.118   4.537  -0.362  0.00  0.00     0.177 C 
HETATM   13  O   UNK N   1      -4.759   4.335  -0.729  0.00  0.00    -0.368 OA
BRANCH   9  14
HETATM   14  O   UNK N   1      -4.131   1.377  -1.356  0.00  0.00    -0.390 OA
HETATM   15  H   UNK N   1      -4.260   0.797  -2.123  0.00  0.00     0.210 HD
ENDBRANCH   9  14
BRANCH  10  16
HETATM   16  O   UNK N   1      -6.901   0.887  -0.143  0.00  0.00    -0.390 OA
HETATM   17  H   UNK N   1      -7.830   0.865   0.136  0.00  0.00     0.210 HD
ENDBRANCH  10  16
BRANCH  11  18
HETATM   18  O   UNK N   1      -8.219   3.381  -0.133  0.00  0.00    -0.390 OA
HETATM   19  H   UNK N   1      -8.630   4.237  -0.328  0.00  0.00     0.210 HD
ENDBRANCH  11  18
BRANCH  12  20
HETATM   20  C   UNK N   1      -6.263   5.727   0.576  0.00  0.00     0.198 C 
BRANCH  20  21
HETATM   21  O   UNK N   1      -7.597   6.128   0.644  0.00  0.00    -0.398 OA
HETATM   22  H   UNK N   1      -7.820   7.071   0.691  0.00  0.00     0.209 HD
ENDBRANCH  20  21
ENDBRANCH  12  20
ENDBRANCH   3   8
BRANCH   1  23
HETATM   23  C   UNK N   1       0.230   1.211   1.129  0.00  0.00     0.088 C 
BRANCH  23  24
HETATM   24  C   UNK N   1       1.650   1.012   0.717  0.00  0.00    -0.012 A 
HETATM   25  C   UNK N   1       2.768   1.691   1.230  0.00  0.00     0.027 A 
HETATM   26  C   UNK N   1       3.964   1.316   0.561  0.00  0.00    -0.018 A 
HETATM   27  C   UNK N   1       3.783   0.363  -0.440  0.00  0.00     0.015 A 
HETATM   28  C   UNK N   1       5.234   1.826   0.819  0.00  0.00     0.013 A 
HETATM   29  C   UNK N   1       4.834  -0.117  -1.212  0.00  0.00     0.019 A 
HETATM   30  S   UNK N   1       2.175  -0.002  -0.497  0.00  0.00    -0.094 SA
HETATM   31  C   UNK N   1       6.118   0.392  -0.956  0.00  0.00     0.001 A 
HETATM   32  C   UNK N   1       6.317   1.359   0.053  0.00  0.00     0.001 A 
ENDBRANCH  23  24
ENDBRANCH   1  23
TORSDOF 8
