REMARK  4 active torsions:
REMARK  status: ('A' for Active; 'I' for Inactive)
REMARK    1  A    between atoms: N_29  and  C_18 
REMARK    2  A    between atoms: C_19  and  N_26 
REMARK    3  A    between atoms: C_20  and  C_22 
REMARK    4  A    between atoms: N_27  and  C_21 
REMARK       I    between atoms: N_28  and  C_22 
ROOT
HETATM    1  C   UNK N   1      -0.236   1.190  -1.105  0.00  0.00     0.292 C 
HETATM    2  C   UNK N   1       0.080   3.528  -0.374  0.00  0.00     0.292 C 
HETATM    3  C   UNK N   1       0.734   0.730  -0.012  0.00  0.00     0.154 C 
HETATM    4  C   UNK N   1       0.991   3.021   0.746  0.00  0.00     0.154 C 
HETATM    5  N   UNK N   1      -0.869   2.502  -0.830  0.00  0.00     0.098 N 
HETATM    6  N   UNK N   1       1.623   1.824   0.280  0.00  0.00    -0.362 N 
ENDROOT
BRANCH   5   7
HETATM    7  C   UNK N   1      -2.034   2.447   0.062  0.00  0.00     0.242 C 
HETATM    8  C   UNK N   1      -2.997   1.371  -0.330  0.00  0.00     0.072 C 
HETATM    9  C   UNK N   1      -4.257   1.856   0.339  0.00  0.00     0.171 C 
HETATM   10  N   UNK N   1      -4.308   3.289   0.069  0.00  0.00    -0.407 N 
HETATM   11  C   UNK N   1      -2.906   3.694  -0.086  0.00  0.00     0.150 C 
HETATM   12  H   UNK N   1      -5.137   3.880   0.003  0.00  0.00     0.154 HD
BRANCH   9  13
HETATM   13  C   UNK N   1      -5.452   1.094  -0.177  0.00  0.00     0.242 C 
HETATM   14  N   UNK N   1      -5.525  -0.261  -0.016  0.00  0.00    -0.341 N 
HETATM   15  C   UNK N   1      -6.628  -1.026  -0.533  0.00  0.00     0.137 C 
HETATM   16  C   UNK N   1      -4.479  -1.005   0.640  0.00  0.00     0.200 C 
HETATM   17  C   UNK N   1      -6.397  -2.472  -0.132  0.00  0.00     0.095 C 
HETATM   18  S   UNK N   1      -4.608  -2.714   0.067  0.00  0.00    -0.148 SA
HETATM   19  O   UNK N   1      -6.353   1.694  -0.748  0.00  0.00    -0.271 OA
ENDBRANCH   9  13
ENDBRANCH   5   7
BRANCH   6  20
HETATM   20  C   UNK N   1       3.043   1.671   0.120  0.00  0.00     0.127 A 
HETATM   21  C   UNK N   1       3.655   0.429   0.023  0.00  0.00     0.076 A 
HETATM   22  C   UNK N   1       4.998   0.725  -0.059  0.00  0.00     0.026 A 
HETATM   23  C   UNK N   1       6.101  -0.265  -0.183  0.00  0.00     0.070 C 
HETATM   24  N   UNK N   1       5.187   2.053  -0.023  0.00  0.00    -0.297 N 
HETATM   25  N   UNK N   1       4.005   2.649   0.071  0.00  0.00    -0.240 N 
ATOM     26  HN  UNK N   1       6.089   2.526  -0.062  1.00  0.00     0.187 HD
BRANCH  25  27
HETATM   27  C   UNK N   1       3.931   4.098   0.034  0.00  0.00     0.058 A 
HETATM   28  C   UNK N   1       2.756   4.779  -0.294  0.00  0.00     0.031 A 
HETATM   29  C   UNK N   1       2.712   6.170  -0.370  0.00  0.00     0.002 A 
HETATM   30  C   UNK N   1       3.868   6.911  -0.138  0.00  0.00     0.000 A 
HETATM   31  C   UNK N   1       5.064   6.253   0.158  0.00  0.00     0.002 A 
HETATM   32  C   UNK N   1       5.097   4.856   0.234  0.00  0.00     0.031 A 
ENDBRANCH  25  27
ENDBRANCH   6  20
TORSDOF 4
