REMARK  6 active torsions:
REMARK  status: ('A' for Active; 'I' for Inactive)
REMARK    1  A    between atoms: C_3  and  S_19 
REMARK    2  A    between atoms: C_5  and  N_15 
REMARK    3  A    between atoms: N_10  and  C_11 
REMARK    4  A    between atoms: C_11  and  C_12 
REMARK    5  A    between atoms: C_12  and  O_14 
REMARK       I    between atoms: N_15  and  C_16 
REMARK    6  A    between atoms: S_19  and  C_20 
ROOT
HETATM    1  C   UNK N   1      -0.757  -1.247   1.716  0.00  0.00     0.070 C 
HETATM    2  C   UNK N   1       0.582  -1.162   1.065  0.00  0.00     0.027 A 
HETATM    3  C   UNK N   1       1.274   0.008   0.748  0.00  0.00     0.042 A 
HETATM    4  C   UNK N   1       2.510  -0.403   0.265  0.00  0.00     0.037 A 
HETATM    5  C   UNK N   1       3.643   0.324  -0.116  0.00  0.00     0.048 A 
HETATM    6  C   UNK N   1       4.787  -0.404  -0.512  0.00  0.00     0.030 A 
HETATM    7  C   UNK N   1       4.776  -1.815  -0.511  0.00  0.00     0.005 A 
HETATM    8  C   UNK N   1       3.632  -2.517  -0.099  0.00  0.00     0.031 A 
HETATM    9  C   UNK N   1       2.510  -1.778   0.282  0.00  0.00     0.049 A 
HETATM   10  N   UNK N   1       1.342  -2.247   0.765  0.00  0.00    -0.339 N 
ENDROOT
BRANCH   3  11
HETATM   11  S   UNK N   1       0.797   1.726   1.074  0.00  0.00    -0.088 SA
BRANCH  11  12
HETATM   12  C   UNK N   1      -0.772   1.939   0.206  0.00  0.00     0.005 A 
HETATM   13  C   UNK N   1      -1.567   0.859  -0.196  0.00  0.00     0.020 A 
HETATM   14  C   UNK N   1      -2.844   1.081  -0.725  0.00  0.00     0.025 A 
HETATM   15  C   UNK N   1      -3.333   2.385  -0.849  0.00  0.00     0.034 A 
HETATM   16  C   UNK N   1      -2.537   3.467  -0.468  0.00  0.00     0.025 A 
HETATM   17 Cl   UNK N   1      -4.955   2.662  -1.446  0.00  0.00    -0.084 Cl
HETATM   18  C   UNK N   1      -1.264   3.242   0.062  0.00  0.00     0.020 A 
ENDBRANCH  11  12
ENDBRANCH   3  11
BRANCH  10  19
HETATM   19  C   UNK N   1       0.977  -3.639   1.032  0.00  0.00     0.239 C 
BRANCH  19  20
HETATM   20  C   UNK N   1       0.870  -4.461  -0.214  0.00  0.00     0.158 C 
HETATM   21  O   UNK N   1      -0.204  -4.950  -0.523  0.00  0.00    -0.649 OA
BRANCH  20  22
HETATM   22  O   UNK N   1       1.959  -4.719  -0.961  0.00  0.00    -0.775 OA
HETATM   23  H   UNK N   1       2.183  -5.466  -1.480  0.00  0.00     0.167 HD
ENDBRANCH  20  22
ENDBRANCH  19  20
ENDBRANCH  10  19
BRANCH   5  24
HETATM   24  N   UNK N   1       3.633   1.747  -0.062  0.00  0.00    -0.327 N 
HETATM   25  C   UNK N   1       4.731   2.542   0.016  0.00  0.00     0.218 C 
HETATM   26  O   UNK N   1       5.851   2.067   0.124  0.00  0.00    -0.274 OA
HETATM   27  C   UNK N   1       4.559   4.021   0.034  0.00  0.00     0.117 C 
HETATM   28  H   UNK N   1       2.755   2.193  -0.084  0.00  0.00     0.169 HD
ENDBRANCH   5  24
TORSDOF 6
