REMARK  4 active torsions:
REMARK  status: ('A' for Active; 'I' for Inactive)
REMARK    1  A    between atoms: C_2  and  C_3 
REMARK    2  A    between atoms: C_2  and  N_21 
REMARK    3  A    between atoms: N_13  and  C_14 
REMARK    4  A    between atoms: N_21  and  C_22 
ROOT
HETATM    1  C   UNK N   1       5.936  -7.741   0.092  0.00  0.00     0.043 A 
HETATM    2  C   UNK N   1       7.170  -8.402   0.039  0.00  0.00     0.040 A 
HETATM    3  C   UNK N   1       7.259  -9.772  -0.099  0.00  0.00    -0.017 A 
HETATM    4  C   UNK N   1       8.521 -10.365  -0.156  0.00  0.00     0.012 A 
HETATM    5  C   UNK N   1       8.642 -11.744  -0.296  0.00  0.00     0.003 A 
HETATM    6  C   UNK N   1       7.500 -12.537  -0.382  0.00  0.00     0.025 A 
HETATM    7  C   UNK N   1       6.226 -11.965  -0.323  0.00  0.00     0.050 A 
HETATM    8  C   UNK N   1       6.092 -10.550  -0.175  0.00  0.00     0.064 A 
HETATM    9  C   UNK N   1       4.842  -9.888  -0.108  0.00  0.00     0.265 A 
HETATM   10  O   UNK N   1       3.814 -10.541  -0.192  0.00  0.00    -0.267 OA
HETATM   11  N   UNK N   1       4.766  -8.497   0.022  0.00  0.00    -0.280 N 
HETATM   12 Cl   UNK N   1       4.861 -13.074  -0.448  0.00  0.00    -0.083 Cl
ENDROOT
BRANCH   1  13
HETATM   13  C   UNK N   1       6.006  -6.227   0.389  0.00  0.00     0.130 C 
HETATM   14  C   UNK N   1       7.401  -5.641   0.142  0.00  0.00     0.039 C 
BRANCH  13  15
HETATM   15  N   UNK N   1       4.978  -5.412  -0.214  0.00  0.00    -0.365 N 
HETATM   16  H   UNK N   1       4.314  -5.855  -0.790  0.00  0.00     0.162 HD
BRANCH  15  17
HETATM   17  C   UNK N   1       4.867  -4.005  -0.026  0.00  0.00     0.133 A 
HETATM   18  C   UNK N   1       3.631  -3.381  -0.062  0.00  0.00     0.122 A 
HETATM   19  C   UNK N   1       3.533  -2.052   0.123  0.00  0.00     0.138 A 
HETATM   20  N   UNK N   1       2.410  -3.902  -0.235  0.00  0.00    -0.346 N 
HETATM   21  N   UNK N   1       2.251  -1.672   0.073  0.00  0.00    -0.337 N 
HETATM   22  N   UNK N   1       4.611  -1.264   0.337  0.00  0.00    -0.337 N 
HETATM   23  C   UNK N   1       1.574  -2.831  -0.148  0.00  0.00     0.182 A 
HETATM   24  H   UNK N   1       1.883  -0.764   0.174  0.00  0.00     0.168 HD
HETATM   25  C   UNK N   1       5.843  -1.861   0.376  0.00  0.00     0.183 A 
ATOM     26  HN  UNK N   1       4.510  -0.258   0.466  1.00  0.00     0.168 HD
HETATM   27  N   UNK N   1       5.965  -3.219   0.205  0.00  0.00    -0.337 N 
ATOM     28  HN  UNK N   1       6.888  -3.649   0.250  1.00  0.00     0.168 HD
ATOM     29  HN  UNK N   1       2.163  -4.878  -0.396  1.00  0.00     0.167 HD
ENDBRANCH  15  17
ENDBRANCH  13  15
ENDBRANCH   1  13
BRANCH  11  30
HETATM   30  C   UNK N   1       3.432  -7.920   0.027  0.00  0.00     0.042 A 
HETATM   31  C   UNK N   1       2.443  -8.427   0.892  0.00  0.00     0.030 A 
HETATM   32  C   UNK N   1       1.113  -8.014   0.779  0.00  0.00     0.002 A 
HETATM   33  C   UNK N   1       0.742  -7.123  -0.229  0.00  0.00     0.000 A 
HETATM   34  C   UNK N   1       1.702  -6.649  -1.125  0.00  0.00     0.002 A 
HETATM   35  C   UNK N   1       3.034  -7.055  -1.005  0.00  0.00     0.030 A 
ENDBRANCH  11  30
TORSDOF 4
