REMARK  3 active torsions:
REMARK  status: ('A' for Active; 'I' for Inactive)
REMARK    1  A    between atoms: C_6  and  C_9 
REMARK    2  A    between atoms: C_10  and  C_18 
REMARK    3  A    between atoms: C_26  and  C_29 
REMARK       I    between atoms: C_29  and  N_31 
ROOT
HETATM    1  C   UNK N   1      -1.286   2.154  -0.058  0.00  0.00     0.088 A 
HETATM    2  C   UNK N   1      -0.051   1.431  -0.169  0.00  0.00     0.030 A 
HETATM    3  C   UNK N   1       0.904   2.461  -0.171  0.00  0.00     0.042 A 
HETATM    4  N   UNK N   1       0.292   3.613  -0.085  0.00  0.00    -0.295 N 
HETATM    5  N   UNK N   1      -1.013   3.479  -0.024  0.00  0.00    -0.295 N 
ATOM      6  HN  UNK N   1      -1.695   4.234   0.037  1.00  0.00     0.187 HD
HETATM    7  C   UNK N   1       1.130   4.777  -0.079  0.00  0.00     0.149 A 
HETATM    8  C   UNK N   1       2.541   4.152  -0.175  0.00  0.00     0.028 A 
HETATM    9  C   UNK N   1       2.368   2.611  -0.270  0.00  0.00     0.061 A 
ENDROOT
BRANCH   2  10
HETATM   10  C   UNK N   1       0.154  -0.076  -0.296  0.00  0.00    -0.008 A 
HETATM   11  C   UNK N   1      -0.967  -0.858  -0.581  0.00  0.00     0.030 A 
HETATM   12  C   UNK N   1      -0.898  -2.240  -0.705  0.00  0.00     0.089 A 
HETATM   13  N   UNK N   1       0.285  -2.874  -0.558  0.00  0.00    -0.365 N 
HETATM   14  C   UNK N   1       1.425  -2.186  -0.307  0.00  0.00     0.043 A 
ATOM     15  HN  UNK N   1       0.322  -3.890  -0.638  1.00  0.00     0.165 HD
HETATM   16  C   UNK N   1       1.400  -0.767  -0.177  0.00  0.00     0.003 A 
HETATM   17  C   UNK N   1       2.624  -2.889  -0.180  0.00  0.00     0.031 A 
HETATM   18  C   UNK N   1       2.608  -0.113   0.069  0.00  0.00     0.031 A 
HETATM   19  C   UNK N   1       3.818  -0.815   0.171  0.00  0.00     0.032 A 
HETATM   20  C   UNK N   1       3.815  -2.208   0.055  0.00  0.00     0.019 A 
BRANCH  19  21
HETATM   21  C   UNK N   1       5.088  -0.086   0.369  0.00  0.00     0.249 C 
HETATM   22  O   UNK N   1       5.096   1.134   0.424  0.00  0.00    -0.268 OA
HETATM   23  N   UNK N   1       6.252  -0.761   0.465  0.00  0.00    -0.366 N 
HETATM   24  H   UNK N   1       6.251  -1.743   0.535  0.00  0.00     0.159 HD
HETATM   25  H   UNK N   1       7.106  -0.270   0.465  0.00  0.00     0.159 HD
ENDBRANCH  19  21
ENDBRANCH   2  10
BRANCH   1  26
HETATM   26  C   UNK N   1      -2.697   1.691   0.063  0.00  0.00     0.061 A 
HETATM   27  C   UNK N   1      -3.740   2.607  -0.140  0.00  0.00     0.032 A 
HETATM   28  C   UNK N   1      -5.065   2.188  -0.006  0.00  0.00     0.004 A 
HETATM   29  C   UNK N   1      -5.343   0.869   0.351  0.00  0.00     0.024 A 
HETATM   30  C   UNK N   1      -4.285  -0.011   0.573  0.00  0.00     0.005 A 
HETATM   31  C   UNK N   1      -4.552  -1.417   0.972  0.00  0.00     0.068 C 
HETATM   32  N   UNK N   1      -3.004   0.418   0.429  0.00  0.00    -0.358 N 
ATOM     33  HN  UNK N   1      -2.244  -0.239   0.602  1.00  0.00     0.166 HD
ENDBRANCH   1  26
TORSDOF 3
