REMARK  6 active torsions:
REMARK  status: ('A' for Active; 'I' for Inactive)
REMARK    1  A    between atoms: C_3  and  S_26 
REMARK    2  A    between atoms: C_5  and  N_8 
REMARK       I    between atoms: N_8  and  C_10 
REMARK    3  A    between atoms: C_10  and  C_12 
REMARK    4  A    between atoms: C_12  and  C_13 
REMARK    5  A    between atoms: C_16  and  C_19 
REMARK    6  A    between atoms: S_26  and  N_29 
ROOT
HETATM    1  N   UNK N   1       3.038  -7.928   0.174  0.00  0.00    -0.302 N 
HETATM    2  C   UNK N   1       3.698  -9.002   0.880  0.00  0.00     0.161 C 
HETATM    3  C   UNK N   1       1.768  -8.101  -0.298  0.00  0.00     0.229 C 
HETATM    4  O   UNK N   1       1.254  -7.242  -1.006  0.00  0.00    -0.273 OA
ENDROOT
BRANCH   3   5
HETATM    5  C   UNK N   1       0.957  -9.327   0.072  0.00  0.00     0.141 C 
BRANCH   5   6
HETATM    6  C   UNK N   1      -0.489  -8.950   0.216  0.00  0.00    -0.049 A 
HETATM    7  C   UNK N   1      -1.470  -9.673  -0.467  0.00  0.00     0.008 A 
HETATM    8  C   UNK N   1      -2.793  -9.220  -0.477  0.00  0.00     0.014 A 
HETATM    9  C   UNK N   1      -3.136  -8.021   0.172  0.00  0.00    -0.009 A 
HETATM   10  C   UNK N   1      -2.155  -7.320   0.882  0.00  0.00     0.014 A 
HETATM   11  C   UNK N   1      -0.844  -7.787   0.917  0.00  0.00     0.008 A 
BRANCH   9  12
HETATM   12  C   UNK N   1      -4.488  -7.445   0.034  0.00  0.00     0.042 A 
HETATM   13  C   UNK N   1      -5.505  -8.151  -0.623  0.00  0.00     0.030 A 
HETATM   14  C   UNK N   1      -6.754  -7.555  -0.796  0.00  0.00     0.004 A 
HETATM   15  C   UNK N   1      -6.974  -6.258  -0.331  0.00  0.00     0.017 A 
HETATM   16  C   UNK N   1      -5.940  -5.580   0.315  0.00  0.00     0.088 A 
HETATM   17  N   UNK N   1      -4.732  -6.180   0.486  0.00  0.00    -0.365 N 
ATOM     18  HN  UNK N   1      -3.989  -5.672   0.964  1.00  0.00     0.165 HD
ENDBRANCH   9  12
ENDBRANCH   5   6
ENDBRANCH   3   5
BRANCH   1  19
HETATM   19  C   UNK N   1       3.714  -6.679   0.029  0.00  0.00     0.154 A 
HETATM   20  S   UNK N   1       5.331  -6.408   0.259  0.00  0.00    -0.038 SA
HETATM   21  C   UNK N   1       5.295  -4.768   0.052  0.00  0.00     0.145 A 
HETATM   22  C   UNK N   1       3.953  -4.427  -0.178  0.00  0.00     0.037 A 
HETATM   23  C   UNK N   1       3.477  -3.029  -0.366  0.00  0.00     0.070 C 
HETATM   24  N   UNK N   1       3.082  -5.493  -0.197  0.00  0.00    -0.338 N 
ATOM     25  HN  UNK N   1       2.079  -5.406  -0.360  1.00  0.00     0.168 HD
BRANCH  21  26
HETATM   26  S   UNK N   1       6.714  -3.683   0.117  0.00  0.00     0.265 S 
HETATM   27  O   UNK N   1       7.634  -3.849  -1.102  0.00  0.00    -0.200 OA
HETATM   28  O   UNK N   1       7.655  -4.012   1.285  0.00  0.00    -0.200 OA
BRANCH  26  29
HETATM   29  N   UNK N   1       6.428  -1.947   0.240  0.00  0.00    -0.324 N 
HETATM   30  H   UNK N   1       7.214  -1.301   0.310  0.00  0.00     0.169 HD
HETATM   31  H   UNK N   1       5.473  -1.587   0.240  0.00  0.00     0.169 HD
ENDBRANCH  26  29
ENDBRANCH  21  26
ENDBRANCH   1  19
TORSDOF 6
