REMARK  7 active torsions:
REMARK  status: ('A' for Active; 'I' for Inactive)
REMARK    1  A    between atoms: C_2  and  C_3 
REMARK    2  A    between atoms: C_8  and  C_2 
REMARK    3  A    between atoms: C_3  and  C_4 
REMARK    4  A    between atoms: C_4  and  C_5 
REMARK    5  A    between atoms: C_5  and  O_7 
REMARK    6  A    between atoms: C_18  and  O_27 
REMARK    7  A    between atoms: C_23  and  O_25 
ROOT
HETATM    1  C   UNK N   1       5.736  -0.069   0.541  0.00  0.00    -0.002 C 
HETATM    2  C   UNK N   1       6.467   1.207   0.167  0.00  0.00     0.006 C 
HETATM    3  C   UNK N   1       5.418   2.044  -0.580  0.00  0.00     0.006 C 
HETATM    4  C   UNK N   1       4.154   1.175  -0.706  0.00  0.00    -0.002 C 
HETATM    5  C   UNK N   1       4.687  -0.251  -0.558  0.00  0.00    -0.036 C 
HETATM    6  C   UNK N   1       3.598  -1.273  -0.239  0.00  0.00     0.010 C 
HETATM    7  C   UNK N   1       2.784  -0.856   0.972  0.00  0.00     0.006 C 
HETATM    8  C   UNK N   1       2.112   0.498   0.739  0.00  0.00    -0.001 C 
HETATM    9  C   UNK N   1       3.151   1.599   0.389  0.00  0.00    -0.003 C 
HETATM   10  C   UNK N   1       2.473   2.898  -0.089  0.00  0.00     0.037 C 
HETATM   11  C   UNK N   1       1.045   3.029   0.425  0.00  0.00     0.123 C 
HETATM   12  C   UNK N   1       0.135   1.876  -0.041  0.00  0.00     0.025 C 
HETATM   13  C   UNK N   1       0.870   0.502  -0.185  0.00  0.00    -0.034 C 
HETATM   14  C   UNK N   1      -0.058  -0.674   0.183  0.00  0.00     0.012 C 
HETATM   15  C   UNK N   1      -1.477  -0.419  -0.305  0.00  0.00     0.032 C 
HETATM   16  C   UNK N   1      -2.091   0.749   0.473  0.00  0.00     0.118 C 
HETATM   17  C   UNK N   1      -1.061   1.801   0.914  0.00  0.00     0.039 C 
HETATM   18  C   UNK N   1       1.273   0.335  -1.647  0.00  0.00     0.016 C 
HETATM   19  C   UNK N   1       5.304  -0.649  -1.897  0.00  0.00     0.016 C 
ENDROOT
BRANCH   1  20
HETATM   20  C   UNK N   1       6.619  -1.253   0.990  0.00  0.00    -0.013 C 
HETATM   21  C   UNK N   1       5.829  -2.161   1.911  0.00  0.00     0.010 C 
BRANCH  20  22
HETATM   22  C   UNK N   1       7.217  -2.102  -0.133  0.00  0.00     0.015 C 
BRANCH  22  23
HETATM   23  C   UNK N   1       8.197  -1.343  -1.017  0.00  0.00     0.110 C 
BRANCH  23  24
HETATM   24  C   UNK N   1       9.507  -1.141  -0.337  0.00  0.00     0.139 C 
HETATM   25  O   UNK N   1      10.175  -2.102   0.011  0.00  0.00    -0.650 OA
BRANCH  24  26
HETATM   26  O   UNK N   1       9.968   0.106  -0.134  0.00  0.00    -0.776 OA
HETATM   27  H   UNK N   1      10.881   0.262   0.007  0.00  0.00     0.167 HD
ENDBRANCH  24  26
ENDBRANCH  23  24
ENDBRANCH  22  23
ENDBRANCH  20  22
ENDBRANCH   1  20
BRANCH  11  28
HETATM   28  O   UNK N   1       0.501   4.252   0.033  0.00  0.00    -0.395 OA
HETATM   29  H   UNK N   1       1.049   5.005  -0.240  0.00  0.00     0.210 HD
ENDBRANCH  11  28
BRANCH  16  30
HETATM   30  O   UNK N   1      -3.088   1.346  -0.297  0.00  0.00    -0.396 OA
HETATM   31  H   UNK N   1      -3.075   2.154  -0.833  0.00  0.00     0.210 HD
ENDBRANCH  16  30
TORSDOF 7
