REMARK  5 active torsions:
REMARK  status: ('A' for Active; 'I' for Inactive)
REMARK    1  A    between atoms: C_16  and  C_2 
REMARK    2  A    between atoms: C_5  and  O_7 
REMARK    3  A    between atoms: O_7  and  C_8 
REMARK    4  A    between atoms: C_8  and  C_9 
REMARK    5  A    between atoms: C_9  and  N_10 
ROOT
HETATM    1  C   UNK N   1       0.036  -5.062   0.565  0.00  0.00     0.019 C 
HETATM    2  C   UNK N   1      -0.853  -4.202   1.492  0.00  0.00     0.015 C 
HETATM    3  C   UNK N   1      -1.719  -3.176   0.760  0.00  0.00     0.072 C 
HETATM    4  C   UNK N   1      -0.857  -2.399  -0.221  0.00  0.00     0.200 C 
HETATM    5  O   UNK N   1      -1.575  -1.328  -0.764  0.00  0.00    -0.197 OA
HETATM    6  O   UNK N   1      -0.879  -0.218  -0.532  0.00  0.00    -0.197 OA
HETATM    7  C   UNK N   1       0.345  -0.592   0.044  0.00  0.00     0.208 C 
HETATM    8  O   UNK N   1       0.258  -1.912   0.447  0.00  0.00    -0.313 OA
HETATM    9  C   UNK N   1       1.504  -0.445  -0.971  0.00  0.00     0.052 C 
HETATM   10  C   UNK N   1       1.661   1.030  -1.378  0.00  0.00     0.014 C 
HETATM   11  C   UNK N   1       1.962   1.887  -0.137  0.00  0.00    -0.013 C 
HETATM   12  C   UNK N   1       0.804   1.752   0.865  0.00  0.00     0.014 C 
HETATM   13  C   UNK N   1       0.640   0.280   1.285  0.00  0.00     0.052 C 
HETATM   14  C   UNK N   1       1.954  -0.193   1.939  0.00  0.00     0.014 C 
HETATM   15  C   UNK N   1       3.115  -0.074   0.936  0.00  0.00    -0.013 C 
HETATM   16  C   UNK N   1       2.815  -0.920  -0.314  0.00  0.00     0.014 C 
HETATM   17  C   UNK N   1       3.263   1.395   0.518  0.00  0.00     0.009 C 
HETATM   18  C   UNK N   1      -0.432  -3.360  -1.326  0.00  0.00     0.072 C 
HETATM   19  C   UNK N   1       0.488  -4.450  -0.776  0.00  0.00     0.015 C 
ENDROOT
BRANCH   1  20
HETATM   20  C   UNK N   1      -0.278  -6.527   0.536  0.00  0.00    -0.054 A 
HETATM   21  C   UNK N   1      -1.426  -7.023   1.165  0.00  0.00     0.010 A 
HETATM   22  C   UNK N   1      -1.648  -8.395   1.236  0.00  0.00     0.037 A 
HETATM   23  C   UNK N   1      -0.725  -9.296   0.678  0.00  0.00     0.068 A 
HETATM   24  C   UNK N   1       0.414  -8.801   0.036  0.00  0.00     0.037 A 
HETATM   25  C   UNK N   1       0.643  -7.423  -0.024  0.00  0.00     0.010 A 
BRANCH  23  26
HETATM   26  O   UNK N   1      -0.916 -10.635   0.754  0.00  0.00    -0.349 OA
BRANCH  26  27
HETATM   27  C   UNK N   1      -1.928 -11.195   1.505  0.00  0.00     0.206 C 
BRANCH  27  28
HETATM   28  C   UNK N   1      -2.986 -11.813   0.602  0.00  0.00     0.299 C 
BRANCH  28  29
HETATM   29  N   UNK N   1      -3.565 -10.812  -0.296  0.00  0.00     0.094 N 
HETATM   30  C   UNK N   1      -4.352 -11.494  -1.332  0.00  0.00     0.298 C 
HETATM   31  C   UNK N   1      -5.698 -11.978  -0.775  0.00  0.00     0.198 C 
HETATM   32  O   UNK N   1      -6.416 -10.879  -0.278  0.00  0.00    -0.388 OA
HETATM   33  C   UNK N   1      -5.728 -10.454   0.868  0.00  0.00     0.198 C 
HETATM   34  C   UNK N   1      -4.387  -9.842   0.450  0.00  0.00     0.298 C 
ENDBRANCH  28  29
ENDBRANCH  27  28
ENDBRANCH  26  27
ENDBRANCH  23  26
ENDBRANCH   1  20
TORSDOF 5
