REMARK  9 active torsions:
REMARK  status: ('A' for Active; 'I' for Inactive)
REMARK    1  A    between atoms: C_11  and  C_7 
REMARK    2  A    between atoms: C_13  and  C_7 
REMARK    3  A    between atoms: C_17  and  C_12 
REMARK    4  A    between atoms: C_16  and  C_13 
REMARK    5  A    between atoms: C_13  and  N_28 
REMARK    6  A    between atoms: C_18  and  C_14 
REMARK    7  A    between atoms: N_26  and  C_15 
REMARK    8  A    between atoms: O_29  and  C_16 
REMARK    9  A    between atoms: O_31  and  C_17 
ROOT
HETATM    1  C   UNK N   1       5.359   0.596   0.761  0.00  0.00     0.165 C 
ENDROOT
BRANCH   1   2
HETATM    2  C   UNK N   1       6.503  -0.431   0.760  0.00  0.00     0.038 C 
BRANCH   2   3
HETATM    3  C   UNK N   1       7.045  -0.951  -0.571  0.00  0.00    -0.012 C 
HETATM    4  C   UNK N   1       6.070  -1.874  -1.268  0.00  0.00     0.005 C 
HETATM    5  C   UNK N   1       6.197  -3.218  -0.567  0.00  0.00     0.000 C 
HETATM    6  C   UNK N   1       7.554  -3.212   0.117  0.00  0.00     0.000 C 
HETATM    7  C   UNK N   1       8.196  -1.882  -0.248  0.00  0.00     0.005 C 
ENDBRANCH   2   3
ENDBRANCH   1   2
BRANCH   1   8
HETATM    8  C   UNK N   1       5.634   1.893   0.017  0.00  0.00     0.141 C 
HETATM    9  N   UNK N   1       4.619   2.520  -0.484  0.00  0.00    -0.325 N 
ATOM     10  HN  UNK N   1       3.818   1.955  -0.763  1.00  0.00     0.169 HD
BRANCH   9  11
HETATM   11  C   UNK N   1       4.518   3.918  -0.682  0.00  0.00     0.106 A 
HETATM   12  C   UNK N   1       3.262   4.422  -1.038  0.00  0.00     0.050 A 
HETATM   13  C   UNK N   1       2.974   5.769  -0.828  0.00  0.00     0.023 A 
HETATM   14  C   UNK N   1       3.934   6.601  -0.244  0.00  0.00     0.053 A 
HETATM   15  C   UNK N   1       5.195   6.075   0.052  0.00  0.00     0.108 A 
HETATM   16  N   UNK N   1       5.451   4.757  -0.155  0.00  0.00    -0.351 N 
ATOM     17  HN  UNK N   1       6.369   4.386   0.091  1.00  0.00     0.166 HD
BRANCH  14  18
HETATM   18  C   UNK N   1       3.602   7.986   0.136  0.00  0.00     0.177 C 
HETATM   19  O   UNK N   1       2.478   8.425  -0.056  0.00  0.00    -0.646 OA
BRANCH  18  20
HETATM   20  O   UNK N   1       4.516   8.753   0.760  0.00  0.00    -0.773 OA
HETATM   21  H   UNK N   1       5.296   8.469   1.195  0.00  0.00     0.167 HD
ENDBRANCH  18  20
ENDBRANCH  14  18
ENDBRANCH   9  11
BRANCH   8  22
HETATM   22  O   UNK N   1       6.823   2.508   0.176  0.00  0.00    -0.348 OA
HETATM   23  H   UNK N   1       7.606   2.006   0.287  0.00  0.00     0.219 HD
ENDBRANCH   8  22
ENDBRANCH   1   8
BRANCH   1  24
HETATM   24  N   UNK N   1       4.013   0.042   0.513  0.00  0.00    -0.338 N 
HETATM   25  C   UNK N   1       2.867   0.752   0.537  0.00  0.00     0.127 A 
HETATM   26  C   UNK N   1       1.842  -0.107   0.255  0.00  0.00     0.133 A 
HETATM   27  N   UNK N   1       2.325  -1.354   0.094  0.00  0.00    -0.347 N 
HETATM   28  C   UNK N   1       3.660  -1.236   0.262  0.00  0.00     0.184 A 
ATOM     29  HN  UNK N   1       1.798  -2.203  -0.111  1.00  0.00     0.166 HD
BRANCH  26  30
HETATM   30  C   UNK N   1       0.411   0.290   0.094  0.00  0.00     0.433 C 
HETATM   31  F   UNK N   1      -0.043   0.891   1.253  0.00  0.00    -0.165 F 
HETATM   32  F   UNK N   1      -0.368  -0.816  -0.186  0.00  0.00    -0.165 F 
HETATM   33  F   UNK N   1       0.309   1.191  -0.952  0.00  0.00    -0.165 F 
ENDBRANCH  26  30
ENDBRANCH   1  24
TORSDOF 9
