REMARK  10 active torsions:
REMARK  status: ('A' for Active; 'I' for Inactive)
REMARK    1  A    between atoms: C_6  and  S_7 
REMARK    2  A    between atoms: S_7  and  N_10 
REMARK    3  A    between atoms: N_10  and  C_11 
REMARK    4  A    between atoms: C_26  and  N_10 
REMARK    5  A    between atoms: C_11  and  C_12 
REMARK    6  A    between atoms: C_15  and  C_19 
REMARK    7  A    between atoms: C_26  and  C_27 
REMARK    8  A    between atoms: C_26  and  C_33 
REMARK    9  A    between atoms: C_27  and  C_28 
REMARK   10  A    between atoms: C_28  and  C_29 
REMARK       I    between atoms: C_33  and  N_35 
ROOT
HETATM    1  N   UNK N   1       1.218   7.533  -0.237  0.00  0.00    -0.289 N 
ENDROOT
BRANCH   1   2
HETATM    2  S   UNK N   1       0.963   8.865   0.917  0.00  0.00     0.261 S 
HETATM    3  O   UNK N   1       1.615   8.482   2.252  0.00  0.00    -0.200 OA
HETATM    4  O   UNK N   1      -0.527   8.773   1.295  0.00  0.00    -0.200 OA
BRANCH   2   5
HETATM    5  C   UNK N   1       1.250  10.530   0.374  0.00  0.00     0.079 A 
HETATM    6  C   UNK N   1       2.367  10.859  -0.399  0.00  0.00     0.027 A 
HETATM    7  C   UNK N   1       2.563  12.182  -0.802  0.00  0.00     0.025 A 
HETATM    8  C   UNK N   1       1.639  13.168  -0.436  0.00  0.00     0.034 A 
HETATM    9  C   UNK N   1       0.517  12.831   0.323  0.00  0.00     0.025 A 
HETATM   10 Cl   UNK N   1       1.889  14.830  -0.910  0.00  0.00    -0.084 Cl
HETATM   11  C   UNK N   1       0.324  11.513   0.725  0.00  0.00     0.027 A 
ENDBRANCH   2   5
ENDBRANCH   1   2
BRANCH   1  12
HETATM   12  C   UNK N   1      -0.094   6.917  -0.528  0.00  0.00     0.178 C 
BRANCH  12  13
HETATM   13  C   UNK N   1      -0.217   5.448  -0.701  0.00  0.00    -0.001 C 
HETATM   14  C   UNK N   1       0.706   4.737  -1.466  0.00  0.00     0.013 C 
HETATM   15  C   UNK N   1       0.627   3.350  -1.525  0.00  0.00     0.016 C 
HETATM   16  C   UNK N   1      -0.402   2.684  -0.851  0.00  0.00     0.013 C 
HETATM   17  C   UNK N   1      -1.404   3.406  -0.206  0.00  0.00     0.058 C 
HETATM   18  C   UNK N   1      -1.322   4.787  -0.138  0.00  0.00     0.125 C 
HETATM   19  F   UNK N   1      -2.273   5.472   0.545  0.00  0.00    -0.205 F 
BRANCH  16  20
HETATM   20  C   UNK N   1      -0.203   1.307  -0.465  0.00  0.00     0.137 A 
HETATM   21  N   UNK N   1       0.913   0.605  -0.737  0.00  0.00    -0.329 N 
HETATM   22  C   UNK N   1       0.819  -0.467   0.068  0.00  0.00     0.261 A 
ATOM     23  HN  UNK N   1       1.655   0.833  -1.398  1.00  0.00     0.168 HD
HETATM   24  O   UNK N   1      -0.289  -0.385   0.781  0.00  0.00    -0.231 OA
HETATM   25  N   UNK N   1      -0.931   0.688   0.487  0.00  0.00    -0.243 N 
ATOM     26  HN  UNK N   1      -1.811   1.007   0.891  1.00  0.00     0.196 HD
ENDBRANCH  16  20
ENDBRANCH  12  13
ENDBRANCH   1  12
BRANCH   1  27
HETATM   27  C   UNK N   1       2.482   6.754  -0.109  0.00  0.00     0.188 C 
BRANCH  27  28
HETATM   28  C   UNK N   1       2.616   5.997   1.215  0.00  0.00     0.044 C 
BRANCH  28  29
HETATM   29  C   UNK N   1       2.735   4.475   1.071  0.00  0.00     0.120 C 
BRANCH  29  30
HETATM   30  C   UNK N   1       3.834   3.954   0.137  0.00  0.00     0.388 C 
HETATM   31  F   UNK N   1       3.513   4.207  -1.182  0.00  0.00    -0.171 F 
HETATM   32  F   UNK N   1       5.056   4.533   0.426  0.00  0.00    -0.171 F 
HETATM   33  F   UNK N   1       3.937   2.586   0.307  0.00  0.00    -0.171 F 
ENDBRANCH  29  30
ENDBRANCH  28  29
ENDBRANCH  27  28
BRANCH  27  34
HETATM   34  C   UNK N   1       3.709   7.628  -0.297  0.00  0.00     0.239 C 
HETATM   35  O   UNK N   1       3.982   8.504   0.511  0.00  0.00    -0.271 OA
HETATM   36  N   UNK N   1       4.534   7.414  -1.339  0.00  0.00    -0.368 N 
HETATM   37  H   UNK N   1       4.700   6.813  -2.102  0.00  0.00     0.159 HD
HETATM   38  H   UNK N   1       5.225   8.115  -1.339  0.00  0.00     0.159 HD
ENDBRANCH  27  34
ENDBRANCH   1  27
TORSDOF 10
