REMARK  7 active torsions:
REMARK  status: ('A' for Active; 'I' for Inactive)
REMARK    1  A    between atoms: O_2  and  C_3 
REMARK    2  A    between atoms: C_7  and  N_9 
REMARK    3  A    between atoms: N_9  and  C_10 
REMARK    4  A    between atoms: C_12  and  C_21 
REMARK    5  A    between atoms: C_21  and  N_22 
REMARK    6  A    between atoms: C_25  and  N_29 
REMARK    7  A    between atoms: C_26  and  O_28 
ROOT
HETATM    1  C   UNK N   1       0.942   0.167  -0.261  0.00  0.00     0.136 A 
HETATM    2  C   UNK N   1      -0.216   0.933  -0.277  0.00  0.00     0.108 A 
HETATM    3  C   UNK N   1      -1.528   0.568  -0.452  0.00  0.00     0.004 A 
HETATM    4  C   UNK N   1      -2.287   1.734  -0.354  0.00  0.00     0.030 A 
HETATM    5  C   UNK N   1      -1.379   2.770  -0.121  0.00  0.00     0.117 A 
HETATM    6  N   UNK N   1      -0.141   2.249  -0.083  0.00  0.00    -0.263 N 
HETATM    7  N   UNK N   1       1.006   2.889   0.120  0.00  0.00    -0.289 N 
ATOM      8  HN  UNK N   1       1.020   3.899   0.264  1.00  0.00     0.188 HD
HETATM    9  C   UNK N   1       2.166   2.169   0.133  0.00  0.00     0.199 A 
HETATM   10  N   UNK N   1       2.127   0.813  -0.051  0.00  0.00    -0.336 N 
ATOM     11  HN  UNK N   1       2.995   0.278  -0.033  1.00  0.00     0.168 HD
ENDROOT
BRANCH   3  12
HETATM   12  C   UNK N   1      -2.052  -0.813  -0.695  0.00  0.00     0.313 C 
BRANCH  12  13
HETATM   13  N   UNK N   1      -2.452  -1.440   0.565  0.00  0.00     0.095 N 
HETATM   14  C   UNK N   1      -2.671  -2.883   0.376  0.00  0.00     0.275 C 
HETATM   15  C   UNK N   1      -3.920  -3.188  -0.463  0.00  0.00     0.057 C 
HETATM   16  C   UNK N   1      -5.139  -2.495   0.133  0.00  0.00     0.106 C 
HETATM   17  C   UNK N   1      -4.863  -1.001   0.216  0.00  0.00     0.168 C 
HETATM   18  C   UNK N   1      -3.649  -0.791   1.117  0.00  0.00     0.306 C 
BRANCH  16  19
HETATM   19  N   UNK N   1      -6.297  -2.747  -0.705  0.00  0.00    -0.424 N 
HETATM   20  H   UNK N   1      -6.857  -2.130  -1.294  0.00  0.00     0.150 HD
HETATM   21  H   UNK N   1      -6.609  -3.718  -0.705  0.00  0.00     0.150 HD
ENDBRANCH  16  19
BRANCH  17  22
HETATM   22  O   UNK N   1      -5.959  -0.322   0.745  0.00  0.00    -0.392 OA
HETATM   23  H   UNK N   1      -5.931   0.575   1.114  0.00  0.00     0.210 HD
ENDBRANCH  17  22
ENDBRANCH  12  13
ENDBRANCH   3  12
BRANCH   1  24
HETATM   24  N   UNK N   1       0.867  -1.245  -0.417  0.00  0.00    -0.340 N 
HETATM   25  H   UNK N   1      -0.016  -1.622  -0.637  0.00  0.00     0.167 HD
BRANCH  24  26
HETATM   26  C   UNK N   1       1.941  -2.163  -0.285  0.00  0.00     0.036 A 
HETATM   27  C   UNK N   1       1.665  -3.533  -0.326  0.00  0.00     0.029 A 
HETATM   28  C   UNK N   1       2.693  -4.465  -0.163  0.00  0.00     0.005 A 
HETATM   29  C   UNK N   1       4.005  -4.030   0.039  0.00  0.00     0.037 A 
HETATM   30  C   UNK N   1       4.297  -2.663   0.077  0.00  0.00     0.070 A 
HETATM   31  C   UNK N   1       3.258  -1.733  -0.082  0.00  0.00     0.066 A 
BRANCH  30  32
HETATM   32  O   UNK N   1       5.577  -2.264   0.267  0.00  0.00    -0.356 OA
HETATM   33  C   UNK N   1       5.954  -0.940   0.297  0.00  0.00     0.210 C 
ENDBRANCH  30  32
ENDBRANCH  24  26
ENDBRANCH   1  24
TORSDOF 7
