REMARK  9 active torsions:
REMARK  status: ('A' for Active; 'I' for Inactive)
REMARK    1  A    between atoms: O_2  and  C_3 
REMARK    2  A    between atoms: C_3  and  C_4 
REMARK    3  A    between atoms: C_4  and  O_5 
REMARK    4  A    between atoms: O_5  and  C_6 
REMARK    5  A    between atoms: C_9  and  N_12 
REMARK    6  A    between atoms: N_15  and  C_18 
REMARK    7  A    between atoms: C_18  and  C_19 
REMARK    8  A    between atoms: C_19  and  N_20 
REMARK    9  A    between atoms: C_29  and  C_37 
REMARK       I    between atoms: C_33  and  N_36 
ROOT
HETATM    1  N   UNK N   1       3.465   1.489  -0.808  0.00  0.00    -0.274 N 
HETATM    2  C   UNK N   1       2.257   1.884  -0.402  0.00  0.00     0.153 A 
HETATM    3  C   UNK N   1       1.517   0.786  -0.162  0.00  0.00     0.073 A 
HETATM    4  C   UNK N   1       2.304  -0.309  -0.421  0.00  0.00     0.126 A 
HETATM    5  N   UNK N   1       3.506   0.160  -0.815  0.00  0.00    -0.307 N 
ATOM      6  HN  UNK N   1       4.312  -0.409  -1.075  1.00  0.00     0.186 HD
HETATM    7  C   UNK N   1       0.230   0.938   0.189  0.00  0.00     0.162 A 
HETATM    8  N   UNK N   1      -0.669  -0.025   0.333  0.00  0.00    -0.322 N 
ATOM      9  HN  UNK N   1      -0.528  -1.035   0.324  1.00  0.00     0.169 HD
HETATM   10  C   UNK N   1      -1.813   0.663   0.495  0.00  0.00     0.157 A 
HETATM   11  N   UNK N   1      -1.605   2.012   0.491  0.00  0.00    -0.260 N 
ATOM     12  HN  UNK N   1      -2.301   2.748   0.613  1.00  0.00     0.190 HD
HETATM   13  N   UNK N   1      -0.312   2.156   0.296  0.00  0.00    -0.067 N 
HETATM   14  C   UNK N   1       0.441   3.294   0.111  0.00  0.00     0.700 A 
HETATM   15  N   UNK N   1       1.764   3.159  -0.252  0.00  0.00    -0.173 N 
ATOM     16  HN  UNK N   1       2.357   3.976  -0.403  1.00  0.00     0.186 HD
HETATM   17  N   UNK N   1      -0.149   4.573   0.215  0.00  0.00    -0.233 N 
HETATM   18  H   UNK N   1       0.418   5.375   0.287  0.00  0.00     0.174 HD
HETATM   19  H   UNK N   1      -1.129   4.663   0.215  0.00  0.00     0.174 HD
ENDROOT
BRANCH   1  20
HETATM   20  C   UNK N   1       4.610   2.298  -1.106  0.00  0.00     0.181 C 
BRANCH  20  21
HETATM   21  C   UNK N   1       5.655   1.886  -0.091  0.00  0.00     0.294 C 
BRANCH  21  22
HETATM   22  N   UNK N   1       5.142   1.952   1.299  0.00  0.00     0.093 N 
HETATM   23  C   UNK N   1       6.304   1.979   2.190  0.00  0.00     0.292 C 
HETATM   24  C   UNK N   1       7.076   3.285   2.039  0.00  0.00     0.153 C 
HETATM   25  N   UNK N   1       6.398   4.140   1.081  0.00  0.00    -0.378 N 
HETATM   26  C   UNK N   1       5.020   4.461   1.335  0.00  0.00     0.153 C 
HETATM   27  C   UNK N   1       4.288   3.138   1.576  0.00  0.00     0.292 C 
BRANCH  25  28
HETATM   28  C   UNK N   1       7.131   4.742   0.039  0.00  0.00     0.030 C 
HETATM   29  C   UNK N   1       8.444   4.283  -0.129  0.00  0.00     0.032 C 
HETATM   30  C   UNK N   1       9.478   5.192  -0.170  0.00  0.00     0.039 C 
HETATM   31  C   UNK N   1       9.179   6.543  -0.058  0.00  0.00     0.069 C 
HETATM   32  C   UNK N   1       7.855   6.990  -0.212  0.00  0.00     0.039 C 
HETATM   33  C   UNK N   1       6.821   6.076  -0.203  0.00  0.00     0.032 C 
BRANCH  31  34
HETATM   34  O   UNK N   1      10.155   7.386   0.313  0.00  0.00    -0.349 OA
BRANCH  34  35
HETATM   35  C   UNK N   1       9.869   8.550   0.985  0.00  0.00     0.201 C 
BRANCH  35  36
HETATM   36  C   UNK N   1      10.058   9.704   0.043  0.00  0.00     0.193 C 
BRANCH  36  37
HETATM   37  O   UNK N   1       8.937   9.820  -0.773  0.00  0.00    -0.394 OA
HETATM   38  C   UNK N   1       9.172  10.985  -1.496  0.00  0.00     0.201 C 
ENDBRANCH  36  37
ENDBRANCH  35  36
ENDBRANCH  34  35
ENDBRANCH  31  34
ENDBRANCH  25  28
ENDBRANCH  21  22
ENDBRANCH  20  21
ENDBRANCH   1  20
BRANCH  10  39
HETATM   39  C   UNK N   1      -3.085  -0.011   0.321  0.00  0.00     0.120 A 
HETATM   40  C   UNK N   1      -3.198  -1.370   0.125  0.00  0.00     0.043 A 
HETATM   41  C   UNK N   1      -4.514  -1.584  -0.214  0.00  0.00     0.027 A 
HETATM   42  C   UNK N   1      -5.119  -0.336  -0.218  0.00  0.00     0.142 A 
HETATM   43  O   UNK N   1      -4.229   0.576   0.099  0.00  0.00    -0.319 OA
ENDBRANCH  10  39
TORSDOF 9
