REMARK  4 active torsions:
REMARK  status: ('A' for Active; 'I' for Inactive)
REMARK    1  A    between atoms: C_4  and  C_7 
REMARK    2  A    between atoms: C_7  and  C_8 
REMARK    3  A    between atoms: C_7  and  N_16 
REMARK    4  A    between atoms: C_8  and  C_9 
ROOT
HETATM    1  C   UNK N   1       1.954  -1.810   0.295  0.00  0.00     0.112 C 
ENDROOT
BRANCH   1   2
HETATM    2  C   UNK N   1       1.663  -3.281   0.219  0.00  0.00    -0.036 A 
HETATM    3  C   UNK N   1       0.340  -3.718   0.386  0.00  0.00     0.009 A 
HETATM    4  C   UNK N   1       0.027  -5.075   0.289  0.00  0.00     0.001 A 
HETATM    5  C   UNK N   1       1.034  -6.006   0.026  0.00  0.00     0.000 A 
HETATM    6  C   UNK N   1       2.356  -5.581  -0.134  0.00  0.00     0.001 A 
HETATM    7  C   UNK N   1       2.672  -4.222  -0.037  0.00  0.00     0.009 A 
ENDBRANCH   1   2
BRANCH   1   8
HETATM    8  C   UNK N   1       1.198  -1.113  -0.826  0.00  0.00     0.086 C 
BRANCH   8   9
HETATM    9  C   UNK N   1       0.821   0.269  -0.438  0.00  0.00     0.011 A 
HETATM   10  C   UNK N   1      -0.513   0.552  -0.137  0.00  0.00     0.025 A 
HETATM   11  C   UNK N   1      -0.871   1.849   0.226  0.00  0.00     0.003 A 
HETATM   12  C   UNK N   1       0.103   2.846   0.276  0.00  0.00     0.017 A 
HETATM   13  C   UNK N   1       1.427   2.527  -0.037  0.00  0.00     0.088 A 
HETATM   14  N   UNK N   1       1.759   1.253  -0.384  0.00  0.00    -0.369 N 
ATOM     15  HN  UNK N   1       2.730   1.032  -0.606  1.00  0.00     0.165 HD
ENDBRANCH   8   9
ENDBRANCH   1   8
BRANCH   1  16
HETATM   16  N   UNK N   1       3.377  -1.519   0.188  0.00  0.00    -0.422 N 
HETATM   17  H   UNK N   1       4.051  -2.280   0.112  0.00  0.00     0.150 HD
HETATM   18  H   UNK N   1       3.700  -0.551   0.188  0.00  0.00     0.150 HD
ENDBRANCH   1  16
TORSDOF 4
