REMARK  16 active torsions:
REMARK  status: ('A' for Active; 'I' for Inactive)
REMARK    1  A    between atoms: C_2  and  C_4 
REMARK    2  A    between atoms: C_2  and  N_29 
REMARK    3  A    between atoms: C_4  and  C_5 
REMARK    4  A    between atoms: C_9  and  C_11 
REMARK    5  A    between atoms: C_11  and  C_12 
REMARK       I    between atoms: C_12  and  N_14 
REMARK    6  A    between atoms: N_14  and  C_15 
REMARK    7  A    between atoms: C_15  and  C_16 
REMARK    8  A    between atoms: C_20  and  C_22 
REMARK    9  A    between atoms: C_25  and  O_28 
REMARK   10  A    between atoms: N_29  and  C_30 
REMARK   11  A    between atoms: C_30  and  C_31 
REMARK   12  A    between atoms: C_31  and  C_32 
REMARK   13  A    between atoms: C_31  and  O_44 
REMARK   14  A    between atoms: C_35  and  O_43 
REMARK   15  A    between atoms: C_36  and  N_38 
REMARK   16  A    between atoms: N_38  and  S_39 
ROOT
HETATM    1  C   UNK N   1      -2.452  -3.867  -0.212  0.00  0.00    -0.055 A 
HETATM    2  C   UNK N   1      -1.761  -3.862  -1.436  0.00  0.00     0.007 A 
HETATM    3  C   UNK N   1      -1.390  -5.068  -2.037  0.00  0.00     0.001 A 
HETATM    4  C   UNK N   1      -1.713  -6.278  -1.417  0.00  0.00     0.007 A 
HETATM    5  C   UNK N   1      -2.393  -6.273  -0.190  0.00  0.00    -0.049 A 
HETATM    6  C   UNK N   1      -2.757  -5.072   0.404  0.00  0.00     0.014 A 
ENDROOT
BRANCH   1   7
HETATM    7  C   UNK N   1      -2.717  -2.588   0.525  0.00  0.00     0.068 C 
BRANCH   7   8
HETATM    8  C   UNK N   1      -1.452  -2.159   1.275  0.00  0.00     0.022 C 
HETATM    9  C   UNK N   1      -1.210  -3.097   2.454  0.00  0.00     0.038 C 
HETATM   10  C   UNK N   1      -1.648  -0.748   1.799  0.00  0.00     0.038 C 
BRANCH   8  11
HETATM   11  N   UNK N   1      -0.362  -2.198   0.300  0.00  0.00    -0.410 N 
HETATM   12  H   UNK N   1      -0.546  -2.210  -0.703  0.00  0.00     0.154 HD
BRANCH  11  13
HETATM   13  C   UNK N   1       0.992  -2.219   0.821  0.00  0.00     0.151 C 
BRANCH  13  14
HETATM   14  C   UNK N   1       1.878  -1.640  -0.269  0.00  0.00     0.168 C 
BRANCH  14  15
HETATM   15  C   UNK N   1       1.641  -0.156  -0.314  0.00  0.00    -0.026 A 
HETATM   16  C   UNK N   1       0.357   0.336  -0.583  0.00  0.00     0.012 A 
HETATM   17  C   UNK N   1       0.085   1.694  -0.483  0.00  0.00     0.039 A 
HETATM   18  C   UNK N   1       1.097   2.586  -0.137  0.00  0.00     0.092 A 
HETATM   19  C   UNK N   1       2.415   2.108   0.076  0.00  0.00     0.076 A 
HETATM   20  C   UNK N   1       2.663   0.738  -0.004  0.00  0.00     0.043 A 
BRANCH  18  21
HETATM   21  O   UNK N   1       0.783   3.884  -0.011  0.00  0.00    -0.358 OA
HETATM   22  H   UNK N   1       1.459   4.527   0.076  0.00  0.00     0.217 HD
ENDBRANCH  18  21
BRANCH  19  23
HETATM   23  N   UNK N   1       3.524   2.952   0.363  0.00  0.00    -0.282 N 
HETATM   24  H   UNK N   1       4.383   2.509   0.551  0.00  0.00     0.178 HD
BRANCH  23  25
HETATM   25  S   UNK N   1       3.511   4.709   0.414  0.00  0.00     0.227 S 
HETATM   26  O   UNK N   1       2.892   5.225  -0.893  0.00  0.00    -0.206 OA
HETATM   27  O   UNK N   1       4.980   5.147   0.342  0.00  0.00    -0.206 OA
HETATM   28  C   UNK N   1       4.326   4.054  -1.074  0.00  0.00     0.186 C 
ENDBRANCH  23  25
ENDBRANCH  19  23
ENDBRANCH  14  15
BRANCH  14  29
HETATM   29  O   UNK N   1       3.212  -1.949   0.003  0.00  0.00    -0.389 OA
HETATM   30  H   UNK N   1       3.490  -2.858   0.192  0.00  0.00     0.210 HD
ENDBRANCH  14  29
ENDBRANCH  13  14
ENDBRANCH  11  13
ENDBRANCH   8  11
ENDBRANCH   7   8
ENDBRANCH   1   7
BRANCH   5  31
HETATM   31  C   UNK N   1      -2.827  -7.529   0.463  0.00  0.00     0.141 C 
BRANCH  31  32
HETATM   32  C   UNK N   1      -1.741  -8.532   0.696  0.00  0.00     0.222 C 
HETATM   33  O   UNK N   1      -0.858  -8.294   1.496  0.00  0.00    -0.273 OA
HETATM   34  N   UNK N   1      -1.761  -9.722   0.039  0.00  0.00    -0.357 N 
HETATM   35  H   UNK N   1      -1.080 -10.396   0.266  0.00  0.00     0.162 HD
BRANCH  34  36
HETATM   36  C   UNK N   1      -2.739 -10.045  -0.982  0.00  0.00     0.161 C 
BRANCH  36  37
HETATM   37  C   UNK N   1      -4.127 -10.224  -0.439  0.00  0.00    -0.040 A 
HETATM   38  C   UNK N   1      -4.542 -11.473   0.030  0.00  0.00     0.009 A 
HETATM   39  C   UNK N   1      -5.855 -11.651   0.475  0.00  0.00     0.001 A 
HETATM   40  C   UNK N   1      -6.756 -10.581   0.455  0.00  0.00     0.012 A 
HETATM   41  C   UNK N   1      -6.353  -9.320  -0.012  0.00  0.00    -0.025 A 
HETATM   42  C   UNK N   1      -5.037  -9.159  -0.471  0.00  0.00     0.021 A 
BRANCH  41  43
HETATM   43  C   UNK N   1      -7.299  -8.174  -0.012  0.00  0.00    -0.026 A 
HETATM   44  C   UNK N   1      -8.637  -8.355   0.374  0.00  0.00     0.015 A 
HETATM   45  C   UNK N   1      -9.527  -7.276   0.380  0.00  0.00     0.037 A 
HETATM   46  C   UNK N   1      -9.087  -6.004   0.008  0.00  0.00     0.065 A 
HETATM   47  C   UNK N   1      -7.757  -5.810  -0.373  0.00  0.00     0.037 A 
HETATM   48  C   UNK N   1      -6.867  -6.889  -0.386  0.00  0.00     0.015 A 
BRANCH  46  49
HETATM   49  O   UNK N   1      -9.942  -4.969   0.017  0.00  0.00    -0.361 OA
HETATM   50  H   UNK N   1      -9.615  -4.091   0.023  0.00  0.00     0.217 HD
ENDBRANCH  46  49
ENDBRANCH  41  43
ENDBRANCH  36  37
ENDBRANCH  34  36
ENDBRANCH  31  32
ENDBRANCH   5  31
TORSDOF 16
