REMARK  6 active torsions:
REMARK  status: ('A' for Active; 'I' for Inactive)
REMARK    1  A    between atoms: C_2  and  O_4 
REMARK    2  A    between atoms: O_4  and  C_5 
REMARK    3  A    between atoms: C_14  and  C_25 
REMARK    4  A    between atoms: C_16  and  O_17 
REMARK    5  A    between atoms: O_17  and  C_18 
REMARK    6  A    between atoms: C_25  and  O_27 
ROOT
HETATM    1  C   UNK N   1       0.717  -3.257   0.046  0.00  0.00     0.094 A 
HETATM    2  C   UNK N   1      -0.493  -2.550   0.121  0.00  0.00     0.038 A 
HETATM    3  C   UNK N   1      -0.498  -1.157   0.189  0.00  0.00     0.004 A 
HETATM    4  C   UNK N   1       0.705  -0.452   0.183  0.00  0.00     0.017 A 
HETATM    5  C   UNK N   1       1.928  -1.131   0.109  0.00  0.00     0.032 A 
HETATM    6  C   UNK N   1       3.201  -0.371   0.110  0.00  0.00     0.194 A 
HETATM    7  O   UNK N   1       3.182   0.852   0.169  0.00  0.00    -0.287 OA
HETATM    8  C   UNK N   1       4.498  -1.089   0.054  0.00  0.00     0.033 A 
HETATM    9  C   UNK N   1       5.701  -0.370   0.081  0.00  0.00     0.035 A 
HETATM   10  C   UNK N   1       6.933  -1.035   0.046  0.00  0.00     0.041 A 
HETATM   11  C   UNK N   1       6.958  -2.430  -0.011  0.00  0.00     0.056 A 
HETATM   12  C   UNK N   1       5.770  -3.174  -0.038  0.00  0.00     0.095 A 
HETATM   13  C   UNK N   1       4.527  -2.499  -0.012  0.00  0.00     0.063 A 
HETATM   14  C   UNK N   1       3.245  -3.256  -0.033  0.00  0.00     0.199 A 
HETATM   15  O   UNK N   1       3.264  -4.477  -0.105  0.00  0.00    -0.286 OA
HETATM   16  C   UNK N   1       1.941  -2.542   0.040  0.00  0.00     0.063 A 
ENDROOT
BRANCH   1  17
HETATM   17  O   UNK N   1       0.747  -4.619  -0.017  0.00  0.00    -0.278 OA
BRANCH  17  18
HETATM   18  C   UNK N   1      -0.290  -5.497  -0.035  0.00  0.00     0.260 C 
HETATM   19  C   UNK N   1       0.006  -6.956  -0.088  0.00  0.00     0.126 C 
HETATM   20  O   UNK N   1      -1.450  -5.119  -0.013  0.00  0.00    -0.265 OA
ENDBRANCH  17  18
ENDBRANCH   1  17
BRANCH  12  21
HETATM   21  O   UNK N   1       5.785  -4.536  -0.080  0.00  0.00    -0.278 OA
BRANCH  21  22
HETATM   22  C   UNK N   1       6.837  -5.375   0.105  0.00  0.00     0.260 C 
HETATM   23  O   UNK N   1       7.940  -4.957   0.418  0.00  0.00    -0.265 OA
HETATM   24  C   UNK N   1       6.617  -6.843  -0.020  0.00  0.00     0.126 C 
ENDBRANCH  21  22
ENDBRANCH  12  21
BRANCH  10  25
HETATM   25  C   UNK N   1       8.200  -0.279   0.081  0.00  0.00     0.176 C 
HETATM   26  O   UNK N   1       8.190   0.940   0.155  0.00  0.00    -0.646 OA
BRANCH  25  27
HETATM   27  O   UNK N   1       9.379  -0.931   0.037  0.00  0.00    -0.773 OA
HETATM   28  H   UNK N   1       9.396  -1.867   0.006  0.00  0.00     0.167 HD
ENDBRANCH  25  27
ENDBRANCH  10  25
TORSDOF 6
