REMARK  2 active torsions:
REMARK  status: ('A' for Active; 'I' for Inactive)
REMARK    1  A    between atoms: C_6  and  C_7 
REMARK    2  A    between atoms: C_15  and  C_20 
ROOT
HETATM    1  C   UNK N   1      -1.391  -2.332  -0.000  0.00  0.00     0.014 A 
HETATM    2  C   UNK N   1      -0.231  -3.109  -0.000  0.00  0.00     0.031 A 
HETATM    3  C   UNK N   1       1.027  -2.500  -0.000  0.00  0.00     0.043 A 
HETATM    4  C   UNK N   1       1.136  -1.087   0.000  0.00  0.00     0.003 A 
HETATM    5  C   UNK N   1      -0.046  -0.327   0.000  0.00  0.00     0.026 A 
HETATM    6  C   UNK N   1      -1.311  -0.936  -0.000  0.00  0.00    -0.034 A 
HETATM    7  C   UNK N   1       2.435  -0.493   0.000  0.00  0.00    -0.012 A 
HETATM    8  C   UNK N   1       3.547  -1.349  -0.000  0.00  0.00     0.030 A 
HETATM    9  C   UNK N   1       3.384  -2.732  -0.000  0.00  0.00     0.089 A 
HETATM   10  N   UNK N   1       2.142  -3.275  -0.000  0.00  0.00    -0.365 N 
ATOM     11  HN  UNK N   1       2.043  -4.290  -0.000  1.00  0.00     0.165 HD
ENDROOT
BRANCH   6  12
HETATM   12  C   UNK N   1      -2.577  -0.159   0.000  0.00  0.00     0.036 C 
HETATM   13  C   UNK N   1      -2.717   1.183  -0.000  0.00  0.00     0.079 A 
HETATM   14  C   UNK N   1      -4.013   1.850   0.000  0.00  0.00     0.266 A 
HETATM   15  S   UNK N   1      -1.381   2.387  -0.000  0.00  0.00    -0.024 SA
HETATM   16  O   UNK N   1      -5.085   1.262   0.000  0.00  0.00    -0.267 OA
HETATM   17  N   UNK N   1      -3.941   3.188   0.000  0.00  0.00    -0.283 N 
HETATM   18  C   UNK N   1      -2.671   3.637  -0.000  0.00  0.00     0.291 A 
HETATM   19  H   UNK N   1      -4.730   3.777   0.000  0.00  0.00     0.172 HD
HETATM   20  O   UNK N   1      -2.417   4.830  -0.000  0.00  0.00    -0.260 OA
ENDBRANCH   6  12
BRANCH   7  21
HETATM   21  C   UNK N   1       2.695   0.988   0.000  0.00  0.00    -0.022 A 
HETATM   22  C   UNK N   1       1.657   1.923   0.000  0.00  0.00     0.029 A 
HETATM   23  C   UNK N   1       1.931   3.291   0.000  0.00  0.00     0.088 A 
HETATM   24  N   UNK N   1       3.216   3.727   0.000  0.00  0.00    -0.375 N 
HETATM   25  C   UNK N   1       4.255   2.851  -0.000  0.00  0.00     0.088 A 
ATOM     26  HN  UNK N   1       3.406   4.729   0.000  1.00  0.00     0.164 HD
HETATM   27  C   UNK N   1       4.014   1.473  -0.000  0.00  0.00     0.029 A 
ENDBRANCH   7  21
TORSDOF 2
