REMARK  17 active torsions:
REMARK  status: ('A' for Active; 'I' for Inactive)
REMARK    1  A    between atoms: C_11  and  C_10 
REMARK    2  A    between atoms: C_12  and  C_11 
REMARK    3  A    between atoms: C_14  and  C_13 
REMARK    4  A    between atoms: C_39  and  C_15 
REMARK    5  A    between atoms: C_40  and  C_20 
REMARK    6  A    between atoms: C_41  and  C_22 
REMARK    7  A    between atoms: C_37  and  C_28 
REMARK    8  A    between atoms: C_28  and  O_48 
REMARK    9  A    between atoms: O_59  and  C_29 
REMARK   10  A    between atoms: C_32  and  O_50 
REMARK   11  A    between atoms: C_38  and  O_59 
REMARK   12  A    between atoms: O_62  and  C_39 
REMARK   13  A    between atoms: O_57  and  C_40 
REMARK   14  A    between atoms: O_58  and  C_41 
REMARK   15  A    between atoms: C_43  and  O_62 
REMARK   16  A    between atoms: C_46  and  O_55 
REMARK   17  A    between atoms: C_47  and  O_56 
ROOT
HETATM    1  C   UNK N   1       3.435  -0.353   3.168  0.00  0.00     0.025 C 
HETATM    2  C   UNK N   1       1.422   0.909   2.540  0.00  0.00     0.025 C 
HETATM    3  C   UNK N   1      11.488  -0.191  -0.129  0.00  0.00     0.023 C 
HETATM    4  C   UNK N   1      10.113  -1.103   1.687  0.00  0.00     0.023 C 
HETATM    5  C   UNK N   1       4.309   1.438   1.117  0.00  0.00     0.002 C 
HETATM    6  C   UNK N   1       3.285   0.571   0.891  0.00  0.00    -0.014 C 
HETATM    7  C   UNK N   1       5.308   0.742  -1.124  0.00  0.00     0.070 C 
HETATM    8  C   UNK N   1       6.344  -0.677   0.749  0.00  0.00     0.066 C 
HETATM    9  C   UNK N   1       5.445  -1.774  -1.242  0.00  0.00     0.085 C 
HETATM   10  C   UNK N   1       1.183  -3.461  -0.492  0.00  0.00     0.069 C 
HETATM   11  C   UNK N   1      -0.802  -3.375   1.002  0.00  0.00     0.087 C 
HETATM   12  C   UNK N   1       7.595  -4.303  -0.490  0.00  0.00     0.064 C 
HETATM   13  C   UNK N   1       6.003  -6.167  -0.242  0.00  0.00     0.142 C 
HETATM   14  C   UNK N   1       3.552  -4.370   0.036  0.00  0.00     0.067 C 
HETATM   15  C   UNK N   1       9.815  -3.645   0.267  0.00  0.00     0.065 C 
HETATM   16  C   UNK N   1       8.382   0.379  -0.377  0.00  0.00     0.101 C 
HETATM   17  C   UNK N   1       5.656  -0.625  -0.583  0.00  0.00    -0.069 C 
HETATM   18  C   UNK N   1       0.232  -2.752   0.382  0.00  0.00    -0.037 C 
HETATM   19  C   UNK N   1       6.947  -5.240   0.516  0.00  0.00     0.130 C 
HETATM   20  C   UNK N   1       5.365   1.748   0.051  0.00  0.00     0.148 C 
HETATM   21  C   UNK N   1       2.637  -3.133  -0.129  0.00  0.00     0.132 C 
HETATM   22  C   UNK N   1       8.385  -3.141   0.109  0.00  0.00     0.130 C 
HETATM   23  C   UNK N   1       7.338   0.490   0.767  0.00  0.00     0.131 C 
HETATM   24  C   UNK N   1       3.115  -5.511   0.982  0.00  0.00     0.162 C 
HETATM   25  C   UNK N   1      10.874  -2.639  -0.172  0.00  0.00     0.147 C 
HETATM   26  C   UNK N   1       5.120  -6.911   0.708  0.00  0.00     0.261 C 
HETATM   27  C   UNK N   1       0.578  -1.318   0.710  0.00  0.00     0.224 C 
HETATM   28  C   UNK N   1       2.473  -0.058   2.012  0.00  0.00     0.029 C 
HETATM   29  C   UNK N   1      10.399  -1.215   0.190  0.00  0.00     0.036 C 
HETATM   30  C   UNK N   1       9.135  -0.949  -0.698  0.00  0.00     0.173 C 
HETATM   31  C   UNK N   1       1.876  -1.446   1.548  0.00  0.00     0.204 C 
HETATM   32  O   UNK N   1       5.304  -8.105   0.877  0.00  0.00    -0.265 OA
HETATM   33  O   UNK N   1       6.671   1.763   0.661  0.00  0.00    -0.376 OA
HETATM   34  O   UNK N   1       4.189  -6.262   1.459  0.00  0.00    -0.313 OA
HETATM   35  O   UNK N   1       8.228  -2.048  -0.787  0.00  0.00    -0.349 OA
HETATM   36  O   UNK N   1       2.928  -2.172   0.895  0.00  0.00    -0.346 OA
ENDROOT
BRANCH  27  37
HETATM   37  O   UNK N   1       0.737  -0.512  -0.423  0.00  0.00    -0.303 OA
BRANCH  37  38
HETATM   38  C   UNK N   1      -0.131  -0.351  -1.478  0.00  0.00     0.283 C 
HETATM   39  O   UNK N   1       0.260   0.249  -2.466  0.00  0.00    -0.260 OA
BRANCH  38  40
HETATM   40  C   UNK N   1      -1.397  -1.119  -1.572  0.00  0.00     0.082 C 
HETATM   41  C   UNK N   1      -2.231  -1.231  -0.533  0.00  0.00     0.006 C 
BRANCH  41  42
HETATM   42  C   UNK N   1      -3.293  -2.253  -0.516  0.00  0.00    -0.004 C 
HETATM   43  C   UNK N   1      -4.041  -2.411   0.588  0.00  0.00    -0.027 C 
BRANCH  43  44
HETATM   44  C   UNK N   1      -4.959  -3.584   0.780  0.00  0.00     0.027 C 
BRANCH  44  45
HETATM   45  C   UNK N   1      -5.740  -3.974  -0.457  0.00  0.00    -0.001 C 
HETATM   46  C   UNK N   1      -5.375  -5.400  -0.823  0.00  0.00     0.005 C 
ENDBRANCH  44  45
ENDBRANCH  43  44
ENDBRANCH  41  42
ENDBRANCH  38  40
ENDBRANCH  37  38
ENDBRANCH  27  37
BRANCH  31  47
HETATM   47  O   UNK N   1       1.527  -2.168   2.700  0.00  0.00    -0.362 OA
HETATM   48  H   UNK N   1       0.974  -2.209   3.496  0.00  0.00     0.213 HD
ENDBRANCH  31  47
BRANCH  11  49
HETATM   49  C   UNK N   1      -1.262  -4.787   0.820  0.00  0.00     0.282 C 
HETATM   50  O   UNK N   1      -1.866  -5.306   1.745  0.00  0.00    -0.260 OA
BRANCH  49  51
HETATM   51  O   UNK N   1      -1.133  -5.497  -0.332  0.00  0.00    -0.323 OA
HETATM   52  C   UNK N   1      -0.991  -4.939  -1.580  0.00  0.00     0.213 C 
ENDBRANCH  49  51
ENDBRANCH  11  49
BRANCH  24  53
HETATM   53  C   UNK N   1       2.094  -6.452   0.312  0.00  0.00     0.143 C 
HETATM   54  C   UNK N   1       2.605  -7.054  -0.989  0.00  0.00     0.042 C 
BRANCH  53  55
HETATM   55  O   UNK N   1       1.746  -7.482   1.187  0.00  0.00    -0.393 OA
HETATM   56  H   UNK N   1       1.006  -7.631   1.796  0.00  0.00     0.210 HD
ENDBRANCH  53  55
ENDBRANCH  24  53
BRANCH   9  57
HETATM   57  C   UNK N   1       4.842  -1.878  -2.602  0.00  0.00     0.282 C 
HETATM   58  O   UNK N   1       4.384  -0.897  -3.145  0.00  0.00    -0.260 OA
BRANCH  57  59
HETATM   59  O   UNK N   1       4.786  -3.076  -3.249  0.00  0.00    -0.323 OA
HETATM   60  C   UNK N   1       5.356  -4.234  -2.781  0.00  0.00     0.213 C 
ENDBRANCH  57  59
ENDBRANCH   9  57
BRANCH  19  61
HETATM   61  O   UNK N   1       7.920  -5.987   1.183  0.00  0.00    -0.395 OA
HETATM   62  H   UNK N   1       7.808  -6.832   1.646  0.00  0.00     0.210 HD
ENDBRANCH  19  61
BRANCH  30  63
HETATM   63  O   UNK N   1       9.598  -0.772  -2.006  0.00  0.00    -0.364 OA
HETATM   64  H   UNK N   1       9.865  -0.988  -2.913  0.00  0.00     0.213 HD
ENDBRANCH  30  63
BRANCH  25  65
HETATM   65  O   UNK N   1      12.091  -2.965   0.401  0.00  0.00    -0.315 OA
BRANCH  65  66
HETATM   66  C   UNK N   1      12.731  -4.143   0.157  0.00  0.00     0.255 C 
HETATM   67  C   UNK N   1      14.045  -4.414   0.797  0.00  0.00     0.126 C 
HETATM   68  O   UNK N   1      12.243  -4.983  -0.587  0.00  0.00    -0.266 OA
ENDBRANCH  65  66
ENDBRANCH  25  65
TORSDOF 17
