REMARK  17 active torsions:
REMARK  status: ('A' for Active; 'I' for Inactive)
REMARK    1  A    between atoms: C_7  and  C_2 
REMARK    2  A    between atoms: N_21  and  C_2 
REMARK    3  A    between atoms: C_8  and  C_3 
REMARK    4  A    between atoms: N_23  and  C_3 
REMARK    5  A    between atoms: C_7  and  C_4 
REMARK    6  A    between atoms: O_26  and  C_4 
REMARK    7  A    between atoms: C_8  and  C_5 
REMARK    8  A    between atoms: O_27  and  C_5 
REMARK    9  A    between atoms: C_9  and  C_6 
REMARK   10  A    between atoms: O_28  and  C_6 
REMARK   11  A    between atoms: O_29  and  C_7 
REMARK   12  A    between atoms: O_30  and  C_8 
REMARK       I    between atoms: N_25  and  C_9 
REMARK   13  A    between atoms: C_16  and  C_10 
REMARK   14  A    between atoms: C_17  and  C_11 
REMARK   15  A    between atoms: N_25  and  C_15 
REMARK   16  A    between atoms: O_32  and  C_16 
REMARK   17  A    between atoms: O_33  and  C_17 
ROOT
HETATM    1  C   UNK N   1       2.352   1.334   0.276  0.00  0.00     0.051 A 
HETATM    2  C   UNK N   1      -0.086   1.292  -0.192  0.00  0.00     0.051 A 
HETATM    3  C   UNK N   1       1.136   2.023  -0.048  0.00  0.00     0.038 A 
HETATM    4  C   UNK N   1       2.307  -0.076   0.455  0.00  0.00     0.050 A 
HETATM    5  C   UNK N   1      -0.054  -0.127  -0.151  0.00  0.00     0.050 A 
HETATM    6  C   UNK N   1       1.135  -0.807   0.170  0.00  0.00     0.072 A 
HETATM    7  I   UNK N   1       1.155   4.177  -0.249  0.00  0.00    -0.042 I 
HETATM    8  I   UNK N   1       3.861  -1.138   1.501  0.00  0.00    -0.041 I 
HETATM    9  I   UNK N   1      -1.802  -1.299  -0.686  0.00  0.00    -0.041 I 
ENDROOT
BRANCH   1  10
HETATM   10  C   UNK N   1       3.618   2.125   0.555  0.00  0.00     0.149 C 
HETATM   11  N   UNK N   1       4.800   1.806   0.120  0.00  0.00    -0.368 N 
ATOM     12  HN  UNK N   1       5.568   2.410   0.414  1.00  0.00     0.161 HD
BRANCH  11  13
HETATM   13  C   UNK N   1       5.149   0.693  -0.733  0.00  0.00     0.155 C 
BRANCH  13  14
HETATM   14  C   UNK N   1       6.361  -0.038  -0.141  0.00  0.00     0.159 C 
BRANCH  14  15
HETATM   15  C   UNK N   1       7.651   0.765  -0.205  0.00  0.00     0.197 C 
BRANCH  15  16
HETATM   16  O   UNK N   1       8.117   0.839  -1.518  0.00  0.00    -0.398 OA
HETATM   17  H   UNK N   1       8.323   0.585  -2.431  0.00  0.00     0.209 HD
ENDBRANCH  15  16
ENDBRANCH  14  15
BRANCH  14  18
HETATM   18  O   UNK N   1       6.527  -1.287  -0.740  0.00  0.00    -0.392 OA
HETATM   19  H   UNK N   1       5.833  -1.821  -1.157  0.00  0.00     0.210 HD
ENDBRANCH  14  18
ENDBRANCH  13  14
ENDBRANCH  11  13
BRANCH  10  20
HETATM   20  O   UNK N   1       3.516   3.259   1.271  0.00  0.00    -0.346 OA
HETATM   21  H   UNK N   1       4.164   3.715   1.770  0.00  0.00     0.219 HD
ENDBRANCH  10  20
ENDBRANCH   1  10
BRANCH   2  22
HETATM   22  C   UNK N   1      -1.435   1.960  -0.275  0.00  0.00     0.149 C 
HETATM   23  N   UNK N   1      -1.606   3.145  -0.771  0.00  0.00    -0.368 N 
ATOM     24  HN  UNK N   1      -0.787   3.595  -1.180  1.00  0.00     0.161 HD
BRANCH  23  25
HETATM   25  C   UNK N   1      -2.862   3.905  -0.803  0.00  0.00     0.155 C 
BRANCH  25  26
HETATM   26  C   UNK N   1      -4.123   3.153  -0.359  0.00  0.00     0.159 C 
BRANCH  26  27
HETATM   27  C   UNK N   1      -5.253   4.086   0.023  0.00  0.00     0.197 C 
BRANCH  27  28
HETATM   28  O   UNK N   1      -6.268   3.352   0.641  0.00  0.00    -0.398 OA
HETATM   29  H   UNK N   1      -7.062   3.707   1.071  0.00  0.00     0.209 HD
ENDBRANCH  27  28
ENDBRANCH  26  27
BRANCH  26  30
HETATM   30  O   UNK N   1      -4.539   2.271  -1.358  0.00  0.00    -0.392 OA
HETATM   31  H   UNK N   1      -5.214   2.215  -2.052  0.00  0.00     0.210 HD
ENDBRANCH  26  30
ENDBRANCH  25  26
ENDBRANCH  23  25
BRANCH  22  32
HETATM   32  O   UNK N   1      -2.467   1.326   0.311  0.00  0.00    -0.346 OA
HETATM   33  H   UNK N   1      -3.208   1.727   0.720  0.00  0.00     0.219 HD
ENDBRANCH  22  32
ENDBRANCH   2  22
BRANCH   6  34
HETATM   34  N   UNK N   1       1.136  -2.242   0.281  0.00  0.00    -0.318 N 
HETATM   35  C   UNK N   1       0.189  -2.884   1.164  0.00  0.00     0.159 C 
HETATM   36  C   UNK N   1       2.028  -3.007  -0.425  0.00  0.00     0.247 C 
HETATM   37  O   UNK N   1       2.814  -2.491  -1.204  0.00  0.00    -0.271 OA
BRANCH  36  38
HETATM   38  C   UNK N   1       2.041  -4.501  -0.276  0.00  0.00     0.267 C 
BRANCH  38  39
HETATM   39  O   UNK N   1       3.262  -4.909   0.262  0.00  0.00    -0.392 OA
HETATM   40  H   UNK N   1       3.440  -5.786   0.636  0.00  0.00     0.210 HD
ENDBRANCH  38  39
ENDBRANCH  36  38
ENDBRANCH   6  34
TORSDOF 17
