REMARK  5 active torsions:
REMARK  status: ('A' for Active; 'I' for Inactive)
REMARK    1  A    between atoms: C_3  and  N_15 
REMARK    2  A    between atoms: C_4  and  C_8 
REMARK    3  A    between atoms: N_9  and  N_11 
REMARK    4  A    between atoms: N_11  and  C_12 
REMARK    5  A    between atoms: C_12  and  N_14 
ROOT
HETATM    1  C   UNK N   1       0.572  -1.813   0.000  0.00  0.00     0.019 A 
HETATM    2  C   UNK N   1      -0.660  -1.157   0.000  0.00  0.00     0.033 A 
HETATM    3  C   UNK N   1      -0.707   0.238   0.000  0.00  0.00     0.054 A 
HETATM    4  C   UNK N   1       0.496   0.965  -0.000  0.00  0.00     0.075 A 
HETATM    5  N   UNK N   1       1.684   0.295  -0.000  0.00  0.00    -0.363 N 
ATOM      6  HN  UNK N   1       2.553   0.829  -0.000  1.00  0.00     0.165 HD
HETATM    7  C   UNK N   1       1.746  -1.062  -0.000  0.00  0.00     0.088 A 
ENDROOT
BRANCH   4   8
HETATM    8  C   UNK N   1       0.506   2.435  -0.000  0.00  0.00     0.139 C 
HETATM    9  N   UNK N   1       1.633   3.045  -0.000  0.00  0.00    -0.307 N 
ATOM     10  HN  UNK N   1       2.495   2.499  -0.000  1.00  0.00     0.186 HD
BRANCH   9  11
HETATM   11  N   UNK N   1       1.708   4.411  -0.000  0.00  0.00    -0.277 N 
HETATM   12  H   UNK N   1       0.886   4.953  -0.000  0.00  0.00     0.189 HD
BRANCH  11  13
HETATM   13  C   UNK N   1       2.977   5.040  -0.000  0.00  0.00     0.184 C 
HETATM   14  S   UNK N   1       3.070   6.469   0.000  0.00  0.00    -0.040 SA
BRANCH  13  15
HETATM   15  N   UNK N   1       4.157   4.259   0.000  0.00  0.00    -0.375 N 
HETATM   16  H   UNK N   1       4.097   3.277   0.000  0.00  0.00     0.158 HD
HETATM   17  H   UNK N   1       5.038   4.699   0.000  0.00  0.00     0.158 HD
ENDBRANCH  13  15
ENDBRANCH  11  13
ENDBRANCH   9  11
ENDBRANCH   4   8
BRANCH   3  18
HETATM   18  N   UNK N   1      -1.956   0.896   0.000  0.00  0.00    -0.397 N 
HETATM   19  H   UNK N   1      -1.994   1.880   0.000  0.00  0.00     0.156 HD
HETATM   20  H   UNK N   1      -2.789   0.371   0.000  0.00  0.00     0.156 HD
ENDBRANCH   3  18
TORSDOF 5
