REMARK WARNING: 32 MAX_TORS EXCEEDED!!!
REMARK  57 active torsions:
REMARK  status: ('A' for Active; 'I' for Inactive)
REMARK    1  A    between atoms: C_2  and  C_3 
REMARK    2  A    between atoms: C_3  and  C_4 
REMARK    3  A    between atoms: C_4  and  C_5 
REMARK    4  A    between atoms: C_5  and  C_6 
REMARK    5  A    between atoms: C_6  and  C_7 
REMARK    6  A    between atoms: C_7  and  C_8 
REMARK    7  A    between atoms: C_8  and  O_10 
REMARK    8  A    between atoms: C_11  and  O_10 
REMARK    9  A    between atoms: C_15  and  O_16 
REMARK   10  A    between atoms: O_16  and  C_17 
REMARK   11  A    between atoms: C_17  and  C_19 
REMARK   12  A    between atoms: C_25  and  O_99 
REMARK   13  A    between atoms: C_26  and  O_34 
REMARK   14  A    between atoms: C_28  and  O_30 
REMARK   15  A    between atoms: O_30  and  C_31 
REMARK   16  A    between atoms: O_34  and  C_35 
REMARK   17  A    between atoms: C_35  and  C_37 
REMARK   18  A    between atoms: C_37  and  C_38 
REMARK   19  A    between atoms: C_38  and  C_39 
REMARK   20  A    between atoms: C_39  and  C_40 
REMARK   21  A    between atoms: C_40  and  C_41 
REMARK   22  A    between atoms: C_41  and  C_42 
REMARK   23  A    between atoms: C_42  and  C_43 
REMARK   24  A    between atoms: C_43  and  C_44 
REMARK   25  A    between atoms: C_44  and  C_45 
REMARK   26  A    between atoms: C_45  and  C_46 
REMARK   27  A    between atoms: C_46  and  C_47 
REMARK   28  A    between atoms: C_47  and  N_48 
REMARK       I    between atoms: N_48  and  C_49 
REMARK   29  A    between atoms: C_49  and  C_51 
REMARK   30  A    between atoms: C_51  and  C_52 
REMARK   31  A    between atoms: C_52  and  C_53 
REMARK   32  A    between atoms: C_52  and  N_92 
REMARK       I    between atoms: C_53  and  N_55 
REMARK   33  A    between atoms: C_56  and  N_55 
REMARK   34  A    between atoms: C_56  and  C_57 
REMARK   35  A    between atoms: C_56  and  C_89 
REMARK   36  A    between atoms: C_57  and  C_58 
REMARK   37  A    between atoms: C_58  and  C_59 
REMARK       I    between atoms: C_59  and  N_61 
REMARK   38  A    between atoms: C_62  and  N_61 
REMARK   39  A    between atoms: C_62  and  C_63 
REMARK   40  A    between atoms: C_62  and  C_86 
REMARK   41  A    between atoms: C_63  and  C_64 
REMARK   42  A    between atoms: C_64  and  C_65 
REMARK       I    between atoms: C_65  and  N_67 
REMARK   43  A    between atoms: C_68  and  N_67 
REMARK   44  A    between atoms: C_68  and  C_69 
REMARK   45  A    between atoms: C_68  and  C_83 
REMARK   46  A    between atoms: C_69  and  C_70 
REMARK   47  A    between atoms: C_70  and  C_71 
REMARK       I    between atoms: C_71  and  N_73 
REMARK   48  A    between atoms: C_74  and  N_73 
REMARK   49  A    between atoms: C_74  and  C_75 
REMARK   50  A    between atoms: C_74  and  C_80 
REMARK   51  A    between atoms: C_75  and  C_76 
REMARK   52  A    between atoms: C_76  and  C_77 
REMARK   53  A    between atoms: C_77  and  O_79 
REMARK   54  A    between atoms: C_80  and  O_82 
REMARK   55  A    between atoms: C_83  and  O_85 
REMARK   56  A    between atoms: C_86  and  O_88 
REMARK   57  A    between atoms: C_89  and  O_91 
ROOT
HETATM    1  C   UNK N   1      -1.550  -0.774   0.083  0.00  0.00     0.176 C 
HETATM    2  C   UNK N   1      -0.352   0.163   0.287  0.00  0.00     0.085 C 
HETATM    3  C   UNK N   1      -1.050   1.475   0.280  0.00  0.00    -0.033 C 
HETATM    4  C   UNK N   1      -2.188   1.410  -0.419  0.00  0.00    -0.046 C 
HETATM    5  C   UNK N   1      -2.440  -0.002  -0.899  0.00  0.00     0.191 C 
HETATM    6  C   UNK N   1      -3.076   2.577  -0.722  0.00  0.00     0.046 C 
HETATM    7  C   UNK N   1      -0.446   2.650   1.041  0.00  0.00     0.202 C 
HETATM    8  C   UNK N   1       0.989   3.146   0.684  0.00  0.00     0.154 C 
HETATM    9  C   UNK N   1       1.965   2.158  -0.002  0.00  0.00     0.175 C 
HETATM   10  C   UNK N   1       1.357   1.426  -1.180  0.00  0.00     0.075 C 
HETATM   11  C   UNK N   1       0.711   0.079  -0.876  0.00  0.00     0.079 C 
HETATM   12  C   UNK N   1       0.110  -0.282  -2.232  0.00  0.00     0.047 C 
HETATM   13  C   UNK N   1       0.745   4.477  -0.086  0.00  0.00     0.178 C 
HETATM   14  C   UNK N   1      -0.605   4.811   0.418  0.00  0.00     0.297 C 
HETATM   15  O   UNK N   1      -1.177   5.862   0.177  0.00  0.00    -0.262 OA
HETATM   16  O   UNK N   1      -1.223   3.786   1.018  0.00  0.00    -0.306 OA
HETATM   17  C   UNK N   1       1.786   5.549   0.235  0.00  0.00     0.060 C 
HETATM   18  O   UNK N   1       0.669   4.293  -1.468  0.00  0.00    -0.377 OA
HETATM   19  H   UNK N   1       0.532   4.275  -2.428  0.00  0.00     0.211 HD
ENDROOT
BRANCH   8  20
HETATM   20  O   UNK N   1       1.559   3.462   1.924  0.00  0.00    -0.380 OA
HETATM   21  H   UNK N   1       1.946   3.230   2.783  0.00  0.00     0.211 HD
ENDBRANCH   8  20
BRANCH   9  22
HETATM   22  O   UNK N   1       3.057   2.837  -0.492  0.00  0.00    -0.313 OA
BRANCH  22  23
HETATM   23  C   UNK N   1       4.117   2.166  -0.996  0.00  0.00     0.259 C 
HETATM   24  O   UNK N   1       4.382   2.260  -2.183  0.00  0.00    -0.265 OA
BRANCH  23  25
HETATM   25  C   UNK N   1       4.940   1.274  -0.120  0.00  0.00     0.111 C 
BRANCH  25  26
HETATM   26  C   UNK N   1       4.905   1.709   1.346  0.00  0.00     0.010 C 
BRANCH  26  27
HETATM   27  C   UNK N   1       5.306   3.171   1.540  0.00  0.00     0.000 C 
BRANCH  27  28
HETATM   28  C   UNK N   1       6.815   3.330   1.615  0.00  0.00     0.000 C 
BRANCH  28  29
HETATM   29  C   UNK N   1       7.390   3.987   0.364  0.00  0.00     0.000 C 
BRANCH  29  30
HETATM   30  C   UNK N   1       7.266   3.113  -0.882  0.00  0.00     0.000 C 
BRANCH  30  31
HETATM   31  C   UNK N   1       8.267   1.960  -0.935  0.00  0.00     0.000 C 
BRANCH  31  32
HETATM   32  C   UNK N   1       7.918   0.823   0.022  0.00  0.00     0.000 C 
BRANCH  32  33
HETATM   33  C   UNK N   1       8.670   0.962   1.341  0.00  0.00     0.002 C 
BRANCH  33  34
HETATM   34  C   UNK N   1       9.932   0.112   1.374  0.00  0.00     0.020 C 
BRANCH  34  35
HETATM   35  C   UNK N   1      10.815   0.371   0.164  0.00  0.00     0.122 C 
BRANCH  35  36
HETATM   36  N   UNK N   1      11.796   1.400   0.407  0.00  0.00    -0.361 N 
HETATM   37  C   UNK N   1      11.515   2.722   0.544  0.00  0.00     0.220 C 
HETATM   38  O   UNK N   1      10.368   3.129   0.544  0.00  0.00    -0.274 OA
HETATM   39  H   UNK N   1      12.738   1.124   0.480  0.00  0.00     0.162 HD
BRANCH  37  40
HETATM   40  C   UNK N   1      12.630   3.699   0.667  0.00  0.00     0.137 C 
BRANCH  40  41
HETATM   41  C   UNK N   1      13.416   3.823  -0.637  0.00  0.00     0.176 C 
BRANCH  41  42
HETATM   42  C   UNK N   1      13.980   2.509  -1.091  0.00  0.00     0.241 C 
HETATM   43  O   UNK N   1      13.792   2.126  -2.236  0.00  0.00    -0.271 OA
HETATM   44  N   UNK N   1      14.727   1.782  -0.232  0.00  0.00    -0.345 N 
HETATM   45  H   UNK N   1      14.763   2.065   0.711  0.00  0.00     0.163 HD
BRANCH  44  46
HETATM   46  C   UNK N   1      15.475   0.613  -0.626  0.00  0.00     0.182 C 
BRANCH  46  47
HETATM   47  C   UNK N   1      16.979   0.957  -0.677  0.00  0.00     0.045 C 
BRANCH  47  48
HETATM   48  C   UNK N   1      17.264   2.443  -0.417  0.00  0.00     0.105 C 
BRANCH  48  49
HETATM   49  C   UNK N   1      17.338   2.741   1.062  0.00  0.00     0.218 C 
HETATM   50  O   UNK N   1      16.450   2.355   1.805  0.00  0.00    -0.274 OA
HETATM   51  N   UNK N   1      18.378   3.433   1.591  0.00  0.00    -0.347 N 
HETATM   52  H   UNK N   1      18.403   3.539   2.569  0.00  0.00     0.163 HD
BRANCH  51  53
HETATM   53  C   UNK N   1      19.456   4.029   0.822  0.00  0.00     0.182 C 
BRANCH  53  54
HETATM   54  C   UNK N   1      20.110   3.044  -0.147  0.00  0.00     0.045 C 
BRANCH  54  55
HETATM   55  C   UNK N   1      20.319   1.662   0.455  0.00  0.00     0.105 C 
BRANCH  55  56
HETATM   56  C   UNK N   1      21.173   0.880  -0.473  0.00  0.00     0.218 C 
HETATM   57  O   UNK N   1      20.797   0.651  -1.615  0.00  0.00    -0.274 OA
HETATM   58  N   UNK N   1      22.400   0.506  -0.060  0.00  0.00    -0.347 N 
HETATM   59  H   UNK N   1      22.637   0.622   0.889  0.00  0.00     0.163 HD
BRANCH  58  60
HETATM   60  C   UNK N   1      23.379  -0.058  -0.956  0.00  0.00     0.182 C 
BRANCH  60  61
HETATM   61  C   UNK N   1      24.228   1.061  -1.599  0.00  0.00     0.045 C 
BRANCH  61  62
HETATM   62  C   UNK N   1      24.153   2.409  -0.869  0.00  0.00     0.105 C 
BRANCH  62  63
HETATM   63  C   UNK N   1      24.874   2.384   0.448  0.00  0.00     0.218 C 
HETATM   64  O   UNK N   1      24.228   2.397   1.483  0.00  0.00    -0.274 OA
HETATM   65  N   UNK N   1      26.225   2.393   0.509  0.00  0.00    -0.347 N 
HETATM   66  H   UNK N   1      26.666   2.378   1.389  0.00  0.00     0.163 HD
BRANCH  65  67
HETATM   67  C   UNK N   1      27.039   2.424  -0.682  0.00  0.00     0.182 C 
BRANCH  67  68
HETATM   68  C   UNK N   1      27.998   1.235  -0.725  0.00  0.00     0.046 C 
BRANCH  68  69
HETATM   69  C   UNK N   1      28.893   1.147   0.505  0.00  0.00     0.112 C 
BRANCH  69  70
HETATM   70  C   UNK N   1      30.329   1.248   0.113  0.00  0.00     0.139 C 
HETATM   71  O   UNK N   1      30.758   2.270  -0.397  0.00  0.00    -0.650 OA
BRANCH  70  72
HETATM   72  O   UNK N   1      31.158   0.212   0.336  0.00  0.00    -0.776 OA
HETATM   73  H   UNK N   1      30.823  -0.649   0.492  0.00  0.00     0.167 HD
ENDBRANCH  70  72
ENDBRANCH  69  70
ENDBRANCH  68  69
ENDBRANCH  67  68
BRANCH  67  74
HETATM   74  C   UNK N   1      27.726   3.750  -0.809  0.00  0.00     0.163 C 
HETATM   75  O   UNK N   1      28.499   4.137   0.052  0.00  0.00    -0.648 OA
BRANCH  74  76
HETATM   76  O   UNK N   1      27.457   4.536  -1.868  0.00  0.00    -0.775 OA
HETATM   77  H   UNK N   1      27.837   4.972  -2.605  0.00  0.00     0.167 HD
ENDBRANCH  74  76
ENDBRANCH  67  74
ENDBRANCH  65  67
ENDBRANCH  62  63
ENDBRANCH  61  62
ENDBRANCH  60  61
BRANCH  60  78
HETATM   78  C   UNK N   1      24.197  -1.085  -0.229  0.00  0.00     0.163 C 
HETATM   79  O   UNK N   1      25.410  -0.971  -0.137  0.00  0.00    -0.648 OA
BRANCH  78  80
HETATM   80  O   UNK N   1      23.586  -2.152   0.320  0.00  0.00    -0.775 OA
HETATM   81  H   UNK N   1      22.730  -2.155   0.702  0.00  0.00     0.167 HD
ENDBRANCH  78  80
ENDBRANCH  60  78
ENDBRANCH  58  60
ENDBRANCH  55  56
ENDBRANCH  54  55
ENDBRANCH  53  54
BRANCH  53  82
HETATM   82  C   UNK N   1      19.001   5.262   0.085  0.00  0.00     0.163 C 
HETATM   83  O   UNK N   1      19.811   5.930  -0.537  0.00  0.00    -0.648 OA
BRANCH  82  84
HETATM   84  O   UNK N   1      17.710   5.648   0.119  0.00  0.00    -0.775 OA
HETATM   85  H   UNK N   1      17.493   6.560   0.142  0.00  0.00     0.167 HD
ENDBRANCH  82  84
ENDBRANCH  53  82
ENDBRANCH  51  53
ENDBRANCH  48  49
ENDBRANCH  47  48
ENDBRANCH  46  47
BRANCH  46  86
HETATM   86  C   UNK N   1      15.193  -0.521   0.328  0.00  0.00     0.163 C 
HETATM   87  O   UNK N   1      16.094  -1.036   0.972  0.00  0.00    -0.648 OA
BRANCH  86  88
HETATM   88  O   UNK N   1      13.933  -0.972   0.476  0.00  0.00    -0.775 OA
HETATM   89  H   UNK N   1      13.223  -0.370   0.579  0.00  0.00     0.167 HD
ENDBRANCH  86  88
ENDBRANCH  46  86
ENDBRANCH  44  46
ENDBRANCH  41  42
BRANCH  41  90
HETATM   90  N   UNK N   1      14.505   4.763  -0.430  0.00  0.00    -0.418 N 
HETATM   91  H   UNK N   1      15.458   4.431  -0.284  0.00  0.00     0.150 HD
HETATM   92  H   UNK N   1      14.313   5.765  -0.430  0.00  0.00     0.150 HD
ENDBRANCH  41  90
ENDBRANCH  40  41
ENDBRANCH  37  40
ENDBRANCH  35  36
ENDBRANCH  34  35
ENDBRANCH  33  34
ENDBRANCH  32  33
ENDBRANCH  31  32
ENDBRANCH  30  31
ENDBRANCH  29  30
ENDBRANCH  28  29
ENDBRANCH  27  28
ENDBRANCH  26  27
ENDBRANCH  25  26
ENDBRANCH  23  25
ENDBRANCH  22  23
ENDBRANCH   9  22
BRANCH  11  93
HETATM   93  O   UNK N   1       1.661  -0.898  -0.605  0.00  0.00    -0.310 OA
BRANCH  93  94
HETATM   94  C   UNK N   1       2.433  -1.002   0.511  0.00  0.00     0.255 C 
HETATM   95  O   UNK N   1       2.276  -0.255   1.464  0.00  0.00    -0.266 OA
HETATM   96  C   UNK N   1       3.465  -2.072   0.585  0.00  0.00     0.126 C 
ENDBRANCH  93  94
ENDBRANCH  11  93
BRANCH   1  97
HETATM   97  O   UNK N   1      -1.163  -2.027  -0.341  0.00  0.00    -0.312 OA
BRANCH  97  98
HETATM   98  C   UNK N   1      -0.587  -2.912   0.511  0.00  0.00     0.259 C 
HETATM   99  O   UNK N   1      -0.773  -2.830   1.717  0.00  0.00    -0.265 OA
BRANCH  98 100
HETATM  100  C   UNK N   1       0.352  -3.942  -0.028  0.00  0.00     0.111 C 
BRANCH 100 101
HETATM  101  C   UNK N   1      -0.135  -5.354   0.231  0.00  0.00     0.010 C 
BRANCH 101 102
HETATM  102  C   UNK N   1      -1.022  -5.824  -0.912  0.00  0.00     0.000 C 
BRANCH 102 103
HETATM  103  C   UNK N   1      -2.424  -5.236  -0.811  0.00  0.00     0.000 C 
BRANCH 103 104
HETATM  104  C   UNK N   1      -3.157  -5.726   0.433  0.00  0.00    -0.000 C 
BRANCH 104 105
HETATM  105  C   UNK N   1      -3.621  -7.166   0.278  0.00  0.00    -0.005 C 
HETATM  106  C   UNK N   1      -2.499  -8.134   0.603  0.00  0.00     0.005 C 
ENDBRANCH 104 105
ENDBRANCH 103 104
ENDBRANCH 102 103
ENDBRANCH 101 102
ENDBRANCH 100 101
ENDBRANCH  98 100
ENDBRANCH  97  98
ENDBRANCH   1  97
BRANCH   5 107
HETATM  107  O   UNK N   1      -3.735  -0.500  -0.873  0.00  0.00    -0.305 OA
BRANCH 107 108
HETATM  108  C   UNK N   1      -4.799  -0.066  -0.150  0.00  0.00     0.289 C 
HETATM  109  O   UNK N   1      -4.654   0.766   0.736  0.00  0.00    -0.260 OA
BRANCH 108 110
HETATM  110  C   UNK N   1      -6.142  -0.629  -0.451  0.00  0.00     0.009 C 
HETATM  111  C   UNK N   1      -7.289  -0.138   0.046  0.00  0.00    -0.018 C 
HETATM  112  C   UNK N   1      -7.377   1.051   0.949  0.00  0.00     0.036 C 
HETATM  113  C   UNK N   1      -6.234  -1.789  -1.388  0.00  0.00     0.054 C 
ENDBRANCH 108 110
ENDBRANCH 107 108
ENDBRANCH   5 107
TORSDOF 57
