REMARK  3 active torsions:
REMARK  status: ('A' for Active; 'I' for Inactive)
REMARK    1  A    between atoms: C_4  and  C_8 
REMARK    2  A    between atoms: C_21  and  C_16 
REMARK    3  A    between atoms: C_18  and  N_19 
ROOT
HETATM    1  C   UNK N   1      -1.208   0.089   0.090  0.00  0.00     0.040 A 
HETATM    2  C   UNK N   1      -2.046  -1.026   0.050  0.00  0.00     0.124 A 
HETATM    3  N   UNK N   1      -1.261  -2.142   0.075  0.00  0.00    -0.301 N 
ATOM      4  HN  UNK N   1      -1.589  -3.108   0.059  1.00  0.00     0.186 HD
HETATM    5  N   UNK N   1       0.002  -1.747   0.123  0.00  0.00    -0.222 N 
HETATM    6  C   UNK N   1       0.052  -0.424   0.139  0.00  0.00     0.142 A 
HETATM    7  N   UNK N   1       1.213   0.250   0.181  0.00  0.00    -0.342 N 
ATOM      8  HN  UNK N   1       1.204   1.269   0.205  1.00  0.00     0.167 HD
HETATM    9  C   UNK N   1       2.401  -0.413   0.192  0.00  0.00     0.037 A 
HETATM   10  C   UNK N   1       2.385  -1.853   0.180  0.00  0.00     0.079 A 
HETATM   11  C   UNK N   1       1.125  -2.507   0.145  0.00  0.00     0.142 A 
HETATM   12 Br   UNK N   1       3.970  -2.943   0.229  0.00  0.00    -0.045 Br
ENDROOT
BRANCH   1  13
HETATM   13  C   UNK N   1      -1.534   1.523   0.057  0.00  0.00     0.013 A 
HETATM   14  C   UNK N   1      -0.611   2.549   0.105  0.00  0.00     0.123 A 
HETATM   15  N   UNK N   1      -1.292   3.698   0.028  0.00  0.00    -0.307 N 
HETATM   16  C   UNK N   1      -0.701   5.023   0.042  0.00  0.00     0.177 C 
HETATM   17  N   UNK N   1      -2.589   3.457  -0.069  0.00  0.00    -0.310 N 
HETATM   18  C   UNK N   1      -2.776   2.119  -0.054  0.00  0.00     0.121 A 
ATOM     19  HN  UNK N   1      -3.323   4.161  -0.143  1.00  0.00     0.186 HD
ENDBRANCH   1  13
BRANCH  11  20
HETATM   20  N   UNK N   1       1.033  -3.916   0.129  0.00  0.00    -0.383 N 
HETATM   21  H   UNK N   1       0.150  -4.352   0.118  0.00  0.00     0.157 HD
HETATM   22  H   UNK N   1       1.852  -4.463   0.129  0.00  0.00     0.157 HD
ENDBRANCH  11  20
BRANCH   9  23
HETATM   23  C   UNK N   1       3.636   0.469   0.243  0.00  0.00     0.054 C 
HETATM   24  C   UNK N   1       3.403   1.796  -0.489  0.00  0.00     0.014 C 
HETATM   25  C   UNK N   1       4.490   2.812  -0.140  0.00  0.00     0.020 C 
HETATM   26  C   UNK N   1       5.793   2.130   0.286  0.00  0.00     0.113 C 
HETATM   27  N   UNK N   1       6.004   0.906  -0.489  0.00  0.00    -0.420 N 
HETATM   28  C   UNK N   1       4.994  -0.119  -0.171  0.00  0.00     0.124 C 
HETATM   29  H   UNK N   1       6.757   0.779  -1.165  0.00  0.00     0.153 HD
ENDBRANCH   9  23
TORSDOF 3
