REMARK  5 active torsions:
REMARK  status: ('A' for Active; 'I' for Inactive)
REMARK    1  A    between atoms: C_3  and  O_28 
REMARK    2  A    between atoms: C_6  and  C_7 
REMARK       I    between atoms: C_7  and  N_9 
REMARK    3  A    between atoms: N_9  and  C_10 
REMARK    4  A    between atoms: N_13  and  O_17 
REMARK    5  A    between atoms: O_28  and  C_29 
ROOT
HETATM    1  C   UNK N   1       4.706   0.273  -0.090  0.00  0.00     0.021 A 
HETATM    2  C   UNK N   1       5.171   1.597   0.033  0.00  0.00     0.041 A 
HETATM    3  C   UNK N   1       4.268   2.669   0.123  0.00  0.00     0.109 A 
HETATM    4  C   UNK N   1       2.912   2.367   0.074  0.00  0.00     0.121 A 
HETATM    5  C   UNK N   1       2.436   1.066  -0.049  0.00  0.00     0.031 A 
HETATM    6  C   UNK N   1       3.324  -0.033  -0.114  0.00  0.00     0.046 A 
HETATM    7  C   UNK N   1       1.065   1.208  -0.131  0.00  0.00     0.027 A 
HETATM    8  C   UNK N   1       0.035   0.312  -0.328  0.00  0.00     0.102 A 
HETATM    9  N   UNK N   1      -1.246   0.789  -0.390  0.00  0.00    -0.374 N 
ATOM     10  HN  UNK N   1      -2.012   0.132  -0.532  1.00  0.00     0.164 HD
HETATM   11  C   UNK N   1      -1.528   2.124  -0.266  0.00  0.00     0.090 A 
HETATM   12  C   UNK N   1      -0.492   3.054  -0.084  0.00  0.00     0.055 A 
HETATM   13  C   UNK N   1       0.801   2.551  -0.025  0.00  0.00     0.090 A 
HETATM   14  O   UNK N   1       1.918   3.229   0.099  0.00  0.00    -0.306 OA
ENDROOT
BRANCH   6  15
HETATM   15  C   UNK N   1       2.948  -1.478  -0.245  0.00  0.00     0.257 C 
HETATM   16  O   UNK N   1       3.769  -2.212  -0.753  0.00  0.00    -0.267 OA
HETATM   17  N   UNK N   1       1.733  -1.967   0.168  0.00  0.00    -0.320 N 
HETATM   18  H   UNK N   1       1.126  -1.300   0.563  0.00  0.00     0.169 HD
BRANCH  17  19
HETATM   19  C   UNK N   1       1.208  -3.322   0.111  0.00  0.00     0.081 A 
HETATM   20  C   UNK N   1       1.985  -4.531  -0.015  0.00  0.00     0.080 A 
HETATM   21  C   UNK N   1       1.324  -5.758  -0.131  0.00  0.00     0.148 A 
HETATM   22 Cl   UNK N   1       3.733  -4.691   0.059  0.00  0.00    -0.080 Cl
HETATM   23  N   UNK N   1      -0.026  -5.841  -0.109  0.00  0.00    -0.244 N 
HETATM   24  C   UNK N   1      -0.783  -4.743   0.091  0.00  0.00     0.148 A 
HETATM   25  C   UNK N   1      -0.200  -3.487   0.213  0.00  0.00     0.080 A 
HETATM   26 Cl   UNK N   1      -1.296  -2.170   0.535  0.00  0.00    -0.080 Cl
BRANCH  23  27
HETATM   27  O   UNK N   1      -0.614  -7.023  -0.252  0.00  0.00    -0.284 OA
ATOM     28  HO  UNK N   1      -1.563  -7.081  -0.236  1.00  0.00     0.245 HD
ENDBRANCH  23  27
ENDBRANCH  17  19
ENDBRANCH   6  15
BRANCH   3  29
HETATM   29  O   UNK N   1       4.657   3.970   0.229  0.00  0.00    -0.287 OA
BRANCH  29  30
HETATM   30  C   UNK N   1       5.946   4.482   0.274  0.00  0.00     0.505 C 
HETATM   31  F   UNK N   1       6.129   5.365  -0.773  0.00  0.00    -0.184 F 
HETATM   32  F   UNK N   1       6.939   3.519   0.241  0.00  0.00    -0.184 F 
ENDBRANCH  29  30
ENDBRANCH   3  29
TORSDOF 5
