REMARK  10 active torsions:
REMARK  status: ('A' for Active; 'I' for Inactive)
REMARK    1  A    between atoms: C_2  and  O_3 
REMARK    2  A    between atoms: O_3  and  C_4 
REMARK    3  A    between atoms: C_7  and  C_11 
REMARK    4  A    between atoms: C_11  and  C_12 
REMARK    5  A    between atoms: C_19  and  C_14 
REMARK    6  A    between atoms: C_20  and  O_31 
REMARK    7  A    between atoms: C_21  and  O_30 
REMARK    8  A    between atoms: C_22  and  O_29 
REMARK    9  A    between atoms: C_23  and  C_27 
REMARK   10  A    between atoms: C_27  and  O_28 
ROOT
HETATM    1  C   UNK N   1      -0.691  -2.353   0.690  0.00  0.00    -0.032 C 
HETATM    2  C   UNK N   1      -0.581  -0.964   0.857  0.00  0.00     0.022 C 
HETATM    3  C   UNK N   1       0.630  -0.270   0.636  0.00  0.00     0.007 C 
HETATM    4  C   UNK N   1       1.709  -1.051   0.135  0.00  0.00     0.014 C 
HETATM    5  C   UNK N   1       1.644  -2.425   0.036  0.00  0.00     0.025 C 
HETATM    6  C   UNK N   1       0.476  -3.097   0.355  0.00  0.00     0.040 C 
HETATM    7 Cl   UNK N   1       0.611  -4.846   0.405  0.00  0.00    -0.084 Cl
ENDROOT
BRANCH   3   8
HETATM    8  C   UNK N   1       0.709   1.309   0.876  0.00  0.00     0.223 C 
HETATM    9  C   UNK N   1       2.289   1.362   1.000  0.00  0.00     0.217 C 
HETATM   10  C   UNK N   1       2.989   1.452  -0.351  0.00  0.00     0.184 C 
HETATM   11  C   UNK N   1       2.416   2.680  -1.093  0.00  0.00     0.188 C 
HETATM   12  C   UNK N   1       0.998   3.048  -0.547  0.00  0.00     0.135 C 
HETATM   13  O   UNK N   1       0.864   2.734   0.844  0.00  0.00    -0.330 OA
HETATM   14  C   UNK N   1       0.032   2.140  -1.150  0.00  0.00     0.215 C 
HETATM   15  O   UNK N   1      -0.370   1.403  -0.058  0.00  0.00    -0.346 OA
BRANCH   9  16
HETATM   16  O   UNK N   1       2.871   0.523   1.967  0.00  0.00    -0.387 OA
HETATM   17  H   UNK N   1       2.570  -0.114   2.633  0.00  0.00     0.210 HD
ENDBRANCH   9  16
BRANCH  10  18
HETATM   18  O   UNK N   1       4.372   1.557  -0.176  0.00  0.00    -0.390 OA
HETATM   19  H   UNK N   1       4.915   0.762  -0.056  0.00  0.00     0.210 HD
ENDBRANCH  10  18
BRANCH  11  20
HETATM   20  O   UNK N   1       3.291   3.761  -0.996  0.00  0.00    -0.390 OA
HETATM   21  H   UNK N   1       4.247   3.610  -0.928  0.00  0.00     0.210 HD
ENDBRANCH  11  20
BRANCH  12  22
HETATM   22  C   UNK N   1       0.626   4.496  -0.835  0.00  0.00     0.207 C 
BRANCH  22  23
HETATM   23  O   UNK N   1      -0.506   4.867  -0.109  0.00  0.00    -0.398 OA
HETATM   24  H   UNK N   1      -0.676   5.677   0.396  0.00  0.00     0.209 HD
ENDBRANCH  22  23
ENDBRANCH  12  22
ENDBRANCH   3   8
BRANCH   1  25
HETATM   25  C   UNK N   1      -2.032  -2.937   1.058  0.00  0.00     0.078 C 
BRANCH  25  26
HETATM   26  C   UNK N   1      -2.626  -4.146   0.386  0.00  0.00    -0.051 A 
HETATM   27  C   UNK N   1      -3.757  -4.699   0.984  0.00  0.00     0.010 A 
HETATM   28  C   UNK N   1      -4.238  -5.943   0.576  0.00  0.00     0.040 A 
HETATM   29  C   UNK N   1      -3.577  -6.666  -0.414  0.00  0.00     0.107 A 
HETATM   30  C   UNK N   1      -2.471  -6.083  -1.077  0.00  0.00     0.150 A 
HETATM   31  C   UNK N   1      -2.017  -4.819  -0.678  0.00  0.00     0.052 A 
HETATM   32  F   UNK N   1      -1.795  -6.739  -2.050  0.00  0.00    -0.203 F 
BRANCH  29  33
HETATM   33  O   UNK N   1      -4.010  -7.930  -0.673  0.00  0.00    -0.348 OA
BRANCH  33  34
HETATM   34  C   UNK N   1      -3.299  -8.861  -1.392  0.00  0.00     0.171 C 
HETATM   35  C   UNK N   1      -2.761  -9.918  -0.444  0.00  0.00     0.034 C 
ENDBRANCH  33  34
ENDBRANCH  29  33
ENDBRANCH  25  26
ENDBRANCH   1  25
TORSDOF 10
