REMARK  1 active torsions:
REMARK  status: ('A' for Active; 'I' for Inactive)
REMARK    1  A    between atoms: C_2  and  N_11 
ROOT
HETATM    1  C   UNK N   1      -0.172  -1.064   1.767  0.00  0.00     0.039 C 
HETATM    2  C   UNK N   1      -0.245  -0.633   0.292  0.00  0.00     0.032 C 
HETATM    3  C   UNK N   1       1.129  -0.740  -0.411  0.00  0.00     0.014 C 
HETATM    4  C   UNK N   1       2.194   0.042   0.359  0.00  0.00     0.007 C 
HETATM    5  C   UNK N   1       1.850   1.496   0.064  0.00  0.00     0.006 C 
HETATM    6  C   UNK N   1       0.578   1.398  -0.779  0.00  0.00    -0.004 C 
HETATM    7  C   UNK N   1       0.906   0.171  -1.595  0.00  0.00     0.012 C 
HETATM    8  C   UNK N   1      -0.590   0.892   0.098  0.00  0.00    -0.019 C 
HETATM    9  C   UNK N   1      -0.696   1.706   1.390  0.00  0.00     0.018 C 
HETATM   10  C   UNK N   1      -1.900   1.115  -0.659  0.00  0.00     0.018 C 
ENDROOT
BRANCH   2  11
HETATM   11  N   UNK N   1      -1.220  -1.482  -0.416  0.00  0.00    -0.416 N 
HETATM   12  C   UNK N   1      -0.862  -2.899  -0.350  0.00  0.00     0.140 C 
HETATM   13  H   UNK N   1      -2.046  -1.124  -0.895  0.00  0.00     0.153 HD
ENDBRANCH   2  11
TORSDOF 1
