REMARK  8 active torsions:
REMARK  status: ('A' for Active; 'I' for Inactive)
REMARK    1  A    between atoms: C_5  and  C_8 
REMARK       I    between atoms: C_8  and  N_10 
REMARK    2  A    between atoms: C_11  and  N_10 
REMARK    3  A    between atoms: N_10  and  C_18 
REMARK    4  A    between atoms: C_14  and  O_17 
REMARK    5  A    between atoms: C_19  and  C_29 
REMARK    6  A    between atoms: C_21  and  C_23 
REMARK    7  A    between atoms: C_24  and  C_25 
REMARK    8  A    between atoms: C_29  and  O_31 
ROOT
HETATM    1  C   UNK N   1       1.108   0.810   0.153  0.00  0.00     0.229 C 
HETATM    2  O   UNK N   1       1.044   2.028   0.043  0.00  0.00    -0.273 OA
HETATM    3  N   UNK N   1       2.351   0.190   0.293  0.00  0.00    -0.311 N 
ENDROOT
BRANCH   3   4
HETATM    4  C   UNK N   1       3.556   0.996   0.177  0.00  0.00     0.093 C 
HETATM    5  C   UNK N   1       3.812   1.789  -1.104  0.00  0.00     0.028 C 
HETATM    6  C   UNK N   1       4.562   3.073  -0.749  0.00  0.00     0.034 C 
HETATM    7  C   UNK N   1       5.854   2.834   0.054  0.00  0.00     0.118 C 
HETATM    8  C   UNK N   1       5.909   1.497   0.804  0.00  0.00     0.034 C 
HETATM    9  C   UNK N   1       4.541   1.067   1.342  0.00  0.00     0.028 C 
BRANCH   7  10
HETATM   10  O   UNK N   1       6.967   2.951  -0.778  0.00  0.00    -0.396 OA
HETATM   11  H   UNK N   1       7.425   2.321  -1.357  0.00  0.00     0.210 HD
ENDBRANCH   7  10
ENDBRANCH   3   4
BRANCH   3  12
HETATM   12  C   UNK N   1       2.457  -1.242   0.480  0.00  0.00     0.063 A 
HETATM   13  C   UNK N   1       3.494  -2.098  -0.026  0.00  0.00     0.106 A 
HETATM   14  S   UNK N   1       2.924  -3.637   0.118  0.00  0.00    -0.072 SA
HETATM   15  C   UNK N   1       1.493  -3.343   0.838  0.00  0.00     0.061 A 
HETATM   16  C   UNK N   1       1.358  -1.988   1.006  0.00  0.00     0.059 A 
BRANCH  13  17
HETATM   17  C   UNK N   1       4.776  -1.879  -0.719  0.00  0.00     0.185 C 
HETATM   18  O   UNK N   1       5.136  -2.677  -1.571  0.00  0.00    -0.646 OA
BRANCH  17  19
HETATM   19  O   UNK N   1       5.636  -0.942  -0.314  0.00  0.00    -0.772 OA
HETATM   20  H   UNK N   1       6.507  -1.136  -0.029  0.00  0.00     0.167 HD
ENDBRANCH  17  19
ENDBRANCH  13  17
BRANCH  15  21
HETATM   21  C   UNK N   1       0.405  -4.232   0.739  0.00  0.00    -0.059 C 
HETATM   22  C   UNK N   1      -0.340  -5.134   0.508  0.00  0.00    -0.092 C 
BRANCH  22  23
HETATM   23  C   UNK N   1      -0.980  -6.337   0.023  0.00  0.00     0.013 C 
HETATM   24  C   UNK N   1      -1.335  -7.253   1.168  0.00  0.00     0.028 C 
HETATM   25  C   UNK N   1      -2.302  -5.919  -0.584  0.00  0.00     0.028 C 
HETATM   26  C   UNK N   1      -0.079  -6.997  -1.002  0.00  0.00     0.028 C 
ENDBRANCH  22  23
ENDBRANCH  15  21
ENDBRANCH   3  12
BRANCH   1  27
HETATM   27  C   UNK N   1      -0.199   0.014   0.075  0.00  0.00     0.078 C 
HETATM   28  C   UNK N   1      -1.507   0.789   0.200  0.00  0.00     0.014 C 
HETATM   29  C   UNK N   1      -2.643  -0.221   0.417  0.00  0.00     0.005 C 
HETATM   30  C   UNK N   1      -2.731  -1.237  -0.729  0.00  0.00    -0.019 C 
HETATM   31  C   UNK N   1      -3.746  -2.307  -0.373  0.00  0.00     0.010 C 
HETATM   32  C   UNK N   1      -1.382  -1.905  -0.989  0.00  0.00     0.005 C 
HETATM   33  C   UNK N   1      -0.279  -0.863  -1.180  0.00  0.00     0.014 C 
ENDBRANCH   1  27
TORSDOF 8
