REMARK  13 active torsions:
REMARK  status: ('A' for Active; 'I' for Inactive)
REMARK       I    between atoms: C_2  and  N_4 
REMARK    1  A    between atoms: N_4  and  C_5 
REMARK    2  A    between atoms: N_4  and  C_25 
REMARK    3  A    between atoms: C_5  and  C_6 
REMARK    4  A    between atoms: C_6  and  C_7 
REMARK    5  A    between atoms: C_7  and  C_8 
REMARK    6  A    between atoms: C_8  and  N_9 
REMARK    7  A    between atoms: N_9  and  C_10 
REMARK    8  A    between atoms: C_10  and  C_11 
REMARK    9  A    between atoms: C_11  and  C_12 
REMARK   10  A    between atoms: C_12  and  N_13 
REMARK   11  A    between atoms: C_25  and  C_26 
REMARK   12  A    between atoms: C_26  and  C_27 
REMARK   13  A    between atoms: C_27  and  N_28 
ROOT
HETATM    1  C   UNK N   1       8.767  -8.202  -0.795  0.00  0.00     0.126 C 
ENDROOT
BRANCH   1   2
HETATM    2  N   UNK N   1       9.779  -9.200  -0.541  0.00  0.00    -0.352 N 
HETATM    3  C   UNK N   1       9.464 -10.412   0.015  0.00  0.00     0.215 C 
HETATM    4  C   UNK N   1      10.492 -11.464   0.249  0.00  0.00     0.117 C 
HETATM    5  O   UNK N   1       8.323 -10.662   0.341  0.00  0.00    -0.274 OA
BRANCH   2   6
HETATM    6  C   UNK N   1      11.142  -8.847  -0.823  0.00  0.00     0.127 C 
BRANCH   6   7
HETATM    7  C   UNK N   1      11.808  -8.519   0.497  0.00  0.00     0.040 C 
BRANCH   7   8
HETATM    8  C   UNK N   1      13.165  -7.902   0.264  0.00  0.00     0.139 C 
BRANCH   8   9
HETATM    9  N   UNK N   1      14.311  -8.826   0.156  0.00  0.00    -0.266 N 
HETATM   10  C   UNK N   1      15.563  -8.242   0.103  0.00  0.00     0.264 A 
HETATM   11  O   UNK N   1      15.672  -7.024   0.142  0.00  0.00    -0.267 OA
HETATM   12  C   UNK N   1      16.707  -9.037   0.013  0.00  0.00     0.059 A 
HETATM   13  C   UNK N   1      17.988  -8.469  -0.032  0.00  0.00     0.019 A 
HETATM   14  C   UNK N   1      16.566 -10.433  -0.029  0.00  0.00     0.052 A 
HETATM   15  C   UNK N   1      19.114  -9.291  -0.117  0.00  0.00     0.001 A 
HETATM   16  C   UNK N   1      18.967 -10.680  -0.160  0.00  0.00     0.002 A 
HETATM   17  C   UNK N   1      17.693 -11.252  -0.117  0.00  0.00     0.030 A 
HETATM   18  N   UNK N   1      15.335 -10.987   0.019  0.00  0.00    -0.307 N 
HETATM   19  C   UNK N   1      14.214 -10.216   0.112  0.00  0.00     0.329 A 
HETATM   20  H   UNK N   1      15.245 -11.967  -0.014  0.00  0.00     0.170 HD
HETATM   21  O   UNK N   1      13.136 -10.773   0.156  0.00  0.00    -0.246 OA
ENDBRANCH   8   9
ENDBRANCH   7   8
ENDBRANCH   6   7
ENDBRANCH   2   6
ENDBRANCH   1   2
BRANCH   1  22
HETATM   22  C   UNK N   1       8.483  -7.417   0.477  0.00  0.00     0.021 C 
BRANCH  22  23
HETATM   23  C   UNK N   1       6.992  -7.187   0.641  0.00  0.00     0.021 C 
BRANCH  23  24
HETATM   24  C   UNK N   1       6.287  -8.499   0.936  0.00  0.00     0.113 C 
BRANCH  24  25
HETATM   25  N   UNK N   1       6.078  -9.238  -0.304  0.00  0.00    -0.421 N 
HETATM   26  H   UNK N   1       6.206  -8.873  -1.248  0.00  0.00     0.153 HD
BRANCH  25  27
HETATM   27  C   UNK N   1       5.656 -10.588   0.040  0.00  0.00     0.115 C 
BRANCH  27  28
HETATM   28  C   UNK N   1       4.214 -10.597   0.480  0.00  0.00     0.040 C 
BRANCH  28  29
HETATM   29  C   UNK N   1       3.353 -10.318  -0.728  0.00  0.00     0.139 C 
BRANCH  29  30
HETATM   30  N   UNK N   1       2.392  -9.257  -0.436  0.00  0.00    -0.266 N 
HETATM   31  C   UNK N   1       1.074  -9.595  -0.241  0.00  0.00     0.264 A 
HETATM   32  O   UNK N   1       0.727 -10.767  -0.276  0.00  0.00    -0.267 OA
HETATM   33  C   UNK N   1       0.127  -8.591  -0.017  0.00  0.00     0.059 A 
HETATM   34  C   UNK N   1      -1.230  -8.891   0.155  0.00  0.00     0.019 A 
HETATM   35  C   UNK N   1       0.555  -7.250   0.017  0.00  0.00     0.052 A 
HETATM   36  C   UNK N   1      -2.154  -7.862   0.349  0.00  0.00     0.001 A 
HETATM   37  C   UNK N   1      -1.726  -6.531   0.379  0.00  0.00     0.002 A 
HETATM   38  C   UNK N   1      -0.372  -6.225   0.217  0.00  0.00     0.030 A 
HETATM   39  N   UNK N   1       1.861  -6.949  -0.161  0.00  0.00    -0.307 N 
HETATM   40  C   UNK N   1       2.785  -7.930  -0.394  0.00  0.00     0.329 A 
HETATM   41  H   UNK N   1       2.151  -6.009  -0.124  0.00  0.00     0.170 HD
HETATM   42  O   UNK N   1       3.942  -7.615  -0.587  0.00  0.00    -0.246 OA
ENDBRANCH  29  30
ENDBRANCH  28  29
ENDBRANCH  27  28
ENDBRANCH  25  27
ENDBRANCH  24  25
ENDBRANCH  23  24
ENDBRANCH  22  23
ENDBRANCH   1  22
TORSDOF 13
