REMARK  7 active torsions:
REMARK  status: ('A' for Active; 'I' for Inactive)
REMARK    1  A    between atoms: C_3  and  C_9 
REMARK    2  A    between atoms: C_11  and  C_15 
REMARK       I    between atoms: C_15  and  N_17 
REMARK    3  A    between atoms: C_18  and  N_17 
REMARK    4  A    between atoms: C_18  and  C_19 
REMARK    5  A    between atoms: C_18  and  C_28 
REMARK    6  A    between atoms: C_19  and  C_20 
REMARK    7  A    between atoms: C_28  and  N_29 
ROOT
HETATM    1  C   UNK N   1       2.164  -4.264   0.557  0.00  0.00     0.275 C 
HETATM    2  O   UNK N   1       2.963  -5.126   0.886  0.00  0.00    -0.265 OA
HETATM    3  N   UNK N   1       2.625  -3.010   0.301  0.00  0.00    -0.349 N 
HETATM    4  H   UNK N   1       3.582  -2.831   0.446  0.00  0.00     0.163 HD
ENDROOT
BRANCH   1   5
HETATM    5  C   UNK N   1       0.736  -4.639   0.411  0.00  0.00     0.145 A 
HETATM    6  C   UNK N   1      -0.326  -3.782   0.223  0.00  0.00     0.060 A 
HETATM    7  C   UNK N   1      -1.457  -4.573   0.150  0.00  0.00     0.043 A 
HETATM    8  C   UNK N   1      -0.996  -5.888   0.293  0.00  0.00     0.158 A 
HETATM    9  O   UNK N   1       0.306  -5.874   0.456  0.00  0.00    -0.292 OA
HETATM   10 Cl   UNK N   1      -1.873  -7.399   0.331  0.00  0.00    -0.056 Cl
BRANCH   7  11
HETATM   11  C   UNK N   1      -2.828  -3.977  -0.025  0.00  0.00     0.087 A 
HETATM   12  N   UNK N   1      -3.071  -2.644   0.066  0.00  0.00    -0.294 N 
HETATM   13  C   UNK N   1      -2.125  -1.573   0.345  0.00  0.00     0.178 C 
HETATM   14  N   UNK N   1      -4.356  -2.404  -0.123  0.00  0.00    -0.308 N 
HETATM   15  C   UNK N   1      -4.985  -3.570  -0.350  0.00  0.00     0.133 A 
ATOM     16  HN  UNK N   1      -4.798  -1.485  -0.100  1.00  0.00     0.186 HD
HETATM   17  C   UNK N   1      -4.054  -4.590  -0.295  0.00  0.00     0.080 A 
HETATM   18 Cl   UNK N   1      -4.498  -6.255  -0.587  0.00  0.00    -0.080 Cl
ENDBRANCH   7  11
ENDBRANCH   1   5
BRANCH   3  19
HETATM   19  C   UNK N   1       1.794  -1.925  -0.171  0.00  0.00     0.106 C 
BRANCH  19  20
HETATM   20  C   UNK N   1       2.027  -0.632   0.619  0.00  0.00     0.065 C 
BRANCH  20  21
HETATM   21  C   UNK N   1       3.354   0.005   0.354  0.00  0.00    -0.053 A 
HETATM   22  C   UNK N   1       3.408   1.293  -0.189  0.00  0.00     0.010 A 
HETATM   23  C   UNK N   1       4.644   1.890  -0.454  0.00  0.00     0.046 A 
HETATM   24  C   UNK N   1       5.828   1.199  -0.179  0.00  0.00     0.154 A 
HETATM   25  C   UNK N   1       5.775  -0.089   0.368  0.00  0.00     0.155 A 
HETATM   26  F   UNK N   1       7.024   1.777  -0.443  0.00  0.00    -0.203 F 
HETATM   27  C   UNK N   1       4.541  -0.681   0.638  0.00  0.00     0.052 A 
HETATM   28  F   UNK N   1       6.918  -0.767   0.633  0.00  0.00    -0.203 F 
ENDBRANCH  20  21
ENDBRANCH  19  20
BRANCH  19  29
HETATM   29  C   UNK N   1       1.894  -1.769  -1.690  0.00  0.00     0.136 C 
BRANCH  29  30
HETATM   30  N   UNK N   1       3.279  -1.742  -2.135  0.00  0.00    -0.428 N 
HETATM   31  H   UNK N   1       3.780  -2.574  -2.446  0.00  0.00     0.149 HD
HETATM   32  H   UNK N   1       3.772  -0.850  -2.135  0.00  0.00     0.149 HD
ENDBRANCH  29  30
ENDBRANCH  19  29
ENDBRANCH   3  19
TORSDOF 7
