REMARK  6 active torsions:
REMARK  status: ('A' for Active; 'I' for Inactive)
REMARK    1  A    between atoms: N_2  and  C_3 
REMARK       I    between atoms: N_2  and  C_7 
REMARK    2  A    between atoms: C_3  and  C_4 
REMARK       I    between atoms: C_4  and  N_6 
REMARK       I    between atoms: C_7  and  N_9 
REMARK    3  A    between atoms: N_9  and  C_10 
REMARK    4  A    between atoms: N_9  and  N_13 
REMARK    5  A    between atoms: C_10  and  C_11 
REMARK    6  A    between atoms: N_13  and  O_15 
ROOT
HETATM    1  C   UNK N   1       4.621   0.665  -0.000  0.00  0.00     0.155 C 
HETATM    2  N   UNK N   1       4.747   2.092  -0.000  0.00  0.00    -0.328 N 
HETATM    3  C   UNK N   1       5.945   2.793   0.000  0.00  0.00     0.340 C 
HETATM    4  O   UNK N   1       5.852   4.019   0.000  0.00  0.00    -0.245 OA
HETATM    5  N   UNK N   1       7.249   2.271  -0.000  0.00  0.00    -0.222 N 
ENDROOT
BRANCH   2   6
HETATM    6  C   UNK N   1       3.524   2.907   0.000  0.00  0.00     0.229 C 
BRANCH   6   7
HETATM    7  C   UNK N   1       2.152   2.266  -0.000  0.00  0.00     0.233 C 
HETATM    8  O   UNK N   1       1.177   2.996   0.000  0.00  0.00    -0.272 OA
HETATM    9  N   UNK N   1       1.968   0.931   0.000  0.00  0.00    -0.369 N 
HETATM   10  H   UNK N   1       1.056   0.560   0.000  0.00  0.00     0.159 HD
HETATM   11  H   UNK N   1       2.746   0.327   0.000  0.00  0.00     0.159 HD
ENDBRANCH   6   7
ENDBRANCH   2   6
BRANCH   5  12
HETATM   12  C   UNK N   1       8.304   3.277  -0.000  0.00  0.00     0.171 C 
BRANCH  12  13
HETATM   13  C   UNK N   1       9.716   2.723  -0.000  0.00  0.00     0.136 C 
HETATM   14 Cl   UNK N   1      10.827   4.106   0.000  0.00  0.00    -0.129 Cl
ENDBRANCH  12  13
ENDBRANCH   5  12
BRANCH   5  15
HETATM   15  N   UNK N   1       7.672   0.944  -0.000  0.00  0.00    -0.204 N 
ATOM     16  HN  UNK N   1       8.678   0.774  -0.000  1.00  0.00     0.216 HD
BRANCH  15  17
HETATM   17  O   UNK N   1       6.960  -0.005   0.000  0.00  0.00    -0.274 OA
ATOM     18  HO  UNK N   1       7.249  -0.910   0.000  1.00  0.00     0.246 HD
ENDBRANCH  15  17
ENDBRANCH   5  15
TORSDOF 6
