REMARK  9 active torsions:
REMARK  status: ('A' for Active; 'I' for Inactive)
REMARK    1  A    between atoms: O_2  and  C_3 
REMARK    2  A    between atoms: C_3  and  C_4 
REMARK    3  A    between atoms: C_4  and  O_5 
REMARK    4  A    between atoms: O_5  and  C_6 
REMARK    5  A    between atoms: C_9  and  N_12 
REMARK       I    between atoms: N_12  and  C_13 
REMARK    6  A    between atoms: C_18  and  N_21 
REMARK    7  A    between atoms: N_21  and  C_22 
REMARK    8  A    between atoms: C_26  and  N_28 
REMARK       I    between atoms: N_28  and  C_29 
REMARK    9  A    between atoms: C_29  and  C_31 
ROOT
HETATM    1  N   UNK N   1      -1.129  -8.790   0.046  0.00  0.00    -0.192 N 
HETATM    2  C   UNK N   1       0.054  -7.985  -0.014  0.00  0.00     0.684 A 
HETATM    3  N   UNK N   1      -0.082  -6.652  -0.199  0.00  0.00    -0.199 N 
ATOM      4  HN  UNK N   1      -1.019  -6.258  -0.282  1.00  0.00     0.183 HD
HETATM    5  C   UNK N   1       0.975  -5.834  -0.277  0.00  0.00     0.152 A 
HETATM    6  C   UNK N   1       2.248  -6.338  -0.186  0.00  0.00     0.176 A 
HETATM    7  C   UNK N   1       2.435  -7.746  -0.012  0.00  0.00     0.162 A 
HETATM    8  N   UNK N   1       1.305  -8.533   0.065  0.00  0.00    -0.173 N 
ATOM      9  HN  UNK N   1       1.404  -9.541   0.184  1.00  0.00     0.186 HD
HETATM   10  F   UNK N   1       3.215  -5.417  -0.295  0.00  0.00    -0.201 F 
HETATM   11  H   UNK N   1      -1.060  -9.772   0.022  0.00  0.00     0.184 HD
ENDROOT
BRANCH   7  12
HETATM   12  N   UNK N   1       3.725  -8.403   0.068  0.00  0.00    -0.339 N 
HETATM   13  H   UNK N   1       3.675  -9.384   0.138  0.00  0.00     0.167 HD
BRANCH  12  14
HETATM   14  C   UNK N   1       5.065  -7.877   0.063  0.00  0.00     0.035 A 
HETATM   15  C   UNK N   1       5.318  -6.511   0.084  0.00  0.00     0.029 A 
HETATM   16  C   UNK N   1       6.599  -5.988   0.057  0.00  0.00     0.004 A 
HETATM   17  C   UNK N   1       7.679  -6.846   0.027  0.00  0.00     0.029 A 
HETATM   18  C   UNK N   1       7.492  -8.235   0.026  0.00  0.00     0.037 A 
HETATM   19  C   UNK N   1       6.175  -8.753   0.043  0.00  0.00     0.059 A 
BRANCH  18  20
HETATM   20  N   UNK N   1       8.616  -9.118   0.014  0.00  0.00    -0.324 N 
HETATM   21  C   UNK N   1       9.924  -8.718   0.003  0.00  0.00     0.244 C 
HETATM   22  O   UNK N   1      10.225  -7.531  -0.004  0.00  0.00    -0.268 OA
HETATM   23  H   UNK N   1       8.435 -10.086   0.014  0.00  0.00     0.169 HD
BRANCH  21  24
HETATM   24  C   UNK N   1      10.991  -9.732   0.001  0.00  0.00     0.064 C 
HETATM   25  C   UNK N   1      12.279  -9.380  -0.006  0.00  0.00     0.017 C 
ENDBRANCH  21  24
ENDBRANCH  18  20
ENDBRANCH  12  14
ENDBRANCH   7  12
BRANCH   1  26
HETATM   26  C   UNK N   1      -2.414  -8.163   0.143  0.00  0.00     0.049 A 
HETATM   27  C   UNK N   1      -2.544  -6.916   0.779  0.00  0.00     0.033 A 
HETATM   28  C   UNK N   1      -3.730  -6.201   0.733  0.00  0.00     0.039 A 
HETATM   29  C   UNK N   1      -4.826  -6.709   0.049  0.00  0.00     0.069 A 
HETATM   30  C   UNK N   1      -4.740  -7.986  -0.548  0.00  0.00     0.039 A 
HETATM   31  C   UNK N   1      -3.534  -8.713  -0.498  0.00  0.00     0.033 A 
BRANCH  29  32
HETATM   32  O   UNK N   1      -5.929  -5.934  -0.041  0.00  0.00    -0.349 OA
BRANCH  32  33
HETATM   33  C   UNK N   1      -7.044  -6.257  -0.772  0.00  0.00     0.201 C 
BRANCH  33  34
HETATM   34  C   UNK N   1      -8.273  -5.800  -0.014  0.00  0.00     0.193 C 
BRANCH  34  35
HETATM   35  O   UNK N   1      -8.840  -6.880   0.658  0.00  0.00    -0.394 OA
HETATM   36  C   UNK N   1     -10.057  -7.086   0.008  0.00  0.00     0.201 C 
ENDBRANCH  34  35
ENDBRANCH  33  34
ENDBRANCH  32  33
ENDBRANCH  29  32
ENDBRANCH   1  26
TORSDOF 9
