REMARK  6 active torsions:
REMARK  status: ('A' for Active; 'I' for Inactive)
REMARK    1  A    between atoms: N_5  and  C_8 
REMARK    2  A    between atoms: C_11  and  C_14 
REMARK       I    between atoms: C_14  and  N_16 
REMARK    3  A    between atoms: N_16  and  C_17 
REMARK       I    between atoms: N_24  and  C_26 
REMARK    4  A    between atoms: C_26  and  C_28 
REMARK    5  A    between atoms: C_28  and  C_29 
REMARK    6  A    between atoms: C_28  and  O_35 
ROOT
HETATM    1  C   UNK N   1      -1.185   0.164   0.017  0.00  0.00     0.132 A 
HETATM    2  C   UNK N   1       0.148   0.287  -0.004  0.00  0.00     0.031 A 
HETATM    3  C   UNK N   1       0.419   1.563  -0.097  0.00  0.00     0.055 A 
HETATM    4  N   UNK N   1      -0.733   2.275  -0.130  0.00  0.00    -0.301 N 
HETATM    5  N   UNK N   1      -1.742   1.396  -0.060  0.00  0.00    -0.285 N 
ATOM      6  HN  UNK N   1      -2.739   1.612  -0.065  1.00  0.00     0.188 HD
HETATM    7  C   UNK N   1       1.881   1.810  -0.163  0.00  0.00     0.185 A 
HETATM    8  N   UNK N   1       2.362   0.418  -0.077  0.00  0.00    -0.340 N 
HETATM    9  C   UNK N   1       1.311  -0.581   0.021  0.00  0.00     0.171 A 
HETATM   10  C   UNK N   1       3.668   0.026  -0.067  0.00  0.00     0.254 C 
HETATM   11  O   UNK N   1       3.918  -1.168   0.028  0.00  0.00    -0.270 OA
HETATM   12  H   UNK N   1      -0.814   3.255  -0.193  0.00  0.00     0.186 HD
ENDROOT
BRANCH   1  13
HETATM   13  N   UNK N   1      -1.783  -1.100   0.058  0.00  0.00    -0.307 N 
HETATM   14  C   UNK N   1      -3.042  -1.577   0.031  0.00  0.00     0.257 C 
HETATM   15  O   UNK N   1      -4.013  -0.837  -0.011  0.00  0.00    -0.267 OA
HETATM   16  H   UNK N   1      -1.117  -1.822   0.123  0.00  0.00     0.170 HD
BRANCH  14  17
HETATM   17  C   UNK N   1      -3.150  -3.052   0.026  0.00  0.00     0.032 A 
HETATM   18  C   UNK N   1      -4.359  -3.762  -0.005  0.00  0.00     0.019 A 
HETATM   19  C   UNK N   1      -4.333  -5.172  -0.017  0.00  0.00     0.030 A 
HETATM   20  C   UNK N   1      -3.102  -5.870  -0.004  0.00  0.00     0.030 A 
HETATM   21  C   UNK N   1      -1.915  -5.140   0.024  0.00  0.00     0.030 A 
HETATM   22  C   UNK N   1      -1.942  -3.763   0.039  0.00  0.00     0.019 A 
BRANCH  20  23
HETATM   23  N   UNK N   1      -3.038  -7.296   0.004  0.00  0.00    -0.378 N 
HETATM   24  C   UNK N   1      -4.270  -8.072  -0.036  0.00  0.00     0.153 C 
HETATM   25  C   UNK N   1      -4.063  -9.554   0.276  0.00  0.00     0.291 C 
HETATM   26  N   UNK N   1      -2.866 -10.053  -0.379  0.00  0.00     0.087 N 
HETATM   27  C   UNK N   1      -2.778 -11.470  -0.079  0.00  0.00     0.310 C 
HETATM   28  C   UNK N   1      -1.744  -9.420   0.285  0.00  0.00     0.291 C 
HETATM   29  C   UNK N   1      -1.721  -7.933  -0.032  0.00  0.00     0.153 C 
ENDBRANCH  20  23
ENDBRANCH  14  17
ENDBRANCH   1  13
BRANCH  10  30
HETATM   30  C   UNK N   1       4.808   1.031  -0.171  0.00  0.00     0.245 C 
BRANCH  30  31
HETATM   31  C   UNK N   1       6.233   0.483  -0.127  0.00  0.00    -0.020 A 
HETATM   32  C   UNK N   1       7.300   1.380  -0.276  0.00  0.00     0.010 A 
HETATM   33  C   UNK N   1       8.622   0.931  -0.217  0.00  0.00     0.001 A 
HETATM   34  C   UNK N   1       8.895  -0.423  -0.012  0.00  0.00     0.000 A 
HETATM   35  C   UNK N   1       7.844  -1.330   0.133  0.00  0.00     0.001 A 
HETATM   36  C   UNK N   1       6.524  -0.879   0.078  0.00  0.00     0.010 A 
ENDBRANCH  30  31
BRANCH  30  37
HETATM   37  O   UNK N   1       4.666   2.009   0.819  0.00  0.00    -0.377 OA
HETATM   38  C   UNK N   1       4.632   3.222   0.125  0.00  0.00     0.203 C 
ENDBRANCH  30  37
ENDBRANCH  10  30
TORSDOF 6
