REMARK  10 active torsions:
REMARK  status: ('A' for Active; 'I' for Inactive)
REMARK    1  A    between atoms: C_4  and  C_2 
REMARK    2  A    between atoms: C_8  and  C_36 
REMARK    3  A    between atoms: C_16  and  C_32 
REMARK    4  A    between atoms: C_20  and  C_25 
REMARK    5  A    between atoms: C_25  and  C_26 
REMARK    6  A    between atoms: C_32  and  C_33 
REMARK    7  A    between atoms: C_33  and  O_35 
REMARK    8  A    between atoms: C_36  and  C_37 
REMARK    9  A    between atoms: C_37  and  C_38 
REMARK   10  A    between atoms: C_38  and  N_39 
REMARK       I    between atoms: N_39  and  C_40 
REMARK       I    between atoms: C_40  and  N_43 
ROOT
HETATM    1  C   UNK N   1      -1.536  -1.205   0.059  0.00  0.00     0.182 C 
HETATM    2  C   UNK N   1      -0.127  -0.829   0.441  0.00  0.00     0.241 C 
HETATM    3  O   UNK N   1       0.502  -1.522   1.228  0.00  0.00    -0.271 OA
HETATM    4  N   UNK N   1       0.308   0.406   0.111  0.00  0.00    -0.346 N 
HETATM    5  C   UNK N   1       1.346   1.126   0.820  0.00  0.00     0.176 C 
HETATM    6  C   UNK N   1       1.500   2.467   0.190  0.00  0.00     0.240 C 
HETATM    7  O   UNK N   1       1.955   2.573  -0.940  0.00  0.00    -0.271 OA
HETATM    8  N   UNK N   1       0.969   3.535   0.824  0.00  0.00    -0.351 N 
HETATM    9  C   UNK N   1       0.770   4.798   0.163  0.00  0.00     0.225 C 
HETATM   10  C   UNK N   1      -0.529   4.741  -0.586  0.00  0.00     0.236 C 
HETATM   11  O   UNK N   1      -0.583   5.132  -1.743  0.00  0.00    -0.272 OA
HETATM   12  N   UNK N   1      -1.638   4.275   0.043  0.00  0.00    -0.346 N 
HETATM   13  C   UNK N   1      -2.946   4.250  -0.565  0.00  0.00     0.186 C 
HETATM   14  C   UNK N   1      -3.647   2.949  -0.209  0.00  0.00     0.241 C 
HETATM   15  O   UNK N   1      -4.623   2.976   0.531  0.00  0.00    -0.271 OA
HETATM   16  N   UNK N   1      -3.208   1.754  -0.695  0.00  0.00    -0.346 N 
HETATM   17  C   UNK N   1      -3.901   0.541  -0.306  0.00  0.00     0.181 C 
HETATM   18  C   UNK N   1      -3.482  -0.025   1.019  0.00  0.00     0.243 C 
HETATM   19  O   UNK N   1      -4.165   0.268   1.994  0.00  0.00    -0.271 OA
HETATM   20  N   UNK N   1      -2.419  -0.868   1.173  0.00  0.00    -0.341 N 
HETATM   21  C   UNK N   1      -2.130  -1.393   2.491  0.00  0.00     0.153 C 
HETATM   22  H   UNK N   1      -0.108   0.847  -0.665  0.00  0.00     0.163 HD
HETATM   23  H   UNK N   1       0.710   3.446   1.769  0.00  0.00     0.163 HD
HETATM   24  H   UNK N   1      -1.544   3.935   0.962  0.00  0.00     0.163 HD
HETATM   25  H   UNK N   1      -2.433   1.715  -1.300  0.00  0.00     0.163 HD
ENDROOT
BRANCH   5  26
HETATM   26  C   UNK N   1       2.633   0.351   1.108  0.00  0.00     0.036 C 
BRANCH  26  27
HETATM   27  C   UNK N   1       3.449   0.030  -0.121  0.00  0.00     0.023 C 
BRANCH  27  28
HETATM   28  C   UNK N   1       4.559   1.051  -0.242  0.00  0.00     0.138 C 
BRANCH  28  29
HETATM   29  N   UNK N   1       5.654   0.460  -0.957  0.00  0.00    -0.227 N 
HETATM   30  C   UNK N   1       6.928   0.316  -0.357  0.00  0.00     0.665 C 
HETATM   31  N   UNK N   1       7.854  -0.310  -0.980  0.00  0.00    -0.235 N 
HETATM   32  N   UNK N   1       7.175   0.822   0.941  0.00  0.00    -0.235 N 
HETATM   33  H   UNK N   1       7.793  -1.168  -1.459  0.00  0.00     0.174 HD
ATOM     34  HN  UNK N   1       8.772   0.136  -0.980  1.00  0.00     0.174 HD
HETATM   35  H   UNK N   1       7.565   0.850   1.844  0.00  0.00     0.174 HD
HETATM   36  H   UNK N   1       6.623   1.638   0.941  0.00  0.00     0.174 HD
HETATM   37  H   UNK N   1       5.517   0.148  -1.881  0.00  0.00     0.177 HD
ENDBRANCH  28  29
ENDBRANCH  27  28
ENDBRANCH  26  27
ENDBRANCH   5  26
BRANCH   1  38
HETATM   38  C   UNK N   1      -1.733  -2.655  -0.433  0.00  0.00     0.009 C 
HETATM   39  C   UNK N   1      -1.529  -3.711   0.640  0.00  0.00     0.012 C 
HETATM   40  C   UNK N   1      -0.870  -2.970  -1.640  0.00  0.00     0.012 C 
ENDBRANCH   1  38
BRANCH  17  41
HETATM   41  C   UNK N   1      -4.316  -0.435  -1.408  0.00  0.00     0.073 C 
BRANCH  41  42
HETATM   42  C   UNK N   1      -5.365  -1.365  -0.861  0.00  0.00    -0.056 A 
HETATM   43  C   UNK N   1      -5.106  -2.738  -0.766  0.00  0.00     0.007 A 
HETATM   44  C   UNK N   1      -6.052  -3.594  -0.190  0.00  0.00     0.001 A 
HETATM   45  C   UNK N   1      -7.257  -3.080   0.300  0.00  0.00     0.000 A 
HETATM   46  C   UNK N   1      -7.522  -1.712   0.205  0.00  0.00     0.001 A 
HETATM   47  C   UNK N   1      -6.579  -0.856  -0.373  0.00  0.00     0.007 A 
ENDBRANCH  41  42
ENDBRANCH  17  41
BRANCH  13  48
HETATM   48  C   UNK N   1      -3.694   5.472  -0.011  0.00  0.00     0.144 C 
BRANCH  48  49
HETATM   49  C   UNK N   1      -5.067   5.711  -0.571  0.00  0.00     0.141 C 
HETATM   50  O   UNK N   1      -5.534   4.984  -1.433  0.00  0.00    -0.650 OA
BRANCH  49  51
HETATM   51  O   UNK N   1      -5.796   6.739  -0.100  0.00  0.00    -0.776 OA
HETATM   52  H   UNK N   1      -5.429   7.537   0.228  0.00  0.00     0.167 HD
ENDBRANCH  49  51
ENDBRANCH  48  49
ENDBRANCH  13  48
TORSDOF 10
