REMARK  4 active torsions:
REMARK  status: ('A' for Active; 'I' for Inactive)
REMARK    1  A    between atoms: C_5  and  N_7 
REMARK       I    between atoms: N_7  and  C_8 
REMARK       I    between atoms: C_8  and  N_10 
REMARK    2  A    between atoms: C_11  and  N_10 
REMARK    3  A    between atoms: N_14  and  C_16 
REMARK    4  A    between atoms: C_19  and  C_23 
ROOT
HETATM    1  C   UNK N   1       0.539  -1.214   0.653  0.00  0.00     0.105 C 
HETATM    2  C   UNK N   1       1.878  -1.964   0.715  0.00  0.00     0.046 C 
HETATM    3  C   UNK N   1       1.753  -3.070  -0.325  0.00  0.00     0.126 C 
HETATM    4  N   UNK N   1       0.408  -2.932  -0.806  0.00  0.00    -0.365 N 
HETATM    5  C   UNK N   1      -0.077  -1.592  -0.675  0.00  0.00     0.149 C 
ENDROOT
BRANCH   1   6
HETATM    6  N   UNK N   1       0.693   0.207   0.877  0.00  0.00    -0.337 N 
HETATM    7  C   UNK N   1       1.596   0.974   0.221  0.00  0.00     0.321 C 
HETATM    8  N   UNK N   1       1.789   2.253   0.624  0.00  0.00    -0.308 N 
HETATM    9  O   UNK N   1       2.266   0.502  -0.689  0.00  0.00    -0.247 OA
HETATM   10  H   UNK N   1       1.125   2.656   1.228  0.00  0.00     0.170 HD
HETATM   11  H   UNK N   1       0.110   0.639   1.542  0.00  0.00     0.164 HD
BRANCH   8  12
HETATM   12  C   UNK N   1       2.900   3.043   0.223  0.00  0.00     0.053 A 
HETATM   13  C   UNK N   1       4.235   2.565   0.309  0.00  0.00     0.037 A 
HETATM   14  C   UNK N   1       5.291   3.397  -0.069  0.00  0.00     0.021 A 
HETATM   15 Br   UNK N   1       4.694   0.837   1.016  0.00  0.00    -0.049 Br
HETATM   16  C   UNK N   1       5.043   4.691  -0.525  0.00  0.00     0.002 A 
HETATM   17  C   UNK N   1       3.735   5.172  -0.586  0.00  0.00     0.002 A 
HETATM   18  C   UNK N   1       2.669   4.354  -0.206  0.00  0.00     0.031 A 
ENDBRANCH   8  12
ENDBRANCH   1   6
BRANCH   4  19
HETATM   19  C   UNK N   1      -0.498  -4.021  -0.670  0.00  0.00     0.102 A 
HETATM   20  C   UNK N   1      -0.019  -5.295  -0.328  0.00  0.00     0.049 A 
HETATM   21  C   UNK N   1      -0.919  -6.309  -0.018  0.00  0.00     0.021 A 
HETATM   22  C   UNK N   1      -2.292  -6.053  -0.048  0.00  0.00     0.063 A 
HETATM   23  C   UNK N   1      -2.737  -4.784  -0.433  0.00  0.00     0.106 A 
HETATM   24  N   UNK N   1      -1.842  -3.803  -0.727  0.00  0.00    -0.352 N 
ATOM     25  HN  UNK N   1      -2.185  -2.881  -0.996  1.00  0.00     0.166 HD
BRANCH  22  26
HETATM   26  C   UNK N   1      -3.278  -7.101   0.370  0.00  0.00     0.418 C 
HETATM   27  F   UNK N   1      -4.131  -7.386  -0.679  0.00  0.00    -0.166 F 
HETATM   28  F   UNK N   1      -4.014  -6.628   1.442  0.00  0.00    -0.166 F 
HETATM   29  F   UNK N   1      -2.633  -8.265   0.756  0.00  0.00    -0.166 F 
ENDBRANCH  22  26
ENDBRANCH   4  19
TORSDOF 4
