REMARK  5 active torsions:
REMARK  status: ('A' for Active; 'I' for Inactive)
REMARK    1  A    between atoms: C_4  and  C_28 
REMARK    2  A    between atoms: C_19  and  C_20 
REMARK    3  A    between atoms: C_19  and  O_27 
REMARK    4  A    between atoms: C_20  and  C_21 
REMARK    5  A    between atoms: C_31  and  S_34 
ROOT
HETATM    1  C   UNK N   1       0.614  -3.218   1.696  0.00  0.00     0.019 C 
HETATM    2  C   UNK N   1       0.875  -3.197   0.180  0.00  0.00    -0.002 C 
HETATM    3  C   UNK N   1       1.798  -2.041  -0.171  0.00  0.00     0.026 C 
HETATM    4  C   UNK N   1       3.159  -2.204   0.522  0.00  0.00     0.049 C 
HETATM    5  C   UNK N   1       3.803  -3.598   0.313  0.00  0.00    -0.060 C 
HETATM    6  C   UNK N   1       5.144  -3.809   0.089  0.00  0.00    -0.048 C 
HETATM    7  C   UNK N   1       6.144  -2.673  -0.003  0.00  0.00     0.047 C 
HETATM    8  C   UNK N   1       7.332  -3.013  -0.892  0.00  0.00     0.087 C 
HETATM    9  C   UNK N   1       7.907  -4.324  -0.465  0.00  0.00     0.150 C 
HETATM   10  O   UNK N   1       9.115  -4.471  -0.377  0.00  0.00    -0.293 OA
HETATM   11  C   UNK N   1       6.995  -5.438  -0.164  0.00  0.00     0.057 C 
HETATM   12  C   UNK N   1       5.687  -5.211   0.039  0.00  0.00    -0.048 C 
HETATM   13  C   UNK N   1       4.802  -6.371   0.346  0.00  0.00     0.040 C 
HETATM   14  C   UNK N   1       3.412  -6.083  -0.166  0.00  0.00     0.014 C 
HETATM   15  C   UNK N   1       2.853  -4.803   0.460  0.00  0.00     0.021 C 
HETATM   16  C   UNK N   1       1.523  -4.502  -0.235  0.00  0.00     0.005 C 
HETATM   17  C   UNK N   1       0.394  -5.530  -0.130  0.00  0.00     0.009 C 
HETATM   18  C   UNK N   1      -0.891  -4.706  -0.359  0.00  0.00     0.045 C 
HETATM   19  C   UNK N   1      -0.410  -3.282  -0.673  0.00  0.00     0.140 C 
ENDROOT
BRANCH   4  20
HETATM   20  C   UNK N   1       3.975  -0.955   0.362  0.00  0.00    -0.050 A 
HETATM   21  C   UNK N   1       4.101  -0.342  -0.892  0.00  0.00     0.009 A 
HETATM   22  C   UNK N   1       4.864   0.816  -1.040  0.00  0.00     0.024 A 
HETATM   23  C   UNK N   1       5.523   1.387   0.059  0.00  0.00     0.058 A 
HETATM   24  C   UNK N   1       5.407   0.741   1.329  0.00  0.00     0.024 A 
HETATM   25  C   UNK N   1       4.620  -0.403   1.473  0.00  0.00     0.009 A 
BRANCH  23  26
HETATM   26  S   UNK N   1       6.600   2.852  -0.273  0.00  0.00     0.171 S 
HETATM   27  O   UNK N   1       7.031   3.476   1.062  0.00  0.00    -0.223 OA
HETATM   28  O   UNK N   1       7.561   1.758   0.219  0.00  0.00    -0.223 OA
HETATM   29  C   UNK N   1       5.111   3.360   0.659  0.00  0.00     0.167 C 
ENDBRANCH  23  26
ENDBRANCH   4  20
BRANCH  19  30
HETATM   30  C   UNK N   1      -1.506  -2.178  -0.529  0.00  0.00     0.370 C 
HETATM   31  F   UNK N   1      -0.975  -0.971  -0.955  0.00  0.00    -0.193 F 
HETATM   32  F   UNK N   1      -2.532  -2.514  -1.400  0.00  0.00    -0.193 F 
BRANCH  30  33
HETATM   33  C   UNK N   1      -2.146  -1.945   0.851  0.00  0.00     0.457 C 
HETATM   34  F   UNK N   1      -1.252  -1.381   1.739  0.00  0.00    -0.165 F 
HETATM   35  F   UNK N   1      -2.646  -3.125   1.369  0.00  0.00    -0.165 F 
HETATM   36  F   UNK N   1      -3.193  -1.051   0.708  0.00  0.00    -0.165 F 
ENDBRANCH  30  33
ENDBRANCH  19  30
BRANCH  19  37
HETATM   37  O   UNK N   1      -0.040  -3.273  -2.029  0.00  0.00    -0.383 OA
HETATM   38  H   UNK N   1       0.092  -3.492  -2.965  0.00  0.00     0.210 HD
ENDBRANCH  19  37
TORSDOF 5
