REMARK  9 active torsions:
REMARK  status: ('A' for Active; 'I' for Inactive)
REMARK    1  A    between atoms: S_2  and  O_5 
REMARK    2  A    between atoms: O_5  and  C_6 
REMARK    3  A    between atoms: C_6  and  C_7 
REMARK    4  A    between atoms: C_7  and  C_8 
REMARK    5  A    between atoms: C_7  and  O_16 
REMARK    6  A    between atoms: C_8  and  C_9 
REMARK    7  A    between atoms: C_8  and  O_15 
REMARK    8  A    between atoms: C_9  and  O_10 
REMARK    9  A    between atoms: O_10  and  S_11 
ROOT
HETATM    1  C   UNK N   1       0.368   0.196  -0.736  0.00  0.00     0.174 C 
ENDROOT
BRANCH   1   2
HETATM    2  C   UNK N   1       0.237  -1.303  -1.007  0.00  0.00     0.224 C 
BRANCH   2   3
HETATM    3  O   UNK N   1       0.541  -2.066   0.125  0.00  0.00    -0.273 OA
BRANCH   3   4
HETATM    4  S   UNK N   1       1.447  -3.392  -0.492  0.00  0.00     0.261 S 
HETATM    5  C   UNK N   1       2.368  -4.679   0.395  0.00  0.00     0.194 C 
HETATM    6  O   UNK N   1       2.437  -2.749   0.491  0.00  0.00    -0.199 OA
HETATM    7  O   UNK N   1       0.489  -4.096   0.481  0.00  0.00    -0.199 OA
ENDBRANCH   3   4
ENDBRANCH   2   3
ENDBRANCH   1   2
BRANCH   1   8
HETATM    8  C   UNK N   1       1.736   0.607  -0.175  0.00  0.00     0.174 C 
BRANCH   8   9
HETATM    9  C   UNK N   1       1.987   2.100  -0.366  0.00  0.00     0.224 C 
BRANCH   9  10
HETATM   10  O   UNK N   1       1.149   2.902   0.426  0.00  0.00    -0.273 OA
BRANCH  10  11
HETATM   11  S   UNK N   1       0.697   4.225  -0.591  0.00  0.00     0.261 S 
HETATM   12  O   UNK N   1      -0.044   5.266   0.256  0.00  0.00    -0.199 OA
HETATM   13  O   UNK N   1       1.894   4.838   0.154  0.00  0.00    -0.199 OA
HETATM   14  C   UNK N   1      -0.595   3.529   0.477  0.00  0.00     0.194 C 
ENDBRANCH  10  11
ENDBRANCH   9  10
ENDBRANCH   8   9
BRANCH   8  15
HETATM   15  O   UNK N   1       2.755  -0.077  -0.840  0.00  0.00    -0.391 OA
HETATM   16  H   UNK N   1       2.697  -0.927  -1.302  0.00  0.00     0.210 HD
ENDBRANCH   8  15
ENDBRANCH   1   8
BRANCH   1  17
HETATM   17  O   UNK N   1      -0.649   0.600   0.128  0.00  0.00    -0.391 OA
HETATM   18  H   UNK N   1      -0.760   1.353   0.729  0.00  0.00     0.210 HD
ENDBRANCH   1  17
TORSDOF 9
