REMARK  6 active torsions:
REMARK  status: ('A' for Active; 'I' for Inactive)
REMARK    1  A    between atoms: C_9  and  O_12 
REMARK    2  A    between atoms: O_12  and  C_13 
REMARK    3  A    between atoms: C_16  and  O_24 
REMARK    4  A    between atoms: O_24  and  C_25 
REMARK    5  A    between atoms: C_25  and  C_26 
REMARK    6  A    between atoms: C_26  and  O_28 
ROOT
HETATM    1  C   UNK N   1       0.765   0.245  -0.043  0.00  0.00     0.178 A 
HETATM    2  C   UNK N   1      -0.511   0.789  -0.022  0.00  0.00     0.116 A 
HETATM    3  C   UNK N   1      -1.739   0.168   0.015  0.00  0.00     0.006 A 
HETATM    4  C   UNK N   1      -2.682   1.195  -0.036  0.00  0.00     0.094 A 
HETATM    5  C   UNK N   1      -1.990   2.404  -0.070  0.00  0.00     0.154 A 
HETATM    6  N   UNK N   1      -0.675   2.115  -0.071  0.00  0.00    -0.259 N 
HETATM    7  N   UNK N   1       0.346   2.965  -0.148  0.00  0.00    -0.289 N 
ATOM      8  HN  UNK N   1       0.184   3.972  -0.178  1.00  0.00     0.188 HD
HETATM    9  C   UNK N   1       1.615   2.463  -0.187  0.00  0.00     0.200 A 
HETATM   10  N   UNK N   1       1.815   1.110  -0.141  0.00  0.00    -0.330 N 
ATOM     11  HN  UNK N   1       2.766   0.742  -0.181  1.00  0.00     0.168 HD
HETATM   12  C   UNK N   1      -1.988  -1.304   0.064  0.00  0.00     0.054 C 
ENDROOT
BRANCH   1  13
HETATM   13  O   UNK N   1       0.910  -1.105  -0.020  0.00  0.00    -0.288 OA
BRANCH  13  14
HETATM   14  C   UNK N   1       1.985  -1.937  -0.037  0.00  0.00     0.117 A 
HETATM   15  C   UNK N   1       1.721  -3.292  -0.357  0.00  0.00     0.043 A 
HETATM   16  C   UNK N   1       2.749  -4.244  -0.431  0.00  0.00     0.033 A 
HETATM   17  C   UNK N   1       4.042  -3.814  -0.178  0.00  0.00     0.045 A 
HETATM   18  C   UNK N   1       4.322  -2.518   0.151  0.00  0.00     0.034 A 
HETATM   19  N   UNK N   1       5.159  -4.555  -0.213  0.00  0.00    -0.359 N 
HETATM   20  C   UNK N   1       5.682  -2.416   0.340  0.00  0.00     0.041 A 
HETATM   21  C   UNK N   1       3.329  -1.546   0.243  0.00  0.00     0.162 A 
HETATM   22  C   UNK N   1       6.160  -3.700   0.100  0.00  0.00     0.006 A 
HETATM   23  C   UNK N   1       7.589  -4.099   0.162  0.00  0.00     0.068 C 
HETATM   24  F   UNK N   1       3.682  -0.293   0.603  0.00  0.00    -0.202 F 
HETATM   25  H   UNK N   1       5.234  -5.514  -0.422  0.00  0.00     0.166 HD
ENDBRANCH  13  14
ENDBRANCH   1  13
BRANCH   4  26
HETATM   26  O   UNK N   1      -4.029   1.074  -0.109  0.00  0.00    -0.347 OA
BRANCH  26  27
HETATM   27  C   UNK N   1      -4.621  -0.105  -0.507  0.00  0.00     0.207 C 
BRANCH  27  28
HETATM   28  C   UNK N   1      -5.692  -0.554   0.459  0.00  0.00     0.138 C 
HETATM   29  C   UNK N   1      -6.060  -1.985   0.127  0.00  0.00     0.041 C 
BRANCH  28  30
HETATM   30  O   UNK N   1      -6.818   0.253   0.304  0.00  0.00    -0.394 OA
HETATM   31  H   UNK N   1      -6.724   1.213   0.197  0.00  0.00     0.210 HD
ENDBRANCH  28  30
ENDBRANCH  27  28
ENDBRANCH  26  27
ENDBRANCH   4  26
TORSDOF 6
