REMARK  9 active torsions:
REMARK  status: ('A' for Active; 'I' for Inactive)
REMARK    1  A    between atoms: C_2  and  C_3 
REMARK    2  A    between atoms: C_4  and  C_24 
REMARK    3  A    between atoms: N_7  and  C_8 
REMARK    4  A    between atoms: C_8  and  C_9 
REMARK    5  A    between atoms: C_18  and  O_19 
REMARK    6  A    between atoms: O_19  and  C_20 
REMARK    7  A    between atoms: C_20  and  C_21 
REMARK    8  A    between atoms: C_21  and  O_23 
REMARK    9  A    between atoms: C_24  and  C_26 
REMARK       I    between atoms: C_26  and  N_28 
ROOT
HETATM    1  C   UNK N   1      -0.917  -0.497   0.082  0.00  0.00     0.027 A 
HETATM    2  C   UNK N   1       0.012  -1.550   0.168  0.00  0.00     0.058 A 
HETATM    3  C   UNK N   1       1.268  -0.961   0.043  0.00  0.00     0.041 A 
HETATM    4  C   UNK N   1       1.052   0.387  -0.149  0.00  0.00     0.049 A 
HETATM    5  N   UNK N   1      -0.266   0.678  -0.150  0.00  0.00    -0.344 N 
HETATM    6  C   UNK N   1       2.099   1.291  -0.320  0.00  0.00     0.031 A 
HETATM    7  C   UNK N   1       3.411   0.807  -0.277  0.00  0.00     0.005 A 
HETATM    8  C   UNK N   1       3.653  -0.562  -0.067  0.00  0.00     0.038 A 
HETATM    9  C   UNK N   1       2.584  -1.472   0.098  0.00  0.00     0.083 A 
ENDROOT
BRANCH   2  10
HETATM   10  C   UNK N   1      -0.330  -2.994   0.311  0.00  0.00     0.252 C 
HETATM   11  O   UNK N   1      -1.265  -3.320   1.025  0.00  0.00    -0.281 OA
BRANCH  10  12
HETATM   12  C   UNK N   1       0.334  -4.042  -0.503  0.00  0.00     0.290 C 
HETATM   13  O   UNK N   1       0.057  -5.217  -0.321  0.00  0.00    -0.264 OA
HETATM   14  N   UNK N   1       1.143  -3.708  -1.529  0.00  0.00    -0.363 N 
HETATM   15  H   UNK N   1       1.649  -4.097  -2.279  0.00  0.00     0.159 HD
HETATM   16  H   UNK N   1       1.272  -2.732  -1.529  0.00  0.00     0.159 HD
ENDBRANCH  10  12
ENDBRANCH   2  10
BRANCH   1  17
HETATM   17  C   UNK N   1      -2.402  -0.671   0.139  0.00  0.00     0.054 C 
HETATM   18  C   UNK N   1      -2.868  -0.999   1.545  0.00  0.00     0.011 C 
ENDBRANCH   1  17
BRANCH   5  19
HETATM   19  C   UNK N   1      -0.723   2.059  -0.425  0.00  0.00     0.167 C 
BRANCH  19  20
HETATM   20  C   UNK N   1      -2.164   2.462  -0.307  0.00  0.00    -0.040 A 
HETATM   21  C   UNK N   1      -3.190   1.808  -1.001  0.00  0.00     0.009 A 
HETATM   22  C   UNK N   1      -4.500   2.296  -0.947  0.00  0.00     0.001 A 
HETATM   23  C   UNK N   1      -4.780   3.475  -0.249  0.00  0.00     0.000 A 
HETATM   24  C   UNK N   1      -3.752   4.159   0.402  0.00  0.00     0.001 A 
HETATM   25  C   UNK N   1      -2.450   3.653   0.372  0.00  0.00     0.009 A 
ENDBRANCH  19  20
ENDBRANCH   5  19
BRANCH   9  26
HETATM   26  O   UNK N   1       2.822  -2.789   0.316  0.00  0.00    -0.340 OA
BRANCH  26  27
HETATM   27  C   UNK N   1       4.093  -3.329   0.283  0.00  0.00     0.285 C 
BRANCH  27  28
HETATM   28  C   UNK N   1       4.056  -4.825   0.334  0.00  0.00     0.164 C 
HETATM   29  O   UNK N   1       5.098  -5.454   0.253  0.00  0.00    -0.648 OA
BRANCH  28  30
HETATM   30  O   UNK N   1       2.889  -5.483   0.459  0.00  0.00    -0.775 OA
HETATM   31  H   UNK N   1       2.086  -5.009   0.546  0.00  0.00     0.167 HD
ENDBRANCH  28  30
ENDBRANCH  27  28
ENDBRANCH  26  27
ENDBRANCH   9  26
TORSDOF 9
