REMARK  11 active torsions:
REMARK  status: ('A' for Active; 'I' for Inactive)
REMARK    1  A    between atoms: C_2  and  N_3 
REMARK    2  A    between atoms: N_3  and  C_4 
REMARK    3  A    between atoms: C_4  and  C_5 
REMARK    4  A    between atoms: C_5  and  S_6 
REMARK    5  A    between atoms: S_6  and  N_9 
REMARK    6  A    between atoms: N_9  and  C_10 
REMARK    7  A    between atoms: C_11  and  C_10 
REMARK    8  A    between atoms: C_11  and  C_30 
REMARK       I    between atoms: N_12  and  C_24 
REMARK    9  A    between atoms: C_15  and  N_17 
REMARK       I    between atoms: N_17  and  C_18 
REMARK   10  A    between atoms: C_18  and  C_20 
REMARK   11  A    between atoms: C_24  and  C_26 
ROOT
HETATM    1  C   UNK N   1       1.549  -0.760   0.728  0.00  0.00     0.155 C 
HETATM    2  N   UNK N   1       2.287  -1.788  -0.015  0.00  0.00    -0.231 N 
HETATM    3  N   UNK N   1       1.504  -2.839  -0.362  0.00  0.00    -0.273 N 
ATOM      4  HN  UNK N   1       1.616  -3.397  -1.208  1.00  0.00     0.189 HD
HETATM    5  C   UNK N   1       0.611  -3.026   0.520  0.00  0.00     0.164 C 
HETATM    6  S   UNK N   1       0.781  -1.867   1.982  0.00  0.00    -0.052 SA
HETATM    7  C   UNK N   1       3.642  -2.007   0.233  0.00  0.00     0.247 C 
HETATM    8  O   UNK N   1       4.215  -1.306   1.067  0.00  0.00    -0.271 OA
ENDROOT
BRANCH   1   9
HETATM    9  C   UNK N   1       0.091  -0.364   0.353  0.00  0.00     0.182 C 
BRANCH   9  10
HETATM   10  N   UNK N   1      -0.185   0.499  -0.764  0.00  0.00    -0.316 N 
HETATM   11  H   UNK N   1       0.463   0.799  -1.493  0.00  0.00     0.172 HD
BRANCH  10  12
HETATM   12  S   UNK N   1      -1.908   0.927  -0.597  0.00  0.00     0.228 S 
HETATM   13  O   UNK N   1      -2.708  -0.389  -0.627  0.00  0.00    -0.206 OA
HETATM   14  O   UNK N   1      -2.220   1.469  -1.991  0.00  0.00    -0.206 OA
BRANCH  12  15
HETATM   15  C   UNK N   1      -2.545   2.144   0.614  0.00  0.00     0.182 C 
BRANCH  15  16
HETATM   16  C   UNK N   1      -4.072   2.069   0.725  0.00  0.00     0.130 C 
BRANCH  16  17
HETATM   17  N   UNK N   1      -4.712   2.182  -0.580  0.00  0.00    -0.421 N 
HETATM   18  H   UNK N   1      -4.344   2.670  -1.397  0.00  0.00     0.153 HD
BRANCH  17  19
HETATM   19  C   UNK N   1      -5.975   1.468  -0.495  0.00  0.00     0.109 C 
HETATM   20  C   UNK N   1      -7.111   2.386  -0.899  0.00  0.00     0.026 C 
ENDBRANCH  17  19
ENDBRANCH  16  17
ENDBRANCH  15  16
ENDBRANCH  12  15
ENDBRANCH  10  12
ENDBRANCH   9  10
ENDBRANCH   1   9
BRANCH   1  21
HETATM   21  C   UNK N   1       2.316   0.568   0.532  0.00  0.00    -0.016 A 
HETATM   22  C   UNK N   1       2.149   1.722   1.307  0.00  0.00     0.011 A 
HETATM   23  C   UNK N   1       2.761   2.926   0.902  0.00  0.00     0.001 A 
HETATM   24  C   UNK N   1       3.509   2.995  -0.284  0.00  0.00     0.000 A 
HETATM   25  C   UNK N   1       3.649   1.867  -1.079  0.00  0.00     0.001 A 
HETATM   26  C   UNK N   1       3.044   0.686  -0.684  0.00  0.00     0.011 A 
ENDBRANCH   1  21
BRANCH   7  27
HETATM   27  C   UNK N   1       4.481  -3.087  -0.430  0.00  0.00     0.032 C 
HETATM   28  C   UNK N   1       3.825  -3.745  -1.622  0.00  0.00     0.025 C 
HETATM   29  C   UNK N   1       5.755  -2.445  -0.955  0.00  0.00     0.025 C 
HETATM   30  C   UNK N   1       4.878  -4.145   0.587  0.00  0.00     0.025 C 
ENDBRANCH   7  27
BRANCH   5  31
HETATM   31  N   UNK N   1      -0.502  -3.874   0.258  0.00  0.00    -0.306 N 
HETATM   32  C   UNK N   1      -0.402  -5.223   0.108  0.00  0.00     0.231 C 
HETATM   33  O   UNK N   1      -1.406  -5.854  -0.194  0.00  0.00    -0.272 OA
HETATM   34  H   UNK N   1      -1.392  -3.462   0.180  0.00  0.00     0.171 HD
BRANCH  32  35
HETATM   35  C   UNK N   1       0.892  -5.970   0.409  0.00  0.00     0.030 C 
HETATM   36  C   UNK N   1       1.896  -5.770  -0.700  0.00  0.00     0.025 C 
HETATM   37  C   UNK N   1       0.658  -7.463   0.534  0.00  0.00     0.025 C 
HETATM   38  C   UNK N   1       1.484  -5.507   1.732  0.00  0.00     0.025 C 
ENDBRANCH  32  35
ENDBRANCH   5  31
TORSDOF 11
