REMARK  22 active torsions:
REMARK  status: ('A' for Active; 'I' for Inactive)
REMARK    1  A    between atoms: C_2  and  C_4 
REMARK    2  A    between atoms: C_4  and  C_5 
REMARK    3  A    between atoms: C_5  and  C_6 
REMARK    4  A    between atoms: C_5  and  N_27 
REMARK       I    between atoms: C_6  and  N_8 
REMARK    5  A    between atoms: C_9  and  N_8 
REMARK    6  A    between atoms: C_9  and  C_10 
REMARK    7  A    between atoms: C_9  and  C_15 
REMARK    8  A    between atoms: C_10  and  C_11 
REMARK    9  A    between atoms: C_11  and  C_12 
REMARK   10  A    between atoms: C_12  and  C_13 
REMARK   11  A    between atoms: C_13  and  N_14 
REMARK       I    between atoms: C_15  and  N_17 
REMARK   12  A    between atoms: C_20  and  C_23 
REMARK   13  A    between atoms: C_20  and  N_26 
REMARK   14  A    between atoms: C_23  and  O_25 
REMARK       I    between atoms: N_27  and  C_28 
REMARK   15  A    between atoms: C_28  and  C_30 
REMARK   16  A    between atoms: C_30  and  C_31 
REMARK   17  A    between atoms: C_30  and  N_38 
REMARK   18  A    between atoms: C_31  and  C_32 
REMARK       I    between atoms: N_38  and  C_39 
REMARK   19  A    between atoms: C_39  and  C_41 
REMARK   20  A    between atoms: C_41  and  C_42 
REMARK   21  A    between atoms: C_41  and  N_49 
REMARK   22  A    between atoms: C_42  and  C_43 
ROOT
HETATM    1  C   UNK N   1       7.328 -13.256   0.459  0.00  0.00     0.177 C 
ENDROOT
BRANCH   1   2
HETATM    2  C   UNK N   1       6.745 -14.674   0.485  0.00  0.00     0.038 C 
BRANCH   2   3
HETATM    3  C   UNK N   1       6.884 -15.487  -0.805  0.00  0.00    -0.020 C 
HETATM    4  C   UNK N   1       6.006 -14.957  -1.923  0.00  0.00     0.009 C 
HETATM    5  C   UNK N   1       8.325 -15.620  -1.260  0.00  0.00     0.009 C 
ENDBRANCH   2   3
ENDBRANCH   1   2
BRANCH   1   6
HETATM    6  C   UNK N   1       6.679 -12.291  -0.511  0.00  0.00     0.241 C 
HETATM    7  O   UNK N   1       7.163 -12.119  -1.618  0.00  0.00    -0.271 OA
HETATM    8  N   UNK N   1       5.539 -11.639  -0.175  0.00  0.00    -0.346 N 
HETATM    9  H   UNK N   1       5.167 -10.968  -0.793  0.00  0.00     0.163 HD
BRANCH   8  10
HETATM   10  C   UNK N   1       4.856 -11.908   1.070  0.00  0.00     0.176 C 
BRANCH  10  11
HETATM   11  C   UNK N   1       4.317 -10.659   1.782  0.00  0.00     0.035 C 
BRANCH  11  12
HETATM   12  C   UNK N   1       3.389  -9.795   0.948  0.00  0.00     0.004 C 
BRANCH  12  13
HETATM   13  C   UNK N   1       2.881  -8.631   1.779  0.00  0.00     0.019 C 
BRANCH  13  14
HETATM   14  C   UNK N   1       1.982  -7.736   0.945  0.00  0.00     0.111 C 
BRANCH  14  15
HETATM   15  N   UNK N   1       0.633  -8.272   0.921  0.00  0.00    -0.430 N 
HETATM   16  H   UNK N   1      -0.167  -7.639   0.903  0.00  0.00     0.149 HD
HETATM   17  H   UNK N   1       0.485  -9.281   0.921  0.00  0.00     0.149 HD
ENDBRANCH  14  15
ENDBRANCH  13  14
ENDBRANCH  12  13
ENDBRANCH  11  12
ENDBRANCH  10  11
BRANCH  10  18
HETATM   18  C   UNK N   1       3.915 -13.078   0.943  0.00  0.00     0.242 C 
HETATM   19  O   UNK N   1       4.069 -14.018   1.714  0.00  0.00    -0.271 OA
HETATM   20  N   UNK N   1       2.911 -13.128   0.017  0.00  0.00    -0.350 N 
HETATM   21  C   UNK N   1       1.980 -14.215   0.000  0.00  0.00     0.129 C 
HETATM   22  C   UNK N   1       2.639 -12.051  -0.895  0.00  0.00     0.129 C 
HETATM   23  C   UNK N   1       0.702 -13.694   0.631  0.00  0.00     0.061 C 
HETATM   24  C   UNK N   1       0.224 -12.311   0.117  0.00  0.00     0.113 C 
HETATM   25  C   UNK N   1       1.319 -11.397  -0.487  0.00  0.00     0.061 C 
BRANCH  24  26
HETATM   26  C   UNK N   1      -0.896 -12.446  -0.880  0.00  0.00     0.169 C 
HETATM   27  O   UNK N   1      -1.276 -13.544  -1.255  0.00  0.00    -0.648 OA
BRANCH  26  28
HETATM   28  O   UNK N   1      -1.515 -11.338  -1.336  0.00  0.00    -0.775 OA
HETATM   29  H   UNK N   1      -1.064 -10.581  -1.653  0.00  0.00     0.167 HD
ENDBRANCH  26  28
ENDBRANCH  24  26
BRANCH  24  30
HETATM   30  N   UNK N   1      -0.304 -11.612   1.275  0.00  0.00    -0.413 N 
HETATM   31  H   UNK N   1      -0.064 -11.045   2.088  0.00  0.00     0.151 HD
HETATM   32  H   UNK N   1      -1.316 -11.737   1.275  0.00  0.00     0.151 HD
ENDBRANCH  24  30
ENDBRANCH  10  18
ENDBRANCH   8  10
ENDBRANCH   1   6
BRANCH   1  33
HETATM   33  N   UNK N   1       8.777 -13.240   0.604  0.00  0.00    -0.346 N 
HETATM   34  C   UNK N   1       9.604 -12.165   0.501  0.00  0.00     0.241 C 
HETATM   35  O   UNK N   1      10.776 -12.299   0.800  0.00  0.00    -0.271 OA
HETATM   36  H   UNK N   1       9.207 -14.105   0.798  0.00  0.00     0.163 HD
BRANCH  34  37
HETATM   37  C   UNK N   1       9.097 -10.824   0.050  0.00  0.00     0.180 C 
BRANCH  37  38
HETATM   38  C   UNK N   1       9.071  -9.686   1.063  0.00  0.00     0.073 C 
BRANCH  38  39
HETATM   39  C   UNK N   1       8.039  -8.688   0.625  0.00  0.00    -0.056 A 
HETATM   40  C   UNK N   1       6.842  -8.566   1.337  0.00  0.00     0.007 A 
HETATM   41  C   UNK N   1       5.851  -7.685   0.893  0.00  0.00     0.001 A 
HETATM   42  C   UNK N   1       6.046  -6.931  -0.268  0.00  0.00     0.000 A 
HETATM   43  C   UNK N   1       7.243  -7.043  -0.977  0.00  0.00     0.001 A 
HETATM   44  C   UNK N   1       8.236  -7.918  -0.532  0.00  0.00     0.007 A 
ENDBRANCH  38  39
ENDBRANCH  37  38
BRANCH  37  45
HETATM   45  N   UNK N   1       9.479 -10.392  -1.286  0.00  0.00    -0.346 N 
HETATM   46  C   UNK N   1      10.696 -10.040  -1.783  0.00  0.00     0.240 C 
HETATM   47  O   UNK N   1      10.741  -9.547  -2.897  0.00  0.00    -0.271 OA
HETATM   48  H   UNK N   1       8.739 -10.349  -1.934  0.00  0.00     0.163 HD
BRANCH  46  49
HETATM   49  C   UNK N   1      12.004 -10.250  -1.082  0.00  0.00     0.171 C 
BRANCH  49  50
HETATM   50  C   UNK N   1      12.203  -9.635   0.298  0.00  0.00     0.072 C 
BRANCH  50  51
HETATM   51  C   UNK N   1      13.676  -9.539   0.518  0.00  0.00    -0.056 A 
HETATM   52  C   UNK N   1      14.419  -8.572  -0.171  0.00  0.00     0.007 A 
HETATM   53  C   UNK N   1      15.811  -8.547  -0.060  0.00  0.00     0.001 A 
HETATM   54  C   UNK N   1      16.466  -9.499   0.727  0.00  0.00     0.000 A 
HETATM   55  C   UNK N   1      15.726 -10.467   1.415  0.00  0.00     0.001 A 
HETATM   56  C   UNK N   1      14.332 -10.488   1.310  0.00  0.00     0.007 A 
ENDBRANCH  50  51
ENDBRANCH  49  50
BRANCH  49  57
HETATM   57  N   UNK N   1      12.430 -11.638  -1.139  0.00  0.00    -0.418 N 
HETATM   58  H   UNK N   1      11.735 -12.384  -1.180  0.00  0.00     0.150 HD
HETATM   59  H   UNK N   1      13.424 -11.867  -1.139  0.00  0.00     0.150 HD
ENDBRANCH  49  57
ENDBRANCH  46  49
ENDBRANCH  37  45
ENDBRANCH  34  37
ENDBRANCH   1  33
TORSDOF 22
