REMARK  1 active torsions:
REMARK  status: ('A' for Active; 'I' for Inactive)
REMARK    1  A    between atoms: C_11  and  C_10 
ROOT
HETATM    1  C   UNK N   1      -0.844   0.759  -0.000  0.00  0.00     0.003 A 
HETATM    2  C   UNK N   1      -0.821   2.157  -0.000  0.00  0.00     0.003 A 
HETATM    3  C   UNK N   1       0.355   0.036   0.000  0.00  0.00     0.039 A 
HETATM    4  C   UNK N   1       0.399   2.834  -0.000  0.00  0.00     0.040 A 
HETATM    5  C   UNK N   1       4.007   0.586  -0.000  0.00  0.00     0.216 A 
HETATM    6  C   UNK N   1       1.580   0.712  -0.000  0.00  0.00     0.102 A 
HETATM    7  C   UNK N   1       1.596   2.116  -0.000  0.00  0.00     0.103 A 
HETATM    8  C   UNK N   1       3.975   2.124   0.000  0.00  0.00     0.220 A 
HETATM    9  O   UNK N   1       2.741   0.011  -0.000  0.00  0.00    -0.345 OA
HETATM   10  O   UNK N   1       2.765   2.777   0.000  0.00  0.00    -0.333 OA
ENDROOT
BRANCH   8  11
HETATM   11  C   UNK N   1       5.187   2.994   0.000  0.00  0.00     0.105 A 
HETATM   12  N   UNK N   1       6.375   2.553   0.000  0.00  0.00    -0.376 N 
HETATM   13  C   UNK N   1       7.328   3.642  -0.000  0.00  0.00     0.140 A 
ATOM     14  HN  UNK N   1       6.626   1.565   0.000  1.00  0.00     0.160 HD
HETATM   15  C   UNK N   1       6.445   4.917  -0.000  0.00  0.00     0.140 A 
HETATM   16  N   UNK N   1       5.112   4.383   0.000  0.00  0.00    -0.376 N 
HETATM   17  H   UNK N   1       4.282   4.913   0.000  0.00  0.00     0.160 HD
ENDBRANCH   8  11
TORSDOF 1
