REMARK  21 active torsions:
REMARK  status: ('A' for Active; 'I' for Inactive)
REMARK    1  A    between atoms: C_2  and  C_4 
REMARK    2  A    between atoms: C_2  and  N_53 
REMARK       I    between atoms: C_4  and  N_6 
REMARK    3  A    between atoms: C_7  and  N_6 
REMARK    4  A    between atoms: C_7  and  C_8 
REMARK    5  A    between atoms: C_7  and  C_15 
REMARK    6  A    between atoms: C_8  and  C_9 
REMARK       I    between atoms: C_15  and  N_17 
REMARK    7  A    between atoms: C_18  and  N_17 
REMARK    8  A    between atoms: C_18  and  C_19 
REMARK    9  A    between atoms: C_18  and  C_30 
REMARK   10  A    between atoms: C_19  and  C_20 
REMARK       I    between atoms: C_30  and  N_32 
REMARK   11  A    between atoms: C_33  and  N_32 
REMARK   12  A    between atoms: C_33  and  C_34 
REMARK   13  A    between atoms: C_33  and  C_41 
REMARK   14  A    between atoms: C_34  and  C_35 
REMARK       I    between atoms: C_41  and  N_43 
REMARK   15  A    between atoms: C_44  and  N_43 
REMARK   16  A    between atoms: C_44  and  C_45 
REMARK   17  A    between atoms: C_44  and  C_50 
REMARK   18  A    between atoms: C_45  and  C_46 
REMARK   19  A    between atoms: C_46  and  C_47 
REMARK   20  A    between atoms: C_47  and  C_48 
REMARK   21  A    between atoms: C_48  and  N_49 
REMARK       I    between atoms: C_50  and  N_52 
ROOT
HETATM    1  C   UNK N   1       6.858  -5.402   0.408  0.00  0.00     0.180 C 
ENDROOT
BRANCH   1   2
HETATM    2  N   UNK N   1       5.608  -4.731   0.164  0.00  0.00    -0.346 N 
HETATM    3  C   UNK N   1       4.689  -4.597   1.153  0.00  0.00     0.241 C 
HETATM    4  O   UNK N   1       4.885  -5.096   2.254  0.00  0.00    -0.271 OA
HETATM    5  H   UNK N   1       5.417  -4.366  -0.730  0.00  0.00     0.163 HD
BRANCH   3   6
HETATM    6  C   UNK N   1       3.401  -3.879   0.902  0.00  0.00     0.182 C 
BRANCH   6   7
HETATM    7  N   UNK N   1       2.657  -4.585  -0.108  0.00  0.00    -0.345 N 
HETATM    8  C   UNK N   1       1.355  -4.922   0.099  0.00  0.00     0.245 C 
HETATM    9  O   UNK N   1       0.738  -4.448   1.031  0.00  0.00    -0.271 OA
HETATM   10  H   UNK N   1       3.095  -4.826  -0.957  0.00  0.00     0.163 HD
BRANCH   8  11
HETATM   11  C   UNK N   1       0.695  -5.947  -0.795  0.00  0.00     0.098 C 
HETATM   12  C   UNK N   1       0.250  -7.114   0.070  0.00  0.00     0.048 C 
HETATM   13  C   UNK N   1       1.637  -6.483  -1.858  0.00  0.00     0.048 C 
BRANCH  11  14
HETATM   14  N   UNK N   1      -0.468  -5.364  -1.441  0.00  0.00    -0.415 N 
HETATM   15  H   UNK N   1      -0.522  -4.452  -1.894  0.00  0.00     0.151 HD
HETATM   16  H   UNK N   1      -1.320  -5.925  -1.441  0.00  0.00     0.151 HD
ENDBRANCH  11  14
ENDBRANCH   8  11
ENDBRANCH   6   7
BRANCH   6  17
HETATM   17  C   UNK N   1       3.444  -2.359   0.679  0.00  0.00     0.093 C 
BRANCH  17  18
HETATM   18  C   UNK N   1       4.619  -1.796  -0.053  0.00  0.00     0.028 A 
HETATM   19  C   UNK N   1       5.411  -0.768   0.398  0.00  0.00     0.114 A 
HETATM   20  N   UNK N   1       6.316  -0.500  -0.560  0.00  0.00    -0.360 N 
HETATM   21  C   UNK N   1       6.058  -1.363  -1.566  0.00  0.00     0.180 A 
HETATM   22  H   UNK N   1       7.023   0.185  -0.533  0.00  0.00     0.166 HD
HETATM   23  N   UNK N   1       5.012  -2.166  -1.281  0.00  0.00    -0.354 N 
ATOM     24  HN  UNK N   1       4.609  -2.894  -1.870  1.00  0.00     0.166 HD
ENDBRANCH  17  18
ENDBRANCH   6  17
ENDBRANCH   3   6
ENDBRANCH   1   2
BRANCH   1  25
HETATM   25  C   UNK N   1       7.151  -6.493  -0.639  0.00  0.00     0.073 C 
BRANCH  25  26
HETATM   26  C   UNK N   1       8.384  -7.290  -0.310  0.00  0.00    -0.055 A 
HETATM   27  C   UNK N   1       9.613  -6.640  -0.145  0.00  0.00     0.008 A 
HETATM   28  C   UNK N   1      10.756  -7.349   0.197  0.00  0.00     0.013 A 
HETATM   29  C   UNK N   1      10.702  -8.726   0.351  0.00  0.00    -0.026 A 
HETATM   30  C   UNK N   1      11.857  -9.433   0.689  0.00  0.00     0.012 A 
HETATM   31  C   UNK N   1       9.478  -9.406   0.160  0.00  0.00    -0.025 A 
HETATM   32  C   UNK N   1      11.804 -10.821   0.835  0.00  0.00     0.001 A 
HETATM   33  C   UNK N   1      10.596 -11.501   0.639  0.00  0.00     0.001 A 
HETATM   34  C   UNK N   1       9.434 -10.795   0.304  0.00  0.00     0.012 A 
HETATM   35  C   UNK N   1       8.319  -8.683  -0.165  0.00  0.00     0.019 A 
ENDBRANCH  25  26
ENDBRANCH   1  25
BRANCH   1  36
HETATM   36  C   UNK N   1       7.941  -4.381   0.513  0.00  0.00     0.241 C 
HETATM   37  O   UNK N   1       8.343  -4.069   1.623  0.00  0.00    -0.271 OA
HETATM   38  N   UNK N   1       8.490  -3.837  -0.611  0.00  0.00    -0.346 N 
HETATM   39  H   UNK N   1       8.122  -4.107  -1.483  0.00  0.00     0.163 HD
BRANCH  38  40
HETATM   40  C   UNK N   1       9.585  -2.884  -0.595  0.00  0.00     0.180 C 
BRANCH  40  41
HETATM   41  C   UNK N   1       9.150  -1.632   0.176  0.00  0.00     0.073 C 
BRANCH  41  42
HETATM   42  C   UNK N   1      10.085  -0.460   0.181  0.00  0.00    -0.056 A 
HETATM   43  C   UNK N   1       9.691   0.693   0.867  0.00  0.00     0.007 A 
HETATM   44  C   UNK N   1      10.535   1.805   0.920  0.00  0.00     0.001 A 
HETATM   45  C   UNK N   1      11.781   1.767   0.290  0.00  0.00     0.000 A 
HETATM   46  C   UNK N   1      12.179   0.620  -0.401  0.00  0.00     0.001 A 
HETATM   47  C   UNK N   1      11.333  -0.490  -0.459  0.00  0.00     0.007 A 
ENDBRANCH  41  42
ENDBRANCH  40  41
BRANCH  40  48
HETATM   48  C   UNK N   1      10.861  -3.502  -0.061  0.00  0.00     0.241 C 
HETATM   49  O   UNK N   1      10.913  -3.905   1.092  0.00  0.00    -0.271 OA
HETATM   50  N   UNK N   1      11.964  -3.555  -0.857  0.00  0.00    -0.346 N 
HETATM   51  H   UNK N   1      11.881  -3.239  -1.786  0.00  0.00     0.163 HD
BRANCH  50  52
HETATM   52  C   UNK N   1      13.259  -4.051  -0.414  0.00  0.00     0.176 C 
BRANCH  52  53
HETATM   53  C   UNK N   1      13.732  -3.302   0.830  0.00  0.00     0.035 C 
BRANCH  53  54
HETATM   54  C   UNK N   1      14.263  -1.938   0.432  0.00  0.00     0.004 C 
BRANCH  54  55
HETATM   55  C   UNK N   1      15.766  -1.896   0.639  0.00  0.00     0.019 C 
BRANCH  55  56
HETATM   56  C   UNK N   1      16.467  -2.849  -0.311  0.00  0.00     0.111 C 
BRANCH  56  57
HETATM   57  N   UNK N   1      17.704  -3.305   0.294  0.00  0.00    -0.430 N 
HETATM   58  H   UNK N   1      17.861  -4.218   0.720  0.00  0.00     0.149 HD
HETATM   59  H   UNK N   1      18.488  -2.652   0.294  0.00  0.00     0.149 HD
ENDBRANCH  56  57
ENDBRANCH  55  56
ENDBRANCH  54  55
ENDBRANCH  53  54
ENDBRANCH  52  53
BRANCH  52  60
HETATM   60  C   UNK N   1      13.281  -5.546  -0.250  0.00  0.00     0.238 C 
HETATM   61  O   UNK N   1      13.533  -6.055   0.833  0.00  0.00    -0.271 OA
HETATM   62  N   UNK N   1      13.081  -6.334  -1.325  0.00  0.00    -0.368 N 
HETATM   63  H   UNK N   1      12.510  -6.495  -2.110  0.00  0.00     0.159 HD
HETATM   64  H   UNK N   1      13.786  -7.021  -1.325  0.00  0.00     0.159 HD
ENDBRANCH  52  60
ENDBRANCH  50  52
ENDBRANCH  40  48
ENDBRANCH  38  40
ENDBRANCH   1  36
TORSDOF 21
