REMARK  12 active torsions:
REMARK  status: ('A' for Active; 'I' for Inactive)
REMARK    1  A    between atoms: O_2  and  C_3 
REMARK    2  A    between atoms: C_6  and  C_14 
REMARK    3  A    between atoms: C_8  and  O_9 
REMARK    4  A    between atoms: O_9  and  P_10 
REMARK    5  A    between atoms: P_10  and  O_12 
REMARK    6  A    between atoms: P_10  and  O_13 
REMARK    7  A    between atoms: C_14  and  S_15 
REMARK    8  A    between atoms: S_15  and  C_18 
REMARK    9  A    between atoms: C_19  and  C_20 
REMARK   10  A    between atoms: C_21  and  O_30 
REMARK   11  A    between atoms: C_23  and  O_28 
REMARK   12  A    between atoms: C_25  and  O_26 
ROOT
HETATM    1  S   UNK N   1      -2.452  -7.411  -0.608  0.00  0.00     0.169 S 
HETATM    2  O   UNK N   1      -3.519  -6.976   0.408  0.00  0.00    -0.223 OA
HETATM    3  O   UNK N   1      -2.486  -6.212  -1.567  0.00  0.00    -0.223 OA
ENDROOT
BRANCH   1   4
HETATM    4  C   UNK N   1      -1.707  -6.289   0.685  0.00  0.00     0.183 C 
BRANCH   4   5
HETATM    5  C   UNK N   1      -1.644  -4.797   0.458  0.00  0.00    -0.041 A 
HETATM    6  C   UNK N   1      -0.401  -4.182   0.369  0.00  0.00     0.011 A 
HETATM    7  C   UNK N   1      -0.316  -2.812   0.157  0.00  0.00     0.040 A 
HETATM    8  C   UNK N   1      -1.476  -2.024   0.038  0.00  0.00     0.102 A 
HETATM    9  C   UNK N   1      -2.751  -2.649   0.144  0.00  0.00     0.114 A 
HETATM   10  C   UNK N   1      -2.811  -4.032   0.353  0.00  0.00     0.048 A 
BRANCH   8  11
HETATM   11  O   UNK N   1      -1.365  -0.692  -0.174  0.00  0.00    -0.353 OA
HETATM   12  C   UNK N   1      -0.158  -0.036  -0.283  0.00  0.00     0.210 C 
ENDBRANCH   8  11
BRANCH   9  13
HETATM   13  O   UNK N   1      -3.940  -1.987   0.067  0.00  0.00    -0.252 OA
BRANCH  13  14
HETATM   14  P   UNK N   1      -4.197  -0.292  -0.099  0.00  0.00     0.396 P 
HETATM   15  O   UNK N   1      -5.731  -0.066  -0.043  0.00  0.00    -0.631 OA
BRANCH  14  16
HETATM   16  O   UNK N   1      -3.506   0.584   1.231  0.00  0.00    -0.307 OA
HETATM   17  H   UNK N   1      -2.889   0.494   1.975  0.00  0.00     0.222 HD
ENDBRANCH  14  16
BRANCH  14  18
HETATM   18  O   UNK N   1      -3.645   0.305  -1.634  0.00  0.00    -0.307 OA
HETATM   19  H   UNK N   1      -3.202   0.205  -2.491  0.00  0.00     0.222 HD
ENDBRANCH  14  18
ENDBRANCH  13  14
ENDBRANCH   9  13
ENDBRANCH   4   5
ENDBRANCH   1   4
BRANCH   1  20
HETATM   20  C   UNK N   1      -0.713  -7.557  -0.167  0.00  0.00     0.110 C 
HETATM   21  C   UNK N   1      -0.150  -8.766  -0.174  0.00  0.00     0.028 C 
BRANCH  21  22
HETATM   22  C   UNK N   1       1.296  -9.073  -0.015  0.00  0.00     0.031 A 
HETATM   23  C   UNK N   1       2.275  -8.041   0.053  0.00  0.00     0.083 A 
HETATM   24  C   UNK N   1       3.637  -8.382   0.126  0.00  0.00     0.074 A 
HETATM   25  C   UNK N   1       4.047  -9.718   0.135  0.00  0.00     0.073 A 
HETATM   26  C   UNK N   1       3.090 -10.724   0.091  0.00  0.00     0.074 A 
HETATM   27  C   UNK N   1       1.725 -10.437   0.019  0.00  0.00     0.083 A 
BRANCH  23  28
HETATM   28  O   UNK N   1       1.902  -6.736   0.029  0.00  0.00    -0.355 OA
HETATM   29  C   UNK N   1       2.796  -5.689   0.096  0.00  0.00     0.210 C 
ENDBRANCH  23  28
BRANCH  25  30
HETATM   30  O   UNK N   1       5.356 -10.064   0.173  0.00  0.00    -0.356 OA
HETATM   31  C   UNK N   1       6.382  -9.146   0.157  0.00  0.00     0.210 C 
ENDBRANCH  25  30
BRANCH  27  32
HETATM   32  O   UNK N   1       0.885 -11.511  -0.024  0.00  0.00    -0.355 OA
HETATM   33  C   UNK N   1      -0.490 -11.497  -0.001  0.00  0.00     0.210 C 
ENDBRANCH  27  32
ENDBRANCH  21  22
ENDBRANCH   1  20
TORSDOF 12
