REMARK  2 active torsions:
REMARK  status: ('A' for Active; 'I' for Inactive)
REMARK    1  A    between atoms: C_2  and  N_4 
REMARK       I    between atoms: N_4  and  C_5 
REMARK       I    between atoms: C_5  and  N_8 
REMARK       I    between atoms: N_8  and  C_9 
REMARK       I    between atoms: C_9  and  N_12 
REMARK    2  A    between atoms: N_12  and  C_13 
ROOT
HETATM    1  N   UNK N   1       0.400  -3.061   0.001  0.00  0.00    -0.222 N 
HETATM    2  C   UNK N   1       1.555  -3.894   0.000  0.00  0.00     0.686 C 
HETATM    3  N   UNK N   1       1.428  -5.174  -0.000  0.00  0.00    -0.234 N 
ATOM      4  HN  UNK N   1       2.258  -5.768  -0.000  1.00  0.00     0.174 HD
HETATM    5  N   UNK N   1       2.854  -3.296   0.000  0.00  0.00    -0.023 N 
HETATM    6  C   UNK N   1       4.076  -4.033   0.000  0.00  0.00     0.690 C 
HETATM    7  N   UNK N   1       4.050  -5.319  -0.000  0.00  0.00    -0.234 N 
ATOM      8  HN  UNK N   1       4.923  -5.846  -0.000  1.00  0.00     0.174 HD
HETATM    9  N   UNK N   1       5.325  -3.337   0.000  0.00  0.00    -0.192 N 
HETATM   10  H   UNK N   1       0.544  -2.088   0.005  0.00  0.00     0.178 HD
HETATM   11  H   UNK N   1       0.532  -5.580  -0.001  0.00  0.00     0.174 HD
HETATM   12  H   UNK N   1       2.908  -2.313   0.001  0.00  0.00     0.203 HD
HETATM   13  H   UNK N   1       3.188  -5.794  -0.000  0.00  0.00     0.174 HD
HETATM   14  H   UNK N   1       5.299  -2.353   0.000  0.00  0.00     0.184 HD
ENDROOT
BRANCH   9  15
HETATM   15  C   UNK N   1       6.608  -3.966  -0.000  0.00  0.00     0.051 A 
HETATM   16  C   UNK N   1       7.767  -3.180  -0.000  0.00  0.00     0.032 A 
HETATM   17  C   UNK N   1       9.030  -3.787  -0.000  0.00  0.00     0.028 A 
HETATM   18  C   UNK N   1       9.145  -5.183  -0.000  0.00  0.00     0.055 A 
HETATM   19  C   UNK N   1       7.987  -5.974  -0.000  0.00  0.00     0.058 A 
HETATM   20 Cl   UNK N   1      10.740  -5.917  -0.000  0.00  0.00    -0.083 Cl
HETATM   21  C   UNK N   1       6.738  -5.363   0.000  0.00  0.00     0.055 A 
HETATM   22 Cl   UNK N   1       8.064  -7.728  -0.000  0.00  0.00    -0.082 Cl
ENDBRANCH   9  15
BRANCH   1  23
HETATM   23  C   UNK N   1      -0.975  -3.534  -0.005  0.00  0.00     0.091 C 
HETATM   24  C   UNK N   1      -2.068  -2.489   0.002  0.00  0.00     0.032 C 
HETATM   25  C   UNK N   1      -1.324  -5.016   0.002  0.00  0.00     0.032 C 
ENDBRANCH   1  23
TORSDOF 2
