REMARK  8 active torsions:
REMARK  status: ('A' for Active; 'I' for Inactive)
REMARK       I    between atoms: N_2  and  C_3 
REMARK    1  A    between atoms: C_3  and  C_5 
REMARK    2  A    between atoms: C_8  and  N_11 
REMARK       I    between atoms: N_11  and  C_12 
REMARK    3  A    between atoms: C_16  and  C_36 
REMARK    4  A    between atoms: C_17  and  N_20 
REMARK    5  A    between atoms: N_20  and  C_21 
REMARK    6  A    between atoms: C_21  and  C_22 
REMARK    7  A    between atoms: C_23  and  N_30 
REMARK    8  A    between atoms: N_30  and  S_32 
ROOT
HETATM    1  N   UNK N   1       0.590  -7.480  -1.370  0.00  0.00    -0.192 N 
HETATM    2  C   UNK N   1      -0.673  -7.876  -0.835  0.00  0.00     0.684 A 
HETATM    3  N   UNK N   1      -1.516  -6.928  -0.337  0.00  0.00    -0.201 N 
ATOM      4  HN  UNK N   1      -1.231  -5.949  -0.366  1.00  0.00     0.183 HD
HETATM    5  C   UNK N   1      -2.713  -7.244   0.193  0.00  0.00     0.126 A 
HETATM    6  C   UNK N   1      -3.111  -8.571   0.266  0.00  0.00     0.107 A 
HETATM    7  C   UNK N   1      -2.228  -9.559  -0.229  0.00  0.00     0.133 A 
HETATM    8  N   UNK N   1      -1.031  -9.185  -0.775  0.00  0.00    -0.176 N 
ATOM      9  HN  UNK N   1      -0.400  -9.897  -1.140  1.00  0.00     0.186 HD
HETATM   10  H   UNK N   1       1.224  -8.138  -1.738  0.00  0.00     0.184 HD
ENDROOT
BRANCH   7  11
HETATM   11  N   UNK N   1      -2.597 -10.928  -0.211  0.00  0.00    -0.369 N 
HETATM   12  H   UNK N   1      -3.347 -11.228   0.353  0.00  0.00     0.161 HD
BRANCH  11  13
HETATM   13  C   UNK N   1      -1.875 -11.882  -1.017  0.00  0.00     0.182 C 
BRANCH  13  14
HETATM   14  C   UNK N   1      -1.329 -13.018  -0.215  0.00  0.00     0.072 A 
HETATM   15  C   UNK N   1       0.058 -13.202  -0.091  0.00  0.00     0.141 A 
HETATM   16  N   UNK N   1       0.531 -14.268   0.609  0.00  0.00    -0.349 N 
HETATM   17  C   UNK N   1      -0.318 -15.164   1.179  0.00  0.00     0.106 A 
ATOM     18  HN  UNK N   1       1.537 -14.397   0.709  1.00  0.00     0.167 HD
HETATM   19  C   UNK N   1      -1.696 -14.979   1.060  0.00  0.00     0.105 A 
HETATM   20  N   UNK N   1      -2.174 -13.911   0.367  0.00  0.00    -0.363 N 
ATOM     21  HN  UNK N   1      -3.181 -13.777   0.282  1.00  0.00     0.165 HD
BRANCH  15  22
HETATM   22  N   UNK N   1       0.962 -12.285  -0.674  0.00  0.00    -0.264 N 
HETATM   23  C   UNK N   1       1.480 -12.574  -1.985  0.00  0.00     0.171 C 
BRANCH  22  24
HETATM   24  S   UNK N   1       1.906 -11.256   0.388  0.00  0.00     0.229 S 
HETATM   25  O   UNK N   1       1.960  -9.904  -0.336  0.00  0.00    -0.206 OA
HETATM   26  O   UNK N   1       3.352 -11.755   0.262  0.00  0.00    -0.206 OA
HETATM   27  C   UNK N   1       1.337 -11.100   2.105  0.00  0.00     0.186 C 
ENDBRANCH  22  24
ENDBRANCH  15  22
ENDBRANCH  13  14
ENDBRANCH  11  13
ENDBRANCH   7  11
BRANCH   6  28
HETATM   28  C   UNK N   1      -4.468  -8.894   0.830  0.00  0.00     0.422 C 
HETATM   29  F   UNK N   1      -4.332  -9.668   1.966  0.00  0.00    -0.166 F 
HETATM   30  F   UNK N   1      -5.210  -9.579  -0.114  0.00  0.00    -0.166 F 
HETATM   31  F   UNK N   1      -5.154  -7.734   1.164  0.00  0.00    -0.166 F 
ENDBRANCH   6  28
BRANCH   1  32
HETATM   32  C   UNK N   1       0.886  -6.097  -1.346  0.00  0.00     0.049 A 
HETATM   33  C   UNK N   1       1.750  -5.624  -0.354  0.00  0.00     0.031 A 
HETATM   34  C   UNK N   1       1.650  -4.302   0.087  0.00  0.00     0.019 A 
HETATM   35  C   UNK N   1       0.657  -3.461  -0.441  0.00  0.00     0.032 A 
HETATM   36  C   UNK N   1      -0.140  -3.911  -1.497  0.00  0.00     0.019 A 
HETATM   37  C   UNK N   1      -0.026  -5.218  -1.946  0.00  0.00     0.031 A 
BRANCH  35  38
HETATM   38  C   UNK N   1       0.314  -2.198   0.236  0.00  0.00     0.251 C 
HETATM   39  N   UNK N   1      -0.837  -1.560  -0.096  0.00  0.00    -0.361 N 
HETATM   40  C   UNK N   1      -1.318  -0.416   0.635  0.00  0.00     0.149 C 
HETATM   41  H   UNK N   1      -1.361  -1.890  -0.861  0.00  0.00     0.162 HD
HETATM   42  O   UNK N   1       0.994  -1.799   1.170  0.00  0.00    -0.268 OA
ENDBRANCH  35  38
ENDBRANCH   1  32
TORSDOF 8
