REMARK  6 active torsions:
REMARK  status: ('A' for Active; 'I' for Inactive)
REMARK    1  A    between atoms: O_2  and  C_3 
REMARK    2  A    between atoms: C_6  and  C_12 
REMARK    3  A    between atoms: C_25  and  C_15 
REMARK    4  A    between atoms: C_18  and  N_24 
REMARK    5  A    between atoms: C_28  and  C_31 
REMARK    6  A    between atoms: C_31  and  O_33 
ROOT
HETATM    1  C   UNK N   1      -0.044  -0.001   0.781  0.00  0.00     0.093 A 
HETATM    2  N   UNK N   1      -0.825  -1.077   0.566  0.00  0.00    -0.340 N 
ATOM      3  HN  UNK N   1      -1.844  -1.109   0.579  1.00  0.00     0.167 HD
HETATM    4  C   UNK N   1       0.018  -2.103   0.331  0.00  0.00     0.109 A 
HETATM    5  N   UNK N   1       1.306  -1.706   0.429  0.00  0.00    -0.237 N 
HETATM    6  C   UNK N   1       1.289  -0.398   0.715  0.00  0.00     0.130 A 
HETATM    7  C   UNK N   1       2.503   0.288   0.840  0.00  0.00     0.131 A 
HETATM    8  N   UNK N   1       3.656  -0.415   0.658  0.00  0.00    -0.336 N 
ATOM      9  HN  UNK N   1       4.554   0.059   0.754  1.00  0.00     0.168 HD
HETATM   10  C   UNK N   1       3.626  -1.747   0.350  0.00  0.00     0.199 A 
HETATM   11  N   UNK N   1       2.430  -2.394   0.233  0.00  0.00    -0.288 N 
ATOM     12  HN  UNK N   1       2.397  -3.386   0.000  1.00  0.00     0.188 HD
ENDROOT
BRANCH   1  13
HETATM   13  C   UNK N   1      -0.622   1.341   0.820  0.00  0.00     0.063 A 
HETATM   14  N   UNK N   1       0.088   2.457   0.560  0.00  0.00    -0.351 N 
HETATM   15  C   UNK N   1      -0.820   3.420   0.374  0.00  0.00     0.076 A 
HETATM   16  H   UNK N   1       1.068   2.544   0.516  0.00  0.00     0.166 HD
HETATM   17  C   UNK N   1      -0.565   4.734   0.011  0.00  0.00     0.095 A 
HETATM   18  C   UNK N   1      -2.088   2.937   0.524  0.00  0.00    -0.004 A 
HETATM   19  C   UNK N   1      -1.678   5.583  -0.190  0.00  0.00     0.039 A 
HETATM   20  C   UNK N   1      -2.992   5.086  -0.023  0.00  0.00     0.004 A 
HETATM   21  C   UNK N   1      -3.207   3.741   0.334  0.00  0.00     0.014 A 
HETATM   22  C   UNK N   1      -1.995   1.595   0.802  0.00  0.00     0.045 A 
BRANCH  17  23
HETATM   23  O   UNK N   1       0.713   5.144  -0.164  0.00  0.00    -0.354 OA
HETATM   24  C   UNK N   1       1.046   6.409  -0.585  0.00  0.00     0.210 C 
ENDBRANCH  17  23
ENDBRANCH   1  13
BRANCH   4  25
HETATM   25  C   UNK N   1      -0.523  -3.431  -0.109  0.00  0.00     0.055 C 
HETATM   26  C   UNK N   1       0.501  -4.516  -0.449  0.00  0.00     0.013 C 
HETATM   27  C   UNK N   1      -0.116  -5.685  -1.254  0.00  0.00     0.016 C 
HETATM   28  C   UNK N   1      -1.662  -5.705  -1.279  0.00  0.00     0.084 C 
HETATM   29  C   UNK N   1      -2.237  -4.361  -1.739  0.00  0.00     0.016 C 
HETATM   30  C   UNK N   1      -1.395  -3.155  -1.333  0.00  0.00     0.013 C 
BRANCH  28  31
HETATM   31  C   UNK N   1      -2.290  -6.143   0.019  0.00  0.00     0.143 C 
HETATM   32  O   UNK N   1      -1.597  -6.457   0.975  0.00  0.00    -0.650 OA
BRANCH  31  33
HETATM   33  O   UNK N   1      -3.631  -6.216   0.120  0.00  0.00    -0.776 OA
HETATM   34  H   UNK N   1      -4.142  -5.434   0.190  0.00  0.00     0.167 HD
ENDBRANCH  31  33
ENDBRANCH  28  31
ENDBRANCH   4  25
BRANCH   7  35
HETATM   35  N   UNK N   1       2.565   1.656   1.170  0.00  0.00    -0.383 N 
HETATM   36  H   UNK N   1       3.415   2.097   1.400  0.00  0.00     0.157 HD
HETATM   37  H   UNK N   1       1.736   2.187   1.170  0.00  0.00     0.157 HD
ENDBRANCH   7  35
TORSDOF 6
