REMARK  2 active torsions:
REMARK  status: ('A' for Active; 'I' for Inactive)
REMARK    1  A    between atoms: C_4  and  C_3 
REMARK    2  A    between atoms: O_7  and  C_4 
ROOT
HETATM    1  C   UNK N   1       1.926   0.350   0.000  0.00  0.00     0.111 A 
HETATM    2  C   UNK N   1      -0.250  -1.139   0.000  0.00  0.00     0.189 A 
HETATM    3  C   UNK N   1       0.608   1.074  -0.000  0.00  0.00     0.185 A 
HETATM    4  N   UNK N   1      -0.603   0.276   0.000  0.00  0.00    -0.400 N 
HETATM    5  S   UNK N   1       1.554  -1.413  -0.000  0.00  0.00    -0.147 SA
HETATM    6  H   UNK N   1      -1.554   0.646   0.000  0.00  0.00     0.154 HD
ENDROOT
BRANCH   3   7
HETATM    7  C   UNK N   1       0.480   2.560   0.000  0.00  0.00     0.163 C 
HETATM    8  O   UNK N   1      -0.627   3.077   0.000  0.00  0.00    -0.648 OA
BRANCH   7   9
HETATM    9  O   UNK N   1       1.579   3.335   0.000  0.00  0.00    -0.775 OA
HETATM   10  H   UNK N   1       2.430   2.942   0.000  0.00  0.00     0.167 HD
ENDBRANCH   7   9
ENDBRANCH   3   7
TORSDOF 2
