REMARK  7 active torsions:
REMARK  status: ('A' for Active; 'I' for Inactive)
REMARK    1  A    between atoms: C_3  and  C_1 
REMARK    2  A    between atoms: O_14  and  C_1 
REMARK    3  A    between atoms: C_7  and  C_4 
REMARK    4  A    between atoms: C_5  and  O_15 
REMARK    5  A    between atoms: C_6  and  O_16 
REMARK       I    between atoms: N_10  and  C_7 
REMARK    6  A    between atoms: O_18  and  C_8 
REMARK    7  A    between atoms: C_9  and  N_13 
ROOT
HETATM    1  C   UNK N   1       2.483   2.064   0.370  0.00  0.00     0.188 A 
HETATM    2  C   UNK N   1       1.737   4.043  -0.030  0.00  0.00     0.153 A 
HETATM    3  C   UNK N   1       0.670   3.184   0.087  0.00  0.00     0.178 A 
HETATM    4  N   UNK N   1       2.876   3.340   0.139  0.00  0.00    -0.344 N 
ATOM      5  HN  UNK N   1       3.831   3.695   0.101  1.00  0.00     0.167 HD
HETATM    6  N   UNK N   1       1.137   1.948   0.337  0.00  0.00    -0.292 N 
ENDROOT
BRANCH   6   7
HETATM    7  C   UNK N   1       0.385   0.714   0.598  0.00  0.00     0.262 C 
HETATM    8  C   UNK N   1       0.855  -0.442  -0.251  0.00  0.00     0.198 C 
HETATM    9  C   UNK N   1      -0.304  -1.343  -0.044  0.00  0.00     0.182 C 
HETATM   10  C   UNK N   1      -1.430  -0.347  -0.207  0.00  0.00     0.179 C 
HETATM   11  O   UNK N   1      -1.001   0.871   0.369  0.00  0.00    -0.353 OA
BRANCH   8  12
HETATM   12  O   UNK N   1       2.019  -1.007   0.271  0.00  0.00    -0.388 OA
HETATM   13  H   UNK N   1       2.083  -1.904   0.634  0.00  0.00     0.210 HD
ENDBRANCH   8  12
BRANCH   9  14
HETATM   14  O   UNK N   1      -0.352  -2.348  -1.011  0.00  0.00    -0.390 OA
HETATM   15  H   UNK N   1      -0.973  -2.668  -1.683  0.00  0.00     0.210 HD
ENDBRANCH   9  14
BRANCH  10  16
HETATM   16  C   UNK N   1      -2.695  -0.836   0.481  0.00  0.00     0.198 C 
BRANCH  16  17
HETATM   17  O   UNK N   1      -3.180  -1.985  -0.147  0.00  0.00    -0.398 OA
HETATM   18  H   UNK N   1      -4.039  -2.092  -0.583  0.00  0.00     0.209 HD
ENDBRANCH  16  17
ENDBRANCH  10  16
ENDBRANCH   6   7
BRANCH   3  19
HETATM   19  O   UNK N   1      -0.631   3.516   0.002  0.00  0.00    -0.344 OA
HETATM   20  H   UNK N   1      -0.884   4.416  -0.057  0.00  0.00     0.219 HD
ENDBRANCH   3  19
BRANCH   2  21
HETATM   21  C   UNK N   1       1.695   5.498  -0.261  0.00  0.00     0.270 C 
HETATM   22  N   UNK N   1       2.842   6.202  -0.338  0.00  0.00    -0.365 N 
HETATM   23  H   UNK N   1       3.706   5.733  -0.393  0.00  0.00     0.159 HD
HETATM   24  H   UNK N   1       2.816   7.186  -0.338  0.00  0.00     0.159 HD
HETATM   25  O   UNK N   1       0.625   6.077  -0.364  0.00  0.00    -0.266 OA
ENDBRANCH   2  21
TORSDOF 7
