REMARK  6 active torsions:
REMARK  status: ('A' for Active; 'I' for Inactive)
REMARK    1  A    between atoms: C_4  and  O_29 
REMARK    2  A    between atoms: C_9  and  O_16 
REMARK    3  A    between atoms: C_10  and  C_11 
REMARK    4  A    between atoms: C_10  and  O_15 
REMARK    5  A    between atoms: C_11  and  C_13 
REMARK    6  A    between atoms: C_13  and  O_14 
ROOT
HETATM    1  C   UNK N   1       4.810   0.635  -1.573  0.00  0.00     0.019 C 
HETATM    2  C   UNK N   1       4.804   1.101  -0.107  0.00  0.00     0.003 C 
HETATM    3  C   UNK N   1       3.947   2.360   0.035  0.00  0.00     0.048 C 
HETATM    4  C   UNK N   1       2.507   2.057  -0.416  0.00  0.00     0.160 C 
HETATM    5  C   UNK N   1       1.805   0.872   0.328  0.00  0.00     0.147 C 
HETATM    6  C   UNK N   1       2.774  -0.339   0.554  0.00  0.00     0.037 C 
HETATM    7  C   UNK N   1       4.222   0.059   0.818  0.00  0.00     0.007 C 
HETATM    8  C   UNK N   1       5.284  -1.013   1.030  0.00  0.00     0.041 C 
HETATM    9  C   UNK N   1       6.601  -0.329   0.627  0.00  0.00     0.161 C 
HETATM   10  C   UNK N   1       6.231   1.173   0.475  0.00  0.00     0.153 C 
HETATM   11  C   UNK N   1       2.513  -1.583  -0.288  0.00  0.00     0.050 C 
HETATM   12  C   UNK N   1       1.113  -2.083   0.091  0.00  0.00     0.201 C 
HETATM   13  C   UNK N   1       0.088  -0.969   0.035  0.00  0.00    -0.027 A 
HETATM   14  C   UNK N   1      -1.167  -1.216   0.441  0.00  0.00     0.061 A 
HETATM   15  C   UNK N   1      -2.188  -0.160   0.412  0.00  0.00     0.172 A 
HETATM   16  O   UNK N   1      -3.337  -0.409   0.735  0.00  0.00    -0.289 OA
HETATM   17  C   UNK N   1      -1.817   1.197  -0.010  0.00  0.00     0.052 A 
HETATM   18  C   UNK N   1      -0.570   1.462  -0.417  0.00  0.00    -0.006 A 
HETATM   19  C   UNK N   1       0.527   0.410  -0.471  0.00  0.00     0.039 A 
HETATM   20  C   UNK N   1       0.867   0.238  -1.954  0.00  0.00     0.028 C 
HETATM   21  F   UNK N   1       0.743  -3.136  -0.723  0.00  0.00    -0.245 F 
HETATM   22  F   UNK N   1       1.444   1.300   1.597  0.00  0.00    -0.238 F 
ENDROOT
BRANCH  10  23
HETATM   23  C   UNK N   1       7.208   2.026  -0.320  0.00  0.00     0.187 C 
HETATM   24  O   UNK N   1       6.966   3.211  -0.494  0.00  0.00    -0.292 OA
BRANCH  23  25
HETATM   25  C   UNK N   1       8.490   1.465  -0.855  0.00  0.00     0.245 C 
BRANCH  25  26
HETATM   26  O   UNK N   1       9.574   2.072  -0.221  0.00  0.00    -0.393 OA
HETATM   27  H   UNK N   1      10.317   1.630   0.219  0.00  0.00     0.209 HD
ENDBRANCH  25  26
ENDBRANCH  23  25
ENDBRANCH  10  23
BRANCH  10  28
HETATM   28  O   UNK N   1       6.171   1.719   1.766  0.00  0.00    -0.378 OA
HETATM   29  H   UNK N   1       6.477   1.943   2.659  0.00  0.00     0.211 HD
ENDBRANCH  10  28
BRANCH   9  30
HETATM   30  O   UNK N   1       7.006  -0.891  -0.589  0.00  0.00    -0.392 OA
HETATM   31  H   UNK N   1       6.809  -1.329  -1.431  0.00  0.00     0.210 HD
ENDBRANCH   9  30
BRANCH   4  32
HETATM   32  O   UNK N   1       1.739   3.221  -0.356  0.00  0.00    -0.392 OA
HETATM   33  H   UNK N   1       2.173   4.088  -0.315  0.00  0.00     0.210 HD
ENDBRANCH   4  32
TORSDOF 6
