REMARK  0 active torsions:
REMARK  status: ('A' for Active; 'I' for Inactive)
ROOT
HETATM    1  C   UNK N   1       6.112  -0.583  -0.364  0.00  0.00     0.001 A 
HETATM    2  C   UNK N   1       6.220  -0.044   0.931  0.00  0.00     0.001 A 
HETATM    3  C   UNK N   1       5.228   0.820   1.420  0.00  0.00     0.007 A 
HETATM    4  C   UNK N   1       4.142   1.125   0.598  0.00  0.00    -0.049 A 
HETATM    5  C   UNK N   1       4.046   0.613  -0.668  0.00  0.00    -0.049 A 
HETATM    6  C   UNK N   1       5.020  -0.245  -1.178  0.00  0.00     0.007 A 
HETATM    7  C   UNK N   1       2.853   1.096  -1.390  0.00  0.00     0.081 C 
HETATM    8  C   UNK N   1       2.061   1.770  -0.251  0.00  0.00     0.127 A 
HETATM    9  C   UNK N   1       3.009   2.007   0.945  0.00  0.00     0.081 C 
HETATM   10  C   UNK N   1       1.290   2.994  -0.667  0.00  0.00     0.252 A 
HETATM   11  O   UNK N   1       1.782   4.033  -1.078  0.00  0.00    -0.270 OA
HETATM   12  N   UNK N   1      -0.037   2.811  -0.538  0.00  0.00    -0.311 N 
ATOM     13  HN  UNK N   1      -0.762   3.495  -0.757  1.00  0.00     0.170 HD
HETATM   14  C   UNK N   1      -0.226   1.635  -0.094  0.00  0.00     0.111 A 
HETATM   15  N   UNK N   1       0.911   0.942   0.118  0.00  0.00    -0.324 N 
HETATM   16  C   UNK N   1       0.910  -0.338   0.579  0.00  0.00     0.094 A 
HETATM   17  C   UNK N   1      -0.319  -0.959   0.841  0.00  0.00     0.017 A 
HETATM   18  C   UNK N   1      -1.514  -0.249   0.624  0.00  0.00     0.005 A 
HETATM   19  C   UNK N   1      -1.475   1.071   0.151  0.00  0.00     0.049 A 
ENDROOT
TORSDOF 0
