REMARK  8 active torsions:
REMARK  status: ('A' for Active; 'I' for Inactive)
REMARK    1  A    between atoms: C_2  and  C_3 
REMARK    2  A    between atoms: C_2  and  N_30 
REMARK    3  A    between atoms: C_3  and  C_4 
REMARK    4  A    between atoms: C_3  and  O_12 
REMARK    5  A    between atoms: C_8  and  O_10 
REMARK    6  A    between atoms: O_12  and  C_13 
REMARK    7  A    between atoms: N_22  and  C_23 
REMARK       I    between atoms: N_30  and  C_31 
REMARK    8  A    between atoms: C_31  and  C_33 
ROOT
HETATM    1  C   UNK N   1       4.723   3.935  -0.159  0.00  0.00     0.184 C 
ENDROOT
BRANCH   1   2
HETATM    2  C   UNK N   1       6.214   4.303  -0.262  0.00  0.00     0.114 C 
HETATM    3  C   UNK N   1       6.573   5.448   0.669  0.00  0.00     0.035 C 
BRANCH   2   4
HETATM    4  N   UNK N   1       7.018   3.157   0.110  0.00  0.00    -0.346 N 
HETATM    5  C   UNK N   1       6.997   1.976  -0.560  0.00  0.00     0.325 C 
HETATM    6  O   UNK N   1       6.327   1.849  -1.575  0.00  0.00    -0.263 OA
HETATM    7  H   UNK N   1       7.613   3.239   0.890  0.00  0.00     0.163 HD
BRANCH   5   8
HETATM    8  C   UNK N   1       7.772   0.806  -0.032  0.00  0.00     0.472 C 
HETATM    9  F   UNK N   1       6.899  -0.229   0.250  0.00  0.00    -0.162 F 
HETATM   10  F   UNK N   1       8.446   1.149   1.128  0.00  0.00    -0.162 F 
HETATM   11  F   UNK N   1       8.687   0.384  -0.978  0.00  0.00    -0.162 F 
ENDBRANCH   5   8
ENDBRANCH   2   4
ENDBRANCH   1   2
BRANCH   1  12
HETATM   12  C   UNK N   1       3.688   4.978  -0.499  0.00  0.00    -0.024 A 
HETATM   13  C   UNK N   1       2.604   4.609  -1.306  0.00  0.00     0.010 A 
HETATM   14  C   UNK N   1       1.550   5.498  -1.523  0.00  0.00     0.003 A 
HETATM   15  C   UNK N   1       1.577   6.769  -0.946  0.00  0.00     0.037 A 
HETATM   16  C   UNK N   1       2.659   7.159  -0.150  0.00  0.00     0.068 A 
HETATM   17  C   UNK N   1       3.705   6.249   0.089  0.00  0.00     0.046 A 
BRANCH  16  18
HETATM   18  O   UNK N   1       2.673   8.410   0.367  0.00  0.00    -0.356 OA
HETATM   19  C   UNK N   1       3.736   8.918   1.079  0.00  0.00     0.210 C 
ENDBRANCH  16  18
ENDBRANCH   1  12
BRANCH   1  20
HETATM   20  O   UNK N   1       4.403   3.239   0.990  0.00  0.00    -0.339 OA
BRANCH  20  21
HETATM   21  C   UNK N   1       3.350   2.400   0.959  0.00  0.00     0.070 A 
HETATM   22  C   UNK N   1       3.528   1.050   0.566  0.00  0.00     0.039 A 
HETATM   23  C   UNK N   1       2.415   0.202   0.413  0.00  0.00     0.035 A 
HETATM   24  C   UNK N   1       1.150   0.746   0.643  0.00  0.00     0.068 A 
HETATM   25  C   UNK N   1       0.988   2.043   1.029  0.00  0.00     0.012 A 
HETATM   26  N   UNK N   1      -0.065   0.173   0.545  0.00  0.00    -0.256 N 
HETATM   27  C   UNK N   1       2.059   2.901   1.209  0.00  0.00     0.052 A 
HETATM   28  C   UNK N   1      -0.367   2.250   1.157  0.00  0.00     0.121 A 
HETATM   29  N   UNK N   1      -0.985   1.082   0.853  0.00  0.00    -0.304 N 
ATOM     30  HN  UNK N   1      -1.993   0.926   0.858  1.00  0.00     0.186 HD
BRANCH  26  31
HETATM   31  C   UNK N   1      -0.391  -1.188   0.204  0.00  0.00     0.057 A 
HETATM   32  C   UNK N   1       0.615  -2.137  -0.037  0.00  0.00     0.034 A 
HETATM   33  C   UNK N   1       0.281  -3.467  -0.305  0.00  0.00     0.044 A 
HETATM   34  C   UNK N   1      -1.060  -3.859  -0.333  0.00  0.00     0.116 A 
HETATM   35  C   UNK N   1      -2.068  -2.918  -0.108  0.00  0.00     0.044 A 
HETATM   36  F   UNK N   1      -1.384  -5.152  -0.570  0.00  0.00    -0.206 F 
HETATM   37  C   UNK N   1      -1.734  -1.589   0.161  0.00  0.00     0.034 A 
ENDBRANCH  26  31
ENDBRANCH  20  21
ENDBRANCH   1  20
TORSDOF 8
