REMARK  5 active torsions:
REMARK  status: ('A' for Active; 'I' for Inactive)
REMARK       I    between atoms: N_4  and  C_16 
REMARK    1  A    between atoms: C_7  and  C_8 
REMARK    2  A    between atoms: C_7  and  O_14 
REMARK    3  A    between atoms: C_18  and  C_16 
REMARK    4  A    between atoms: N_20  and  C_31 
REMARK    5  A    between atoms: C_22  and  C_23 
ROOT
HETATM    1  C   UNK N   1      -1.533   3.677   0.731  0.00  0.00     0.015 C 
HETATM    2  C   UNK N   1      -1.407   2.598  -0.335  0.00  0.00     0.039 C 
HETATM    3  C   UNK N   1       0.070   2.176  -0.401  0.00  0.00     0.133 C 
HETATM    4  N   UNK N   1       0.193   0.752  -0.626  0.00  0.00    -0.351 N 
HETATM    5  C   UNK N   1      -0.642   0.153  -1.640  0.00  0.00     0.133 C 
HETATM    6  C   UNK N   1      -2.118   0.374  -1.275  0.00  0.00     0.039 C 
HETATM    7  C   UNK N   1      -2.354   1.382  -0.103  0.00  0.00     0.094 C 
HETATM    8  C   UNK N   1      -2.789  -0.977  -1.067  0.00  0.00     0.015 C 
HETATM    9  C   UNK N   1       0.994  -0.017   0.164  0.00  0.00     0.226 C 
HETATM   10  O   UNK N   1       1.623   0.508   1.076  0.00  0.00    -0.273 OA
ENDROOT
BRANCH   9  11
HETATM   11  C   UNK N   1       1.117  -1.509  -0.071  0.00  0.00     0.116 C 
HETATM   12  C   UNK N   1      -0.176  -2.243   0.252  0.00  0.00     0.288 C 
HETATM   13  N   UNK N   1       0.191  -3.539   0.836  0.00  0.00     0.098 N 
HETATM   14  C   UNK N   1       1.635  -3.672   0.624  0.00  0.00     0.283 C 
HETATM   15  C   UNK N   1       2.152  -2.255   0.744  0.00  0.00     0.065 C 
BRANCH  13  16
HETATM   16  C   UNK N   1      -0.618  -4.658   0.306  0.00  0.00     0.149 C 
HETATM   17  C   UNK N   1      -0.503  -4.793  -1.209  0.00  0.00     0.048 C 
HETATM   18  C   UNK N   1      -0.191  -5.968   0.947  0.00  0.00     0.048 C 
HETATM   19  C   UNK N   1      -2.083  -4.448   0.664  0.00  0.00     0.048 C 
ENDBRANCH  13  16
BRANCH  15  20
HETATM   20  C   UNK N   1       3.586  -1.951   0.342  0.00  0.00    -0.013 A 
HETATM   21  C   UNK N   1       4.065  -0.656   0.585  0.00  0.00     0.013 A 
HETATM   22  C   UNK N   1       5.367  -0.290   0.257  0.00  0.00     0.043 A 
HETATM   23  C   UNK N   1       6.223  -1.223  -0.321  0.00  0.00     0.119 A 
HETATM   24  C   UNK N   1       5.773  -2.523  -0.567  0.00  0.00     0.085 A 
HETATM   25  F   UNK N   1       7.488  -0.864  -0.641  0.00  0.00    -0.206 F 
HETATM   26  C   UNK N   1       4.462  -2.897  -0.238  0.00  0.00     0.126 A 
HETATM   27  F   UNK N   1       4.065  -4.167  -0.494  0.00  0.00    -0.205 F 
ENDBRANCH  15  20
ENDBRANCH   9  11
BRANCH   7  28
HETATM   28  C   UNK N   1      -3.829   1.759  -0.058  0.00  0.00    -0.023 A 
HETATM   29  C   UNK N   1      -4.782   0.787   0.293  0.00  0.00     0.010 A 
HETATM   30  C   UNK N   1      -6.141   1.105   0.341  0.00  0.00     0.001 A 
HETATM   31  C   UNK N   1      -6.565   2.398   0.033  0.00  0.00     0.000 A 
HETATM   32  C   UNK N   1      -5.631   3.374  -0.319  0.00  0.00     0.001 A 
HETATM   33  C   UNK N   1      -4.271   3.058  -0.362  0.00  0.00     0.010 A 
ENDBRANCH   7  28
BRANCH   7  34
HETATM   34  O   UNK N   1      -2.008   0.791   1.121  0.00  0.00    -0.384 OA
HETATM   35  H   UNK N   1      -2.243   0.380   1.968  0.00  0.00     0.211 HD
ENDBRANCH   7  34
TORSDOF 5
