REMARK  13 active torsions:
REMARK  status: ('A' for Active; 'I' for Inactive)
REMARK    1  A    between atoms: C_3  and  O_2 
REMARK    2  A    between atoms: C_3  and  C_4 
REMARK    3  A    between atoms: C_3  and  C_29 
REMARK    4  A    between atoms: C_4  and  C_5 
REMARK    5  A    between atoms: C_8  and  O_11 
REMARK    6  A    between atoms: O_11  and  C_12 
REMARK    7  A    between atoms: C_12  and  C_13 
REMARK    8  A    between atoms: C_13  and  C_14 
REMARK    9  A    between atoms: C_14  and  O_15 
REMARK   10  A    between atoms: O_15  and  C_16 
REMARK   11  A    between atoms: C_19  and  O_22 
REMARK   12  A    between atoms: O_22  and  C_23 
REMARK   13  A    between atoms: C_29  and  O_31 
ROOT
HETATM    1  C   UNK N   1      -3.045  -2.898  -0.488  0.00  0.00     0.178 C 
ENDROOT
BRANCH   1   2
HETATM    2  O   UNK N   1      -4.264  -3.059   0.136  0.00  0.00    -0.351 OA
BRANCH   2   3
HETATM    3  C   UNK N   1      -5.035  -4.158  -0.045  0.00  0.00     0.068 A 
HETATM    4  C   UNK N   1      -6.333  -4.179   0.478  0.00  0.00     0.037 A 
HETATM    5  C   UNK N   1      -7.157  -5.292   0.273  0.00  0.00     0.010 A 
HETATM    6  C   UNK N   1      -6.680  -6.402  -0.435  0.00  0.00    -0.055 A 
HETATM    7  C   UNK N   1      -5.383  -6.384  -0.957  0.00  0.00     0.010 A 
HETATM    8  C   UNK N   1      -4.562  -5.273  -0.758  0.00  0.00     0.037 A 
BRANCH   6   9
HETATM    9  C   UNK N   1      -7.607  -7.533  -0.757  0.00  0.00     0.081 C 
BRANCH   9  10
HETATM   10  C   UNK N   1      -7.396  -8.858  -0.013  0.00  0.00     0.222 C 
BRANCH  10  11
HETATM   11  O   UNK N   1      -8.375  -9.754  -0.456  0.00  0.00    -0.380 OA
HETATM   12  C   UNK N   1      -9.087 -10.116   0.688  0.00  0.00     0.202 C 
ENDBRANCH  10  11
BRANCH  10  13
HETATM   13  C   UNK N   1      -6.028  -9.467  -0.194  0.00  0.00     0.170 C 
HETATM   14  O   UNK N   1      -5.049  -8.933   0.293  0.00  0.00    -0.648 OA
BRANCH  13  15
HETATM   15  O   UNK N   1      -5.890 -10.643  -0.841  0.00  0.00    -0.774 OA
HETATM   16  H   UNK N   1      -6.549 -11.135  -1.291  0.00  0.00     0.167 HD
ENDBRANCH  13  15
ENDBRANCH  10  13
ENDBRANCH   9  10
ENDBRANCH   6   9
ENDBRANCH   2   3
ENDBRANCH   1   2
BRANCH   1  17
HETATM   17  C   UNK N   1      -1.916  -2.934   0.528  0.00  0.00     0.053 C 
BRANCH  17  18
HETATM   18  C   UNK N   1      -1.839  -4.286   1.226  0.00  0.00     0.178 C 
BRANCH  18  19
HETATM   19  O   UNK N   1      -1.616  -5.299   0.314  0.00  0.00    -0.351 OA
BRANCH  19  20
HETATM   20  C   UNK N   1      -0.444  -5.969   0.237  0.00  0.00     0.068 A 
HETATM   21  C   UNK N   1       0.643  -5.618   1.049  0.00  0.00     0.039 A 
HETATM   22  C   UNK N   1       1.860  -6.275   0.912  0.00  0.00     0.040 A 
HETATM   23  C   UNK N   1       2.012  -7.299  -0.035  0.00  0.00     0.076 A 
HETATM   24  C   UNK N   1       0.917  -7.687  -0.814  0.00  0.00     0.040 A 
HETATM   25  C   UNK N   1      -0.306  -7.015  -0.686  0.00  0.00     0.039 A 
BRANCH  23  26
HETATM   26  O   UNK N   1       3.218  -7.893  -0.219  0.00  0.00    -0.311 OA
BRANCH  26  27
HETATM   27  C   UNK N   1       4.395  -7.211  -0.198  0.00  0.00     0.076 A 
HETATM   28  C   UNK N   1       4.432  -5.819  -0.419  0.00  0.00     0.037 A 
HETATM   29  C   UNK N   1       5.645  -5.132  -0.426  0.00  0.00     0.003 A 
HETATM   30  C   UNK N   1       6.836  -5.827  -0.213  0.00  0.00     0.000 A 
HETATM   31  C   UNK N   1       6.812  -7.209   0.001  0.00  0.00     0.003 A 
HETATM   32  C   UNK N   1       5.595  -7.901   0.001  0.00  0.00     0.037 A 
ENDBRANCH  26  27
ENDBRANCH  23  26
ENDBRANCH  19  20
ENDBRANCH  18  19
ENDBRANCH  17  18
ENDBRANCH   1  17
TORSDOF 13
