REMARK WARNING: 32 MAX_TORS EXCEEDED!!!
REMARK  38 active torsions:
REMARK  status: ('A' for Active; 'I' for Inactive)
REMARK    1  A    between atoms: C_2  and  C_3 
REMARK    2  A    between atoms: C_2  and  N_18 
REMARK       I    between atoms: C_3  and  N_5 
REMARK    3  A    between atoms: C_6  and  N_5 
REMARK    4  A    between atoms: C_6  and  C_7 
REMARK    5  A    between atoms: C_6  and  C_15 
REMARK    6  A    between atoms: C_7  and  C_8 
REMARK    7  A    between atoms: C_8  and  C_9 
REMARK    8  A    between atoms: C_9  and  N_10 
REMARK       I    between atoms: N_10  and  C_11 
REMARK       I    between atoms: C_11  and  N_14 
REMARK       I    between atoms: C_15  and  N_17 
REMARK       I    between atoms: N_18  and  C_19 
REMARK    9  A    between atoms: C_19  and  C_21 
REMARK   10  A    between atoms: C_21  and  C_22 
REMARK   11  A    between atoms: C_21  and  N_30 
REMARK   12  A    between atoms: C_22  and  C_23 
REMARK   13  A    between atoms: C_23  and  C_24 
REMARK   14  A    between atoms: C_24  and  N_25 
REMARK       I    between atoms: N_25  and  C_26 
REMARK       I    between atoms: C_26  and  N_29 
REMARK       I    between atoms: N_30  and  C_31 
REMARK   15  A    between atoms: C_31  and  C_33 
REMARK   16  A    between atoms: C_33  and  C_34 
REMARK   17  A    between atoms: C_33  and  N_42 
REMARK   18  A    between atoms: C_34  and  C_35 
REMARK   19  A    between atoms: C_35  and  C_36 
REMARK   20  A    between atoms: C_36  and  N_37 
REMARK       I    between atoms: N_37  and  C_38 
REMARK       I    between atoms: C_38  and  N_41 
REMARK       I    between atoms: N_42  and  C_43 
REMARK   21  A    between atoms: C_43  and  C_45 
REMARK   22  A    between atoms: C_45  and  C_46 
REMARK   23  A    between atoms: C_45  and  N_54 
REMARK   24  A    between atoms: C_46  and  C_47 
REMARK   25  A    between atoms: C_47  and  C_48 
REMARK   26  A    between atoms: C_48  and  N_49 
REMARK       I    between atoms: N_49  and  C_50 
REMARK       I    between atoms: C_50  and  N_53 
REMARK       I    between atoms: N_54  and  C_55 
REMARK   27  A    between atoms: C_55  and  C_57 
REMARK   28  A    between atoms: C_57  and  N_59 
REMARK       I    between atoms: N_59  and  C_60 
REMARK   29  A    between atoms: C_60  and  C_62 
REMARK   30  A    between atoms: C_62  and  C_63 
REMARK   31  A    between atoms: C_62  and  N_72 
REMARK   32  A    between atoms: C_63  and  S_64 
REMARK   33  A    between atoms: S_64  and  S_65 
REMARK   34  A    between atoms: S_65  and  C_66 
REMARK   35  A    between atoms: C_66  and  C_67 
REMARK   36  A    between atoms: C_67  and  C_68 
REMARK   37  A    between atoms: C_67  and  N_71 
REMARK   38  A    between atoms: C_68  and  O_70 
REMARK       I    between atoms: N_72  and  C_73 
ROOT
HETATM    1  C   UNK N   1      25.551  11.709   0.634  0.00  0.00     0.176 C 
ENDROOT
BRANCH   1   2
HETATM    2  C   UNK N   1      25.262  10.336   1.204  0.00  0.00     0.241 C 
HETATM    3  N   UNK N   1      24.737   9.375   0.398  0.00  0.00    -0.346 N 
HETATM    4  H   UNK N   1      24.629   8.467   0.763  0.00  0.00     0.163 HD
HETATM    5  O   UNK N   1      25.533  10.068   2.358  0.00  0.00    -0.271 OA
BRANCH   3   6
HETATM    6  C   UNK N   1      24.327   9.619  -0.974  0.00  0.00     0.176 C 
BRANCH   6   7
HETATM    7  C   UNK N   1      23.309  10.732  -1.050  0.00  0.00     0.241 C 
HETATM    8  N   UNK N   1      22.839  11.260   0.118  0.00  0.00    -0.346 N 
HETATM    9  H   UNK N   1      23.333  11.035   0.939  0.00  0.00     0.163 HD
HETATM   10  O   UNK N   1      22.872  11.092  -2.128  0.00  0.00    -0.271 OA
BRANCH   8  11
HETATM   11  C   UNK N   1      21.693  12.112   0.260  0.00  0.00     0.172 C 
HETATM   12  C   UNK N   1      21.814  13.396  -0.545  0.00  0.00     0.042 C 
BRANCH  11  13
HETATM   13  C   UNK N   1      20.498  11.304  -0.094  0.00  0.00     0.240 C 
HETATM   14  O   UNK N   1      20.335  10.949  -1.255  0.00  0.00    -0.271 OA
HETATM   15  N   UNK N   1      19.662  10.868   0.883  0.00  0.00    -0.346 N 
HETATM   16  H   UNK N   1      19.790  11.190   1.805  0.00  0.00     0.163 HD
BRANCH  15  17
HETATM   17  C   UNK N   1      18.584   9.941   0.600  0.00  0.00     0.176 C 
BRANCH  17  18
HETATM   18  C   UNK N   1      17.700  10.551  -0.505  0.00  0.00     0.036 C 
BRANCH  18  19
HETATM   19  C   UNK N   1      16.744   9.591  -1.210  0.00  0.00     0.023 C 
BRANCH  19  20
HETATM   20  C   UNK N   1      15.819   8.879  -0.235  0.00  0.00     0.138 C 
BRANCH  20  21
HETATM   21  N   UNK N   1      15.191   9.852   0.621  0.00  0.00    -0.227 N 
HETATM   22  C   UNK N   1      14.165  10.710   0.156  0.00  0.00     0.665 C 
HETATM   23  N   UNK N   1      13.534  10.447  -0.930  0.00  0.00    -0.235 N 
HETATM   24  N   UNK N   1      13.914  11.918   0.838  0.00  0.00    -0.235 N 
HETATM   25  H   UNK N   1      13.118  10.766  -1.763  0.00  0.00     0.174 HD
ATOM     26  HN  UNK N   1      13.403   9.436  -0.930  1.00  0.00     0.174 HD
HETATM   27  H   UNK N   1      14.557  12.492   1.314  0.00  0.00     0.174 HD
HETATM   28  H   UNK N   1      12.979  12.226   0.838  0.00  0.00     0.174 HD
HETATM   29  H   UNK N   1      15.485   9.923   1.558  0.00  0.00     0.177 HD
ENDBRANCH  20  21
ENDBRANCH  19  20
ENDBRANCH  18  19
ENDBRANCH  17  18
BRANCH  17  30
HETATM   30  C   UNK N   1      19.164   8.568   0.309  0.00  0.00     0.238 C 
HETATM   31  O   UNK N   1      19.041   8.051  -0.790  0.00  0.00    -0.271 OA
HETATM   32  N   UNK N   1      19.825   7.907   1.280  0.00  0.00    -0.368 N 
HETATM   33  H   UNK N   1      19.648   7.247   1.989  0.00  0.00     0.159 HD
HETATM   34  H   UNK N   1      20.776   8.162   1.280  0.00  0.00     0.159 HD
ENDBRANCH  17  30
ENDBRANCH  15  17
ENDBRANCH  11  13
ENDBRANCH   8  11
ENDBRANCH   6   7
BRANCH   6  35
HETATM   35  C   UNK N   1      23.668   8.353  -1.514  0.00  0.00     0.036 C 
BRANCH  35  36
HETATM   36  C   UNK N   1      22.470   7.953  -0.652  0.00  0.00     0.023 C 
BRANCH  36  37
HETATM   37  C   UNK N   1      22.933   7.109   0.525  0.00  0.00     0.138 C 
BRANCH  37  38
HETATM   38  N   UNK N   1      22.238   5.849   0.514  0.00  0.00    -0.227 N 
HETATM   39  C   UNK N   1      22.344   4.940  -0.573  0.00  0.00     0.665 C 
HETATM   40  N   UNK N   1      23.105   5.198  -1.573  0.00  0.00    -0.235 N 
HETATM   41  N   UNK N   1      21.543   3.781  -0.589  0.00  0.00    -0.235 N 
HETATM   42  H   UNK N   1      23.569   4.791  -2.341  0.00  0.00     0.174 HD
ATOM     43  HN  UNK N   1      23.305   6.198  -1.573  1.00  0.00     0.174 HD
HETATM   44  H   UNK N   1      20.562   3.861  -0.600  0.00  0.00     0.174 HD
HETATM   45  H   UNK N   1      21.964   2.892  -0.589  0.00  0.00     0.174 HD
HETATM   46  H   UNK N   1      21.672   5.609   1.283  0.00  0.00     0.177 HD
ENDBRANCH  37  38
ENDBRANCH  36  37
ENDBRANCH  35  36
ENDBRANCH   6  35
ENDBRANCH   3   6
ENDBRANCH   1   2
BRANCH   1  47
HETATM   47  C   UNK N   1      25.867  12.761   1.685  0.00  0.00     0.036 C 
BRANCH  47  48
HETATM   48  C   UNK N   1      25.594  14.130   1.104  0.00  0.00     0.023 C 
BRANCH  48  49
HETATM   49  C   UNK N   1      26.733  15.059   1.456  0.00  0.00     0.138 C 
BRANCH  49  50
HETATM   50  N   UNK N   1      27.906  14.678   0.711  0.00  0.00    -0.227 N 
HETATM   51  C   UNK N   1      28.543  15.572  -0.182  0.00  0.00     0.665 C 
HETATM   52  N   UNK N   1      28.111  16.772  -0.326  0.00  0.00    -0.235 N 
HETATM   53  N   UNK N   1      29.670  15.142  -0.915  0.00  0.00    -0.235 N 
HETATM   54  H   UNK N   1      28.743  17.519  -0.436  0.00  0.00     0.174 HD
ATOM     55  HN  UNK N   1      27.107  16.952  -0.326  1.00  0.00     0.174 HD
HETATM   56  H   UNK N   1      29.802  14.311  -1.426  0.00  0.00     0.174 HD
HETATM   57  H   UNK N   1      30.434  15.762  -0.915  0.00  0.00     0.174 HD
HETATM   58  H   UNK N   1      28.273  13.771   0.826  0.00  0.00     0.177 HD
ENDBRANCH  49  50
ENDBRANCH  48  49
ENDBRANCH  47  48
ENDBRANCH   1  47
BRANCH   1  59
HETATM   59  N   UNK N   1      26.607  11.511  -0.327  0.00  0.00    -0.346 N 
HETATM   60  C   UNK N   1      27.803  11.048   0.090  0.00  0.00     0.241 C 
HETATM   61  O   UNK N   1      28.131  11.154   1.269  0.00  0.00    -0.271 OA
HETATM   62  H   UNK N   1      26.456  11.710  -1.279  0.00  0.00     0.163 HD
BRANCH  60  63
HETATM   63  C   UNK N   1      28.589  10.167  -0.798  0.00  0.00     0.176 C 
BRANCH  63  64
HETATM   64  C   UNK N   1      28.346   8.775  -0.193  0.00  0.00     0.036 C 
BRANCH  64  65
HETATM   65  C   UNK N   1      28.862   7.583  -0.961  0.00  0.00     0.023 C 
BRANCH  65  66
HETATM   66  C   UNK N   1      28.735   6.363  -0.053  0.00  0.00     0.138 C 
BRANCH  66  67
HETATM   67  N   UNK N   1      27.349   5.995   0.138  0.00  0.00    -0.227 N 
HETATM   68  C   UNK N   1      26.899   4.665  -0.073  0.00  0.00     0.665 C 
HETATM   69  N   UNK N   1      27.723   3.744  -0.416  0.00  0.00    -0.235 N 
HETATM   70  N   UNK N   1      25.542   4.342   0.138  0.00  0.00    -0.235 N 
HETATM   71  H   UNK N   1      27.427   2.842  -0.679  0.00  0.00     0.174 HD
ATOM     72  HN  UNK N   1      28.722   3.953  -0.416  1.00  0.00     0.174 HD
HETATM   73  H   UNK N   1      24.873   5.049   0.285  0.00  0.00     0.174 HD
HETATM   74  H   UNK N   1      25.260   3.399   0.138  0.00  0.00     0.174 HD
HETATM   75  H   UNK N   1      26.704   6.682   0.420  0.00  0.00     0.177 HD
ENDBRANCH  66  67
ENDBRANCH  65  66
ENDBRANCH  64  65
ENDBRANCH  63  64
BRANCH  63  76
HETATM   76  N   UNK N   1      29.941  10.665  -0.709  0.00  0.00    -0.346 N 
HETATM   77  C   UNK N   1      30.838  10.336   0.255  0.00  0.00     0.240 C 
HETATM   78  O   UNK N   1      30.686   9.356   0.969  0.00  0.00    -0.271 OA
HETATM   79  H   UNK N   1      30.236  11.296  -1.404  0.00  0.00     0.163 HD
BRANCH  77  80
HETATM   80  C   UNK N   1      31.956  11.262   0.527  0.00  0.00     0.172 C 
HETATM   81  C   UNK N   1      31.439  12.503   1.229  0.00  0.00     0.042 C 
BRANCH  80  82
HETATM   82  N   UNK N   1      32.593  11.637  -0.707  0.00  0.00    -0.346 N 
HETATM   83  C   UNK N   1      33.833  11.208  -1.025  0.00  0.00     0.241 C 
HETATM   84  O   UNK N   1      34.347  11.586  -2.065  0.00  0.00    -0.271 OA
HETATM   85  H   UNK N   1      32.112  12.222  -1.336  0.00  0.00     0.163 HD
BRANCH  83  86
HETATM   86  C   UNK N   1      34.588  10.259  -0.129  0.00  0.00     0.186 C 
BRANCH  86  87
HETATM   87  C   UNK N   1      34.793  10.841   1.272  0.00  0.00     0.120 C 
BRANCH  87  88
HETATM   88  S   UNK N   1      35.547  12.497   1.234  0.00  0.00    -0.095 SA
BRANCH  88  89
HETATM   89  S   UNK N   1      37.492  11.673   1.401  0.00  0.00    -0.095 SA
BRANCH  89  90
HETATM   90  C   UNK N   1      37.578  11.393  -0.398  0.00  0.00     0.121 C 
BRANCH  90  91
HETATM   91  C   UNK N   1      38.945  10.880  -0.823  0.00  0.00     0.183 C 
BRANCH  91  92
HETATM   92  C   UNK N   1      39.242   9.542  -0.200  0.00  0.00     0.163 C 
HETATM   93  O   UNK N   1      40.202   9.400   0.541  0.00  0.00    -0.648 OA
BRANCH  92  94
HETATM   94  O   UNK N   1      38.440   8.492  -0.459  0.00  0.00    -0.775 OA
HETATM   95  H   UNK N   1      37.528   8.610  -0.640  0.00  0.00     0.167 HD
ENDBRANCH  92  94
ENDBRANCH  91  92
BRANCH  91  96
HETATM   96  N   UNK N   1      39.965  11.865  -0.496  0.00  0.00    -0.417 N 
HETATM   97  H   UNK N   1      40.920  11.591  -0.266  0.00  0.00     0.150 HD
HETATM   98  H   UNK N   1      39.718  12.855  -0.496  0.00  0.00     0.150 HD
ENDBRANCH  91  96
ENDBRANCH  90  91
ENDBRANCH  89  90
ENDBRANCH  88  89
ENDBRANCH  87  88
ENDBRANCH  86  87
BRANCH  86  99
HETATM   99  N   UNK N   1      33.841   9.028  -0.012  0.00  0.00    -0.347 N 
HETATM  100  C   UNK N   1      34.321   7.837  -0.431  0.00  0.00     0.214 C 
HETATM  101  O   UNK N   1      35.430   7.753  -0.935  0.00  0.00    -0.274 OA
HETATM  102  C   UNK N   1      33.483   6.616  -0.277  0.00  0.00     0.117 C 
HETATM  103  H   UNK N   1      32.943   9.059   0.391  0.00  0.00     0.163 HD
ENDBRANCH  86  99
ENDBRANCH  83  86
ENDBRANCH  80  82
ENDBRANCH  77  80
ENDBRANCH  63  76
ENDBRANCH  60  63
ENDBRANCH   1  59
TORSDOF 38
