REMARK  5 active torsions:
REMARK  status: ('A' for Active; 'I' for Inactive)
REMARK    1  A    between atoms: C_4  and  C_2 
REMARK    2  A    between atoms: O_17  and  C_2 
REMARK    3  A    between atoms: C_6  and  O_18 
REMARK    4  A    between atoms: C_8  and  N_16 
REMARK    5  A    between atoms: O_19  and  C_9 
ROOT
HETATM    1  C   UNK N   1      -3.782   0.073   0.042  0.00  0.00     0.119 A 
HETATM    2  C   UNK N   1      -4.626  -1.018   0.222  0.00  0.00     0.065 A 
HETATM    3  C   UNK N   1      -4.071  -2.298   0.208  0.00  0.00     0.120 A 
HETATM    4  C   UNK N   1      -1.926  -1.374  -0.180  0.00  0.00     0.227 A 
HETATM    5  I   UNK N   1      -6.702  -0.695   0.465  0.00  0.00    -0.039 I 
HETATM    6  N   UNK N   1      -4.809  -3.331   0.364  0.00  0.00    -0.384 N 
ATOM      7  HN  UNK N   1      -4.386  -4.259   0.364  1.00  0.00     0.157 HD
HETATM    8  N   UNK N   1      -2.737  -2.447   0.012  0.00  0.00    -0.307 N 
ATOM      9  HN  UNK N   1      -2.334  -3.385   0.009  1.00  0.00     0.171 HD
HETATM   10  N   UNK N   1      -2.441  -0.102  -0.159  0.00  0.00    -0.292 N 
HETATM   11  H   UNK N   1      -5.781  -3.237   0.484  0.00  0.00     0.157 HD
ENDROOT
BRANCH  10  12
HETATM   12  C   UNK N   1      -1.568   1.060  -0.433  0.00  0.00     0.268 C 
HETATM   13  C   UNK N   1      -2.209   2.427  -0.169  0.00  0.00     0.250 C 
HETATM   14  C   UNK N   1      -0.966   3.251  -0.296  0.00  0.00     0.187 C 
HETATM   15  F   UNK N   1      -2.683   2.486   1.137  0.00  0.00    -0.242 F 
HETATM   16  C   UNK N   1       0.007   2.391   0.512  0.00  0.00     0.179 C 
HETATM   17  O   UNK N   1      -0.385   1.036   0.347  0.00  0.00    -0.353 OA
BRANCH  14  18
HETATM   18  O   UNK N   1      -1.106   4.546   0.210  0.00  0.00    -0.390 OA
HETATM   19  H   UNK N   1      -0.377   5.079   0.561  0.00  0.00     0.210 HD
ENDBRANCH  14  18
BRANCH  16  20
HETATM   20  C   UNK N   1       1.450   2.585   0.051  0.00  0.00     0.198 C 
BRANCH  20  21
HETATM   21  O   UNK N   1       1.848   3.914   0.203  0.00  0.00    -0.398 OA
HETATM   22  H   UNK N   1       2.786   4.136   0.309  0.00  0.00     0.209 HD
ENDBRANCH  20  21
ENDBRANCH  16  20
ENDBRANCH  10  12
BRANCH   4  23
HETATM   23  O   UNK N   1      -0.612  -1.577  -0.392  0.00  0.00    -0.332 OA
HETATM   24  H   UNK N   1      -0.277  -2.439  -0.540  0.00  0.00     0.221 HD
ENDBRANCH   4  23
TORSDOF 5
