REMARK  4 active torsions:
REMARK  status: ('A' for Active; 'I' for Inactive)
REMARK    1  A    between atoms: C_11  and  C_6 
REMARK    2  A    between atoms: C_12  and  C_6 
REMARK    3  A    between atoms: N_22  and  C_11 
REMARK    4  A    between atoms: N_23  and  C_12 
ROOT
HETATM    1  C   UNK N   1       6.798   1.746  -0.010  0.00  0.00     0.002 A 
HETATM    2  C   UNK N   1      -0.613   1.676  -0.057  0.00  0.00     0.002 A 
HETATM    3  C   UNK N   1       6.886   3.128   0.108  0.00  0.00     0.002 A 
HETATM    4  C   UNK N   1      -0.730   3.054   0.068  0.00  0.00     0.002 A 
HETATM    5  C   UNK N   1       5.548   1.139  -0.110  0.00  0.00     0.031 A 
HETATM    6  C   UNK N   1       0.650   1.095  -0.146  0.00  0.00     0.031 A 
HETATM    7  C   UNK N   1       5.724   3.896   0.129  0.00  0.00     0.021 A 
HETATM    8  C   UNK N   1       0.417   3.844   0.105  0.00  0.00     0.021 A 
HETATM    9  C   UNK N   1       4.357   1.898  -0.091  0.00  0.00     0.052 A 
HETATM   10  C   UNK N   1       1.827   1.871  -0.103  0.00  0.00     0.052 A 
HETATM   11  C   UNK N   1       4.460   3.299   0.036  0.00  0.00     0.032 A 
HETATM   12  C   UNK N   1       1.693   3.271   0.024  0.00  0.00     0.032 A 
HETATM   13  N   UNK N   1       3.102   1.213  -0.203  0.00  0.00    -0.345 N 
HETATM   14  S   UNK N   1       3.065   4.412   0.051  0.00  0.00    -0.086 SA
ENDROOT
BRANCH  13  15
HETATM   15  C   UNK N   1       3.139  -0.207  -0.515  0.00  0.00     0.131 C 
BRANCH  15  16
HETATM   16  C   UNK N   1       2.663  -1.072   0.635  0.00  0.00     0.050 C 
BRANCH  16  17
HETATM   17  C   UNK N   1       2.346  -2.442   0.057  0.00  0.00     0.274 C 
BRANCH  17  18
HETATM   18  N   UNK N   1       0.997  -2.862   0.410  0.00  0.00     0.091 N 
HETATM   19  C   UNK N   1       0.822  -4.218  -0.104  0.00  0.00     0.302 C 
HETATM   20  C   UNK N   1      -0.592  -4.705   0.217  0.00  0.00     0.302 C 
HETATM   21  N   UNK N   1      -1.583  -3.818  -0.394  0.00  0.00     0.087 N 
HETATM   22  C   UNK N   1      -2.886  -4.245   0.081  0.00  0.00     0.310 C 
HETATM   23  C   UNK N   1      -1.382  -2.450   0.080  0.00  0.00     0.302 C 
HETATM   24  C   UNK N   1       0.031  -1.993  -0.265  0.00  0.00     0.302 C 
ENDBRANCH  17  18
ENDBRANCH  16  17
ENDBRANCH  15  16
ENDBRANCH  13  15
TORSDOF 4
