REMARK  15 active torsions:
REMARK  status: ('A' for Active; 'I' for Inactive)
REMARK    1  A    between atoms: C_13  and  C_10 
REMARK    2  A    between atoms: N_29  and  C_10 
REMARK    3  A    between atoms: O_38  and  C_13 
REMARK    4  A    between atoms: C_19  and  C_14 
REMARK    5  A    between atoms: C_23  and  C_14 
REMARK    6  A    between atoms: C_23  and  C_16 
REMARK    7  A    between atoms: N_31  and  C_16 
REMARK    8  A    between atoms: C_24  and  C_20 
REMARK    9  A    between atoms: C_21  and  C_24 
REMARK   10  A    between atoms: C_23  and  N_28 
REMARK   11  A    between atoms: C_24  and  O_38 
REMARK   12  A    between atoms: N_33  and  C_25 
REMARK   13  A    between atoms: O_34  and  C_25 
REMARK   14  A    between atoms: O_35  and  C_26 
REMARK   15  A    between atoms: O_36  and  C_26 
ROOT
HETATM    1  C   UNK N   1       5.722  -2.725   0.773  0.00  0.00     0.020 C 
HETATM    2  C   UNK N   1       4.396  -3.496   0.729  0.00  0.00     0.011 C 
HETATM    3  C   UNK N   1       6.763  -3.483  -0.060  0.00  0.00     0.126 C 
HETATM    4  C   UNK N   1       5.979  -5.368   1.384  0.00  0.00     0.134 C 
HETATM    5  C   UNK N   1       4.510  -4.941   1.280  0.00  0.00     0.037 C 
HETATM    6  N   UNK N   1       6.721  -4.903   0.234  0.00  0.00    -0.347 N 
ENDROOT
BRANCH   5   7
HETATM    7  C   UNK N   1       3.686  -5.916   0.392  0.00  0.00     0.160 C 
BRANCH   7   8
HETATM    8  C   UNK N   1       3.725  -7.374   0.819  0.00  0.00    -0.027 A 
HETATM    9  C   UNK N   1       4.450  -7.814   1.941  0.00  0.00     0.010 A 
HETATM   10  C   UNK N   1       4.453  -9.164   2.301  0.00  0.00     0.002 A 
HETATM   11  C   UNK N   1       3.717 -10.087   1.555  0.00  0.00     0.024 A 
HETATM   12  C   UNK N   1       2.986  -9.662   0.444  0.00  0.00     0.034 A 
HETATM   13  C   UNK N   1       2.994  -8.314   0.076  0.00  0.00     0.033 A 
HETATM   14 Cl   UNK N   1       2.044 -10.813  -0.477  0.00  0.00    -0.084 Cl
ENDBRANCH   7   8
BRANCH   7  15
HETATM   15  O   UNK N   1       2.328  -5.516   0.430  0.00  0.00    -0.379 OA
BRANCH  15  16
HETATM   16  C   UNK N   1       1.969  -4.899  -0.781  0.00  0.00     0.188 C 
BRANCH  16  17
HETATM   17  C   UNK N   1       1.137  -5.838  -1.655  0.00  0.00     0.150 C 
BRANCH  17  18
HETATM   18  N   UNK N   1       0.162  -6.598  -0.897  0.00  0.00    -0.348 N 
HETATM   19  C   UNK N   1      -0.769  -6.056  -0.181  0.00  0.00     0.257 C 
ATOM     20  HN  UNK N   1       0.213  -7.616  -0.930  1.00  0.00     0.163 HD
BRANCH  19  21
HETATM   21  O   UNK N   1      -0.863  -4.714  -0.081  0.00  0.00    -0.327 OA
HETATM   22  H   UNK N   1      -0.089  -4.191  -0.013  0.00  0.00     0.221 HD
ENDBRANCH  19  21
BRANCH  19  23
HETATM   23  O   UNK N   1      -1.665  -6.827   0.484  0.00  0.00    -0.322 OA
HETATM   24  C   UNK N   1      -1.675  -8.201   0.398  0.00  0.00     0.213 C 
ENDBRANCH  19  23
ENDBRANCH  17  18
ENDBRANCH  16  17
ENDBRANCH  15  16
ENDBRANCH   7  15
ENDBRANCH   5   7
BRANCH   6  25
HETATM   25  C   UNK N   1       7.343  -5.839  -0.632  0.00  0.00     0.214 C 
HETATM   26  N   UNK N   1       7.159  -7.101  -0.448  0.00  0.00    -0.354 N 
ATOM     27  HN  UNK N   1       6.563  -7.411   0.320  1.00  0.00     0.163 HD
BRANCH  26  28
HETATM   28  C   UNK N   1       7.774  -8.082  -1.298  0.00  0.00     0.147 C 
BRANCH  28  29
HETATM   29  C   UNK N   1       8.135  -9.334  -0.501  0.00  0.00     0.094 C 
BRANCH  29  30
HETATM   30  C   UNK N   1       9.262 -10.073  -1.236  0.00  0.00     0.033 C 
BRANCH  30  31
HETATM   31  C   UNK N   1      10.670  -9.514  -0.968  0.00  0.00     0.011 C 
HETATM   32  C   UNK N   1      10.748  -7.980  -1.058  0.00  0.00     0.009 C 
HETATM   33  C   UNK N   1      12.099  -7.450  -0.564  0.00  0.00     0.027 C 
HETATM   34  C   UNK N   1      12.651  -8.317   0.575  0.00  0.00     0.167 C 
HETATM   35  O   UNK N   1      11.598  -8.968   1.241  0.00  0.00    -0.391 OA
HETATM   36  C   UNK N   1      11.182 -10.018   0.398  0.00  0.00     0.172 C 
ENDBRANCH  30  31
ENDBRANCH  29  30
BRANCH  29  37
HETATM   37  N   UNK N   1       6.962 -10.194  -0.304  0.00  0.00    -0.420 N 
HETATM   38  C   UNK N   1       6.400 -10.640  -1.576  0.00  0.00     0.140 C 
HETATM   39  H   UNK N   1       6.585 -10.449   0.609  0.00  0.00     0.153 HD
ENDBRANCH  29  37
ENDBRANCH  28  29
ENDBRANCH  26  28
BRANCH  25  40
HETATM   40  O   UNK N   1       8.108  -5.402  -1.658  0.00  0.00    -0.333 OA
HETATM   41  H   UNK N   1       8.635  -5.709  -2.369  0.00  0.00     0.220 HD
ENDBRANCH  25  40
ENDBRANCH   6  25
TORSDOF 15
