REMARK  17 active torsions:
REMARK  status: ('A' for Active; 'I' for Inactive)
REMARK    1  A    between atoms: C_6  and  C_7 
REMARK    2  A    between atoms: C_7  and  N_8 
REMARK    3  A    between atoms: N_8  and  C_9 
REMARK    4  A    between atoms: C_9  and  C_10 
REMARK    5  A    between atoms: C_10  and  C_11 
REMARK    6  A    between atoms: C_11  and  C_12 
REMARK    7  A    between atoms: C_12  and  C_13 
REMARK    8  A    between atoms: C_13  and  C_14 
REMARK    9  A    between atoms: C_13  and  N_17 
REMARK   10  A    between atoms: C_14  and  O_16 
REMARK       I    between atoms: N_17  and  C_18 
REMARK       I    between atoms: C_18  and  N_20 
REMARK   11  A    between atoms: C_21  and  N_20 
REMARK   12  A    between atoms: C_21  and  C_22 
REMARK   13  A    between atoms: C_21  and  C_27 
REMARK   14  A    between atoms: C_22  and  C_23 
REMARK   15  A    between atoms: C_23  and  C_24 
REMARK   16  A    between atoms: C_24  and  O_26 
REMARK   17  A    between atoms: C_27  and  O_29 
ROOT
HETATM    1  C   UNK N   1       5.935  -0.797   0.983  0.00  0.00     0.184 C 
ENDROOT
BRANCH   1   2
HETATM    2  C   UNK N   1       4.889   0.225   0.502  0.00  0.00     0.036 C 
BRANCH   2   3
HETATM    3  C   UNK N   1       4.598   0.192  -0.993  0.00  0.00     0.004 C 
BRANCH   3   4
HETATM    4  C   UNK N   1       3.102   0.148  -1.263  0.00  0.00     0.019 C 
BRANCH   4   5
HETATM    5  C   UNK N   1       2.534  -1.245  -1.019  0.00  0.00     0.114 C 
BRANCH   5   6
HETATM    6  N   UNK N   1       2.435  -1.494   0.416  0.00  0.00    -0.417 N 
HETATM    7  H   UNK N   1       3.221  -1.500   1.067  0.00  0.00     0.153 HD
BRANCH   6   8
HETATM    8  C   UNK N   1       1.042  -1.733   0.779  0.00  0.00     0.152 C 
BRANCH   8   9
HETATM    9  C   UNK N   1       0.195  -0.543   0.473  0.00  0.00    -0.041 A 
HETATM   10  C   UNK N   1       0.501   0.710   1.020  0.00  0.00     0.010 A 
HETATM   11  C   UNK N   1      -0.264   1.827   0.674  0.00  0.00     0.019 A 
HETATM   12  C   UNK N   1      -1.333   1.691  -0.217  0.00  0.00     0.006 A 
HETATM   13  C   UNK N   1      -1.642   0.440  -0.757  0.00  0.00     0.019 A 
HETATM   14  I   UNK N   1      -2.475   3.371  -0.756  0.00  0.00    -0.045 I 
HETATM   15  C   UNK N   1      -0.876  -0.676  -0.414  0.00  0.00     0.010 A 
ENDBRANCH   8   9
ENDBRANCH   6   8
ENDBRANCH   5   6
ENDBRANCH   4   5
ENDBRANCH   3   4
ENDBRANCH   2   3
ENDBRANCH   1   2
BRANCH   1  16
HETATM   16  C   UNK N   1       5.700  -2.255   0.698  0.00  0.00     0.163 C 
HETATM   17  O   UNK N   1       6.246  -3.094   1.395  0.00  0.00    -0.648 OA
BRANCH  16  18
HETATM   18  O   UNK N   1       4.965  -2.651  -0.356  0.00  0.00    -0.775 OA
HETATM   19  H   UNK N   1       4.470  -2.345  -1.090  0.00  0.00     0.167 HD
ENDBRANCH  16  18
ENDBRANCH   1  16
BRANCH   1  20
HETATM   20  N   UNK N   1       7.319  -0.446   0.738  0.00  0.00    -0.329 N 
HETATM   21  C   UNK N   1       7.892  -0.342  -0.493  0.00  0.00     0.317 C 
HETATM   22  O   UNK N   1       7.218  -0.413  -1.506  0.00  0.00    -0.247 OA
HETATM   23  N   UNK N   1       9.233  -0.232  -0.604  0.00  0.00    -0.329 N 
HETATM   24  H   UNK N   1       9.635  -0.104  -1.494  0.00  0.00     0.165 HD
HETATM   25  H   UNK N   1       7.889  -0.270   1.521  0.00  0.00     0.165 HD
BRANCH  23  26
HETATM   26  C   UNK N   1      10.088  -0.297   0.555  0.00  0.00     0.184 C 
BRANCH  26  27
HETATM   27  C   UNK N   1      11.136   0.815   0.537  0.00  0.00     0.046 C 
BRANCH  27  28
HETATM   28  C   UNK N   1      11.988   0.805  -0.726  0.00  0.00     0.112 C 
BRANCH  28  29
HETATM   29  C   UNK N   1      13.419   0.540  -0.393  0.00  0.00     0.139 C 
HETATM   30  O   UNK N   1      13.751  -0.529   0.093  0.00  0.00    -0.650 OA
BRANCH  29  31
HETATM   31  O   UNK N   1      14.349   1.478  -0.646  0.00  0.00    -0.776 OA
HETATM   32  H   UNK N   1      15.239   1.243  -0.823  0.00  0.00     0.167 HD
ENDBRANCH  29  31
ENDBRANCH  28  29
ENDBRANCH  27  28
ENDBRANCH  26  27
BRANCH  26  33
HETATM   33  C   UNK N   1      10.668  -1.676   0.676  0.00  0.00     0.163 C 
HETATM   34  O   UNK N   1      11.360  -2.141  -0.216  0.00  0.00    -0.648 OA
BRANCH  33  35
HETATM   35  O   UNK N   1      10.373  -2.428   1.753  0.00  0.00    -0.775 OA
HETATM   36  H   UNK N   1       9.817  -2.511   2.502  0.00  0.00     0.167 HD
ENDBRANCH  33  35
ENDBRANCH  26  33
ENDBRANCH  23  26
ENDBRANCH   1  20
TORSDOF 17
