REMARK  12 active torsions:
REMARK  status: ('A' for Active; 'I' for Inactive)
REMARK    1  A    between atoms: C_2  and  C_3 
REMARK    2  A    between atoms: C_3  and  S_4 
REMARK    3  A    between atoms: S_4  and  N_7 
REMARK    4  A    between atoms: N_10  and  C_13 
REMARK    5  A    between atoms: C_13  and  C_14 
REMARK    6  A    between atoms: C_17  and  N_20 
REMARK       I    between atoms: N_20  and  C_21 
REMARK    7  A    between atoms: C_21  and  C_23 
REMARK    8  A    between atoms: C_26  and  C_29 
REMARK    9  A    between atoms: C_31  and  N_40 
REMARK   10  A    between atoms: C_34  and  O_35 
REMARK   11  A    between atoms: O_35  and  C_36 
REMARK       I    between atoms: N_40  and  C_41 
REMARK   12  A    between atoms: C_41  and  C_43 
ROOT
HETATM    1  C   UNK N   1       0.088   5.611  -0.002  0.00  0.00     0.032 A 
HETATM    2  C   UNK N   1      -0.323   4.651  -0.913  0.00  0.00     0.018 A 
HETATM    3  C   UNK N   1      -1.659   4.333  -0.974  0.00  0.00     0.013 A 
HETATM    4  C   UNK N   1      -2.600   5.055  -0.218  0.00  0.00    -0.023 A 
HETATM    5  C   UNK N   1      -2.184   6.048   0.665  0.00  0.00     0.013 A 
HETATM    6  C   UNK N   1      -0.832   6.311   0.783  0.00  0.00     0.018 A 
ENDROOT
BRANCH   1   7
HETATM    7  C   UNK N   1       1.423   6.080  -0.016  0.00  0.00     0.256 C 
HETATM    8  N   UNK N   1       1.956   6.492  -1.192  0.00  0.00    -0.323 N 
HETATM    9  H   UNK N   1       1.687   6.090  -2.049  0.00  0.00     0.169 HD
HETATM   10  O   UNK N   1       1.949   6.394   1.057  0.00  0.00    -0.267 OA
BRANCH   8  11
HETATM   11  C   UNK N   1       2.906   7.515  -1.127  0.00  0.00     0.035 A 
HETATM   12  C   UNK N   1       4.235   7.227  -1.407  0.00  0.00     0.030 A 
HETATM   13  C   UNK N   1       5.232   8.032  -0.861  0.00  0.00     0.011 A 
HETATM   14  C   UNK N   1       4.892   9.101  -0.024  0.00  0.00    -0.041 A 
HETATM   15  C   UNK N   1       3.555   9.426   0.192  0.00  0.00     0.011 A 
HETATM   16  C   UNK N   1       2.568   8.647  -0.367  0.00  0.00     0.030 A 
BRANCH  14  17
HETATM   17  C   UNK N   1       5.959   9.726   0.809  0.00  0.00     0.155 C 
BRANCH  17  18
HETATM   18  N   UNK N   1       5.838  11.167   0.966  0.00  0.00    -0.406 N 
HETATM   19  C   UNK N   1       6.091  11.907  -0.283  0.00  0.00     0.132 C 
HETATM   20  C   UNK N   1       4.886  12.707  -0.763  0.00  0.00     0.126 C 
HETATM   21  N   UNK N   1       4.336  13.406   0.379  0.00  0.00    -0.208 NA
HETATM   22  C   UNK N   1       3.674  12.400   1.191  0.00  0.00     0.126 C 
HETATM   23  C   UNK N   1       4.757  11.584   1.884  0.00  0.00     0.132 C 
BRANCH  21  24
HETATM   24  S   UNK N   1       3.208  14.662  -0.142  0.00  0.00     0.211 S 
HETATM   25  O   UNK N   1       1.748  14.241   0.092  0.00  0.00    -0.211 OA
HETATM   26  O   UNK N   1       3.242  15.188   1.299  0.00  0.00    -0.211 OA
BRANCH  24  27
HETATM   27  C   UNK N   1       3.673  16.373  -0.552  0.00  0.00     0.157 C 
BRANCH  27  28
HETATM   28  C   UNK N   1       2.478  17.167  -1.051  0.00  0.00     0.012 C 
HETATM   29  C   UNK N   1       1.494  17.432   0.074  0.00  0.00     0.006 C 
ENDBRANCH  27  28
ENDBRANCH  24  27
ENDBRANCH  21  24
ENDBRANCH  17  18
ENDBRANCH  14  17
ENDBRANCH   8  11
ENDBRANCH   1   7
BRANCH   4  30
HETATM   30  C   UNK N   1      -3.972   4.597  -0.207  0.00  0.00     0.010 A 
HETATM   31  C   UNK N   1      -4.105   3.244  -0.311  0.00  0.00     0.044 A 
HETATM   32  C   UNK N   1      -5.295   2.587  -0.205  0.00  0.00     0.035 A 
HETATM   33  C   UNK N   1      -6.465   3.352  -0.046  0.00  0.00     0.032 A 
HETATM   34  C   UNK N   1      -6.368   4.768   0.041  0.00  0.00     0.040 A 
HETATM   35  C   UNK N   1      -5.102   5.404  -0.018  0.00  0.00     0.089 A 
BRANCH  32  36
HETATM   36  N   UNK N   1      -5.275   1.159  -0.254  0.00  0.00    -0.327 N 
HETATM   37  C   UNK N   1      -4.130   0.436  -0.000  0.00  0.00     0.226 C 
HETATM   38  O   UNK N   1      -3.129   0.984   0.455  0.00  0.00    -0.273 OA
HETATM   39  H   UNK N   1      -6.105   0.677  -0.475  0.00  0.00     0.169 HD
BRANCH  37  40
HETATM   40  C   UNK N   1      -4.082  -1.036  -0.296  0.00  0.00     0.078 A 
HETATM   41  C   UNK N   1      -2.688  -1.611  -0.045  0.00  0.00     0.015 A 
HETATM   42  C   UNK N   1      -3.786  -1.809   0.975  0.00  0.00     0.015 A 
ENDBRANCH  37  40
ENDBRANCH  32  36
BRANCH  35  43
HETATM   43  O   UNK N   1      -4.933   6.757   0.033  0.00  0.00    -0.254 OA
BRANCH  43  44
HETATM   44  C   UNK N   1      -5.854   7.752   0.308  0.00  0.00     0.530 C 
HETATM   45  F   UNK N   1      -5.285   8.643   1.200  0.00  0.00    -0.144 F 
HETATM   46  F   UNK N   1      -7.021   7.259   0.859  0.00  0.00    -0.144 F 
HETATM   47  F   UNK N   1      -6.147   8.433  -0.860  0.00  0.00    -0.144 F 
ENDBRANCH  43  44
ENDBRANCH  35  43
ENDBRANCH   4  30
TORSDOF 12
