REMARK  4 active torsions:
REMARK  status: ('A' for Active; 'I' for Inactive)
REMARK    1  A    between atoms: C_5  and  C_9 
REMARK    2  A    between atoms: C_9  and  C_10 
REMARK    3  A    between atoms: C_26  and  N_23 
REMARK    4  A    between atoms: C_31  and  O_32 
ROOT
HETATM    1  C   UNK N   1       0.948  -1.380  -0.403  0.00  0.00    -0.042 A 
HETATM    2  C   UNK N   1       2.326  -1.349  -0.591  0.00  0.00     0.027 A 
HETATM    3  C   UNK N   1       3.074  -0.198  -0.351  0.00  0.00     0.060 A 
HETATM    4  C   UNK N   1       2.444   0.977   0.082  0.00  0.00     0.060 A 
HETATM    5  C   UNK N   1       1.050   0.989   0.272  0.00  0.00     0.002 A 
HETATM    6  C   UNK N   1       0.288  -0.194   0.038  0.00  0.00    -0.017 A 
HETATM    7  C   UNK N   1      -1.096  -0.153   0.267  0.00  0.00     0.013 A 
HETATM    8  C   UNK N   1      -1.723   1.016   0.700  0.00  0.00     0.001 A 
HETATM    9  C   UNK N   1      -0.974   2.170   0.918  0.00  0.00     0.001 A 
HETATM   10  C   UNK N   1       0.405   2.157   0.709  0.00  0.00     0.014 A 
HETATM   11  N   UNK N   1       3.195   2.085   0.326  0.00  0.00    -0.351 N 
ATOM     12  HN  UNK N   1       2.735   2.946   0.623  1.00  0.00     0.166 HD
HETATM   13  C   UNK N   1       4.548   2.067   0.181  0.00  0.00     0.187 A 
HETATM   14  N   UNK N   1       5.192   0.933  -0.228  0.00  0.00    -0.302 N 
HETATM   15  C   UNK N   1       4.461  -0.202  -0.516  0.00  0.00     0.261 A 
HETATM   16  O   UNK N   1       5.022  -1.214  -0.909  0.00  0.00    -0.267 OA
ENDROOT
BRANCH   1  17
HETATM   17  C   UNK N   1       0.308  -2.729  -0.667  0.00  0.00     0.079 C 
BRANCH  17  18
HETATM   18  C   UNK N   1      -1.174  -2.854  -0.606  0.00  0.00    -0.038 A 
HETATM   19  C   UNK N   1      -1.974  -2.357  -1.638  0.00  0.00     0.011 A 
HETATM   20  C   UNK N   1      -3.360  -2.481  -1.554  0.00  0.00     0.025 A 
HETATM   21  C   UNK N   1      -3.925  -3.109  -0.441  0.00  0.00     0.005 A 
HETATM   22  C   UNK N   1      -5.401  -3.238  -0.334  0.00  0.00     0.068 C 
HETATM   23  N   UNK N   1      -3.127  -3.602   0.545  0.00  0.00    -0.369 N 
HETATM   24  C   UNK N   1      -1.773  -3.492   0.482  0.00  0.00     0.095 A 
ATOM     25  HN  UNK N   1      -3.554  -4.065   1.348  1.00  0.00     0.165 HD
ENDBRANCH  17  18
ENDBRANCH   1  17
BRANCH  14  26
HETATM   26  C   UNK N   1       6.662   0.894  -0.347  0.00  0.00     0.122 C 
HETATM   27  C   UNK N   1       7.296   2.277  -0.550  0.00  0.00     0.028 C 
HETATM   28  C   UNK N   1       8.799   2.128  -0.778  0.00  0.00     0.002 C 
HETATM   29  C   UNK N   1       9.454   1.415   0.403  0.00  0.00     0.003 C 
HETATM   30  C   UNK N   1       8.811   0.051   0.627  0.00  0.00     0.034 C 
HETATM   31  C   UNK N   1       7.315   0.207   0.870  0.00  0.00     0.141 C 
BRANCH  31  32
HETATM   32  O   UNK N   1       6.765  -1.052   1.112  0.00  0.00    -0.393 OA
HETATM   33  H   UNK N   1       5.816  -1.159   1.280  0.00  0.00     0.210 HD
ENDBRANCH  31  32
ENDBRANCH  14  26
TORSDOF 4
