REMARK  15 active torsions:
REMARK  status: ('A' for Active; 'I' for Inactive)
REMARK    1  A    between atoms: C_2  and  C_3 
REMARK    2  A    between atoms: C_3  and  C_4 
REMARK    3  A    between atoms: C_3  and  O_51 
REMARK    4  A    between atoms: C_6  and  C_4 
REMARK    5  A    between atoms: C_7  and  C_9 
REMARK    6  A    between atoms: C_9  and  C_10 
REMARK    7  A    between atoms: C_10  and  C_12 
REMARK    8  A    between atoms: C_10  and  O_50 
REMARK    9  A    between atoms: C_13  and  C_14 
REMARK   10  A    between atoms: C_17  and  C_15 
REMARK   11  A    between atoms: C_21  and  O_33 
REMARK   12  A    between atoms: C_22  and  O_32 
REMARK   13  A    between atoms: C_25  and  O_30 
REMARK   14  A    between atoms: O_33  and  C_34 
REMARK       I    between atoms: C_34  and  N_36 
REMARK   15  A    between atoms: N_39  and  C_42 
ROOT
HETATM    1  C   UNK N   1       3.857  -7.398   0.500  0.00  0.00     0.167 C 
HETATM    2  C   UNK N   1       4.194  -5.895   0.396  0.00  0.00     0.038 C 
HETATM    3  C   UNK N   1       5.079  -5.410   1.538  0.00  0.00    -0.021 C 
HETATM    4  C   UNK N   1       6.194  -4.658   1.445  0.00  0.00     0.005 C 
HETATM    5  C   UNK N   1       6.721  -4.162   0.135  0.00  0.00     0.190 C 
HETATM    6  C   UNK N   1       8.107  -4.632  -0.370  0.00  0.00     0.084 C 
HETATM    7  C   UNK N   1       8.201  -6.144  -0.481  0.00  0.00     0.043 C 
HETATM    8  C   UNK N   1       8.389  -6.862   0.846  0.00  0.00     0.035 C 
HETATM    9  C   UNK N   1       8.531  -8.344   0.542  0.00  0.00     0.127 C 
HETATM   10  C   UNK N   1       7.215  -9.119   0.634  0.00  0.00     0.142 C 
HETATM   11  C   UNK N   1       6.041  -8.411   0.030  0.00  0.00     0.261 C 
HETATM   12  O   UNK N   1       6.067  -8.054  -1.138  0.00  0.00    -0.265 OA
HETATM   13  O   UNK N   1       4.958  -8.179   0.813  0.00  0.00    -0.311 OA
HETATM   14  C   UNK N   1       8.309  -4.099  -1.778  0.00  0.00     0.049 C 
HETATM   15  C   UNK N   1       4.559  -5.464  -1.022  0.00  0.00     0.017 C 
ENDROOT
BRANCH   1  16
HETATM   16  C   UNK N   1       2.981  -7.940  -0.635  0.00  0.00    -0.054 C 
HETATM   17  C   UNK N   1       1.803  -7.367  -0.934  0.00  0.00     0.005 C 
HETATM   18  C   UNK N   1       3.384  -9.153  -1.408  0.00  0.00     0.046 C 
BRANCH  17  19
HETATM   19  C   UNK N   1       1.321  -6.191  -0.187  0.00  0.00    -0.001 C 
HETATM   20  C   UNK N   1       0.620  -6.282   0.954  0.00  0.00     0.010 C 
BRANCH  20  21
HETATM   21  C   UNK N   1       0.043  -7.554   1.541  0.00  0.00     0.074 C 
HETATM   22  C   UNK N   1       1.102  -8.619   1.755  0.00  0.00     0.050 C 
BRANCH  21  23
HETATM   23  C   UNK N   1      -1.070  -8.099   0.632  0.00  0.00     0.076 C 
BRANCH  23  24
HETATM   24  C   UNK N   1      -2.183  -7.065   0.550  0.00  0.00     0.154 A 
HETATM   25  C   UNK N   1      -1.986  -6.266  -0.682  0.00  0.00     0.157 A 
HETATM   26  O   UNK N   1      -3.020  -7.222  -0.561  0.00  0.00    -0.375 OA
BRANCH  25  27
HETATM   27  C   UNK N   1      -2.310  -4.832  -0.256  0.00  0.00     0.042 C 
HETATM   28  C   UNK N   1      -1.402  -3.913  -1.055  0.00  0.00     0.015 C 
BRANCH  27  29
HETATM   29  C   UNK N   1      -3.779  -4.369  -0.292  0.00  0.00     0.124 C 
BRANCH  29  30
HETATM   30  C   UNK N   1      -3.947  -3.047   0.458  0.00  0.00     0.027 C 
HETATM   31  C   UNK N   1      -3.419  -1.854  -0.317  0.00  0.00     0.007 C 
ENDBRANCH  29  30
BRANCH  29  32
HETATM   32  O   UNK N   1      -4.595  -5.302   0.349  0.00  0.00    -0.395 OA
HETATM   33  H   UNK N   1      -5.440  -5.135   0.795  0.00  0.00     0.210 HD
ENDBRANCH  29  32
ENDBRANCH  27  29
ENDBRANCH  25  27
ENDBRANCH  23  24
ENDBRANCH  21  23
BRANCH  21  34
HETATM   34  O   UNK N   1      -0.499  -7.245   2.789  0.00  0.00    -0.386 OA
HETATM   35  H   UNK N   1      -0.501  -6.811   3.657  0.00  0.00     0.211 HD
ENDBRANCH  21  34
ENDBRANCH  20  21
ENDBRANCH  17  19
ENDBRANCH   1  16
BRANCH   5  36
HETATM   36  O   UNK N   1       6.429  -2.831  -0.104  0.00  0.00    -0.291 OA
BRANCH  36  37
HETATM   37  C   UNK N   1       7.258  -1.794   0.175  0.00  0.00     0.363 C 
HETATM   38  O   UNK N   1       8.081  -1.883   1.075  0.00  0.00    -0.238 OA
HETATM   39  N   UNK N   1       7.207  -0.681  -0.596  0.00  0.00    -0.325 N 
HETATM   40  C   UNK N   1       6.218  -0.567  -1.649  0.00  0.00     0.158 C 
HETATM   41  C   UNK N   1       8.179   0.376  -0.412  0.00  0.00     0.158 C 
HETATM   42  C   UNK N   1       5.497   0.787  -1.557  0.00  0.00     0.293 C 
HETATM   43  N   UNK N   1       6.342   1.883  -1.037  0.00  0.00     0.096 N 
HETATM   44  C   UNK N   1       7.776   1.600  -1.226  0.00  0.00     0.293 C 
BRANCH  43  45
HETATM   45  C   UNK N   1       5.979   2.131   0.376  0.00  0.00     0.223 C 
HETATM   46  C   UNK N   1       4.605   2.796   0.503  0.00  0.00     0.036 C 
HETATM   47  C   UNK N   1       4.449   4.045  -0.362  0.00  0.00     0.002 C 
HETATM   48  C   UNK N   1       5.404   5.159   0.038  0.00  0.00     0.000 C 
HETATM   49  C   UNK N   1       6.801   4.851  -0.469  0.00  0.00     0.000 C 
HETATM   50  C   UNK N   1       7.646   4.152   0.590  0.00  0.00     0.002 C 
HETATM   51  C   UNK N   1       7.033   2.889   1.210  0.00  0.00     0.036 C 
ENDBRANCH  43  45
ENDBRANCH  36  37
ENDBRANCH   5  36
BRANCH   9  52
HETATM   52  O   UNK N   1       9.456  -8.912   1.416  0.00  0.00    -0.395 OA
HETATM   53  H   UNK N   1       9.436  -9.667   2.025  0.00  0.00     0.210 HD
ENDBRANCH   9  52
BRANCH   6  54
HETATM   54  O   UNK N   1       9.141  -4.161   0.442  0.00  0.00    -0.387 OA
HETATM   55  H   UNK N   1       9.783  -4.620   1.006  0.00  0.00     0.210 HD
ENDBRANCH   6  54
TORSDOF 15
