REMARK  5 active torsions:
REMARK  status: ('A' for Active; 'I' for Inactive)
REMARK    1  A    between atoms: C_2  and  S_3 
REMARK    2  A    between atoms: S_3  and  C_6 
REMARK    3  A    between atoms: C_10  and  C_12 
REMARK    4  A    between atoms: C_14  and  C_28 
REMARK       I    between atoms: C_28  and  N_30 
REMARK    5  A    between atoms: N_30  and  C_31 
ROOT
HETATM    1  C   UNK N   1       2.443  -0.283  -0.218  0.00  0.00    -0.011 A 
HETATM    2  C   UNK N   1       3.804   0.048  -0.072  0.00  0.00     0.030 A 
HETATM    3  C   UNK N   1       4.253   1.347   0.224  0.00  0.00     0.041 A 
HETATM    4  C   UNK N   1       3.298   2.390   0.359  0.00  0.00    -0.019 A 
HETATM    5  C   UNK N   1       1.949   2.064   0.226  0.00  0.00     0.052 A 
HETATM    6  C   UNK N   1       1.511   0.770  -0.041  0.00  0.00     0.016 A 
HETATM    7  C   UNK N   1       0.127   0.848  -0.015  0.00  0.00     0.022 A 
HETATM    8  C   UNK N   1      -0.888  -0.093  -0.145  0.00  0.00     0.024 A 
HETATM    9  C   UNK N   1      -2.214   0.338  -0.003  0.00  0.00    -0.046 A 
HETATM   10  C   UNK N   1      -2.485   1.697   0.262  0.00  0.00     0.096 A 
HETATM   11  N   UNK N   1      -1.461   2.595   0.382  0.00  0.00    -0.351 N 
ATOM     12  HN  UNK N   1      -1.655   3.578   0.572  1.00  0.00     0.166 HD
HETATM   13  C   UNK N   1      -0.187   2.160   0.246  0.00  0.00     0.117 A 
HETATM   14  N   UNK N   1       0.915   2.920   0.388  0.00  0.00    -0.341 N 
HETATM   15  C   UNK N   1      -3.327  -0.639  -0.111  0.00  0.00     0.049 C 
HETATM   16  C   UNK N   1       3.674   3.804   0.674  0.00  0.00     0.052 C 
HETATM   17  H   UNK N   1       0.959   3.886   0.570  0.00  0.00     0.167 HD
ENDROOT
BRANCH   1  18
HETATM   18  C   UNK N   1       2.122  -1.716  -0.487  0.00  0.00    -0.024 A 
HETATM   19  C   UNK N   1       0.848  -2.167  -0.850  0.00  0.00     0.012 A 
HETATM   20  C   UNK N   1       0.600  -3.529  -1.057  0.00  0.00     0.002 A 
HETATM   21  C   UNK N   1       1.630  -4.460  -0.890  0.00  0.00     0.023 A 
HETATM   22  C   UNK N   1       2.908  -4.021  -0.537  0.00  0.00     0.060 A 
HETATM   23  C   UNK N   1       3.146  -2.665  -0.345  0.00  0.00     0.035 A 
BRANCH  22  24
HETATM   24  S   UNK N   1       4.246  -5.174  -0.274  0.00  0.00     0.175 S 
HETATM   25  O   UNK N   1       5.380  -4.702  -1.199  0.00  0.00    -0.223 OA
HETATM   26  O   UNK N   1       3.894  -6.497  -0.969  0.00  0.00    -0.223 OA
BRANCH  24  27
HETATM   27  C   UNK N   1       4.971  -5.532   1.357  0.00  0.00     0.141 C 
HETATM   28  C   UNK N   1       6.407  -5.997   1.217  0.00  0.00     0.021 C 
ENDBRANCH  24  27
ENDBRANCH  22  24
ENDBRANCH   1  18
BRANCH   3  29
HETATM   29  C   UNK N   1       5.715   1.534   0.422  0.00  0.00     0.252 C 
HETATM   30  O   UNK N   1       6.462   0.585   0.244  0.00  0.00    -0.268 OA
HETATM   31  N   UNK N   1       6.201   2.738   0.827  0.00  0.00    -0.352 N 
HETATM   32  H   UNK N   1       5.524   3.437   0.978  0.00  0.00     0.163 HD
BRANCH  31  33
HETATM   33  C   UNK N   1       7.579   3.140   1.069  0.00  0.00     0.088 C 
HETATM   34  C   UNK N   1       7.922   4.272   0.121  0.00  0.00     0.055 C 
HETATM   35  C   UNK N   1       7.998   3.716  -1.302  0.00  0.00     0.274 C 
HETATM   36  N   UNK N   1       9.053   2.704  -1.434  0.00  0.00     0.084 N 
HETATM   37  C   UNK N   1       8.906   1.598  -0.478  0.00  0.00     0.274 C 
HETATM   38  C   UNK N   1      10.363   3.322  -1.296  0.00  0.00     0.309 C 
HETATM   39  C   UNK N   1       8.659   2.053   0.971  0.00  0.00     0.055 C 
ENDBRANCH  31  33
ENDBRANCH   3  29
TORSDOF 5
