REMARK  17 active torsions:
REMARK  status: ('A' for Active; 'I' for Inactive)
REMARK    1  A    between atoms: C_2  and  C_3 
REMARK    2  A    between atoms: C_3  and  C_4 
REMARK    3  A    between atoms: C_4  and  C_5 
REMARK    4  A    between atoms: C_5  and  C_6 
REMARK    5  A    between atoms: C_6  and  C_7 
REMARK    6  A    between atoms: C_6  and  O_27 
REMARK    7  A    between atoms: C_8  and  C_9 
REMARK    8  A    between atoms: C_14  and  C_15 
REMARK    9  A    between atoms: C_16  and  C_17 
REMARK   10  A    between atoms: C_17  and  C_18 
REMARK   11  A    between atoms: C_17  and  O_26 
REMARK   12  A    between atoms: C_18  and  C_19 
REMARK   13  A    between atoms: C_18  and  O_25 
REMARK   14  A    between atoms: C_19  and  C_20 
REMARK   15  A    between atoms: C_20  and  C_21 
REMARK   16  A    between atoms: C_21  and  C_22 
REMARK   17  A    between atoms: C_22  and  O_24 
ROOT
HETATM    1  C   UNK N   1       3.066   2.657   0.084  0.00  0.00    -0.026 A 
HETATM    2  C   UNK N   1       3.389   4.014  -0.067  0.00  0.00     0.012 A 
HETATM    3  C   UNK N   1       4.711   4.443  -0.167  0.00  0.00     0.001 A 
HETATM    4  C   UNK N   1       5.747   3.521  -0.093  0.00  0.00     0.001 A 
HETATM    5  C   UNK N   1       5.462   2.168   0.074  0.00  0.00     0.012 A 
HETATM    6  C   UNK N   1       4.144   1.698   0.153  0.00  0.00    -0.026 A 
ENDROOT
BRANCH   6   7
HETATM    7  C   UNK N   1       4.040   0.228   0.366  0.00  0.00     0.011 C 
HETATM    8  C   UNK N   1       3.055  -0.565  -0.043  0.00  0.00     0.008 C 
BRANCH   8   9
HETATM    9  C   UNK N   1       2.969  -2.027   0.287  0.00  0.00     0.169 C 
BRANCH   9  10
HETATM   10  C   UNK N   1       4.043  -2.906  -0.371  0.00  0.00     0.150 C 
BRANCH  10  11
HETATM   11  C   UNK N   1       5.430  -2.635   0.193  0.00  0.00     0.035 C 
BRANCH  11  12
HETATM   12  C   UNK N   1       6.161  -1.596  -0.635  0.00  0.00     0.013 C 
BRANCH  12  13
HETATM   13  C   UNK N   1       7.235  -0.945   0.217  0.00  0.00     0.110 C 
BRANCH  13  14
HETATM   14  C   UNK N   1       8.552  -1.619   0.024  0.00  0.00     0.139 C 
HETATM   15  O   UNK N   1       9.508  -0.975  -0.372  0.00  0.00    -0.650 OA
BRANCH  14  16
HETATM   16  O   UNK N   1       8.692  -2.929   0.300  0.00  0.00    -0.776 OA
HETATM   17  H   UNK N   1       7.951  -3.470   0.493  0.00  0.00     0.167 HD
ENDBRANCH  14  16
ENDBRANCH  13  14
ENDBRANCH  12  13
ENDBRANCH  11  12
ENDBRANCH  10  11
BRANCH  10  18
HETATM   18  O   UNK N   1       3.739  -4.247  -0.127  0.00  0.00    -0.393 OA
HETATM   19  H   UNK N   1       2.827  -4.529   0.043  0.00  0.00     0.210 HD
ENDBRANCH  10  18
ENDBRANCH   9  10
BRANCH   9  20
HETATM   20  O   UNK N   1       1.707  -2.476  -0.107  0.00  0.00    -0.389 OA
HETATM   21  H   UNK N   1       0.999  -1.873  -0.382  0.00  0.00     0.210 HD
ENDBRANCH   9  20
ENDBRANCH   8   9
ENDBRANCH   6   7
BRANCH   1  22
HETATM   22  C   UNK N   1       1.609   2.387   0.240  0.00  0.00     0.011 C 
HETATM   23  C   UNK N   1       1.030   1.207   0.061  0.00  0.00     0.005 C 
BRANCH  23  24
HETATM   24  C   UNK N   1      -0.391   0.905   0.398  0.00  0.00     0.141 C 
BRANCH  24  25
HETATM   25  C   UNK N   1      -1.399   1.801  -0.303  0.00  0.00     0.036 C 
BRANCH  25  26
HETATM   26  C   UNK N   1      -2.780   1.414   0.199  0.00  0.00     0.003 C 
BRANCH  26  27
HETATM   27  C   UNK N   1      -3.851   2.337  -0.330  0.00  0.00    -0.000 C 
BRANCH  27  28
HETATM   28  C   UNK N   1      -5.192   1.812   0.142  0.00  0.00    -0.005 C 
HETATM   29  C   UNK N   1      -6.284   2.801  -0.200  0.00  0.00     0.005 C 
ENDBRANCH  27  28
ENDBRANCH  26  27
ENDBRANCH  25  26
ENDBRANCH  24  25
BRANCH  24  30
HETATM   30  O   UNK N   1      -0.640  -0.431   0.079  0.00  0.00    -0.392 OA
HETATM   31  H   UNK N   1      -1.531  -0.745  -0.143  0.00  0.00     0.210 HD
ENDBRANCH  24  30
ENDBRANCH  23  24
ENDBRANCH   1  22
TORSDOF 17
