REMARK  8 active torsions:
REMARK  status: ('A' for Active; 'I' for Inactive)
REMARK    1  A    between atoms: C_5  and  O_7 
REMARK    2  A    between atoms: C_8  and  O_7 
REMARK    3  A    between atoms: C_13  and  O_17 
REMARK    4  A    between atoms: O_17  and  C_18 
REMARK    5  A    between atoms: C_18  and  C_19 
REMARK    6  A    between atoms: N_22  and  C_25 
REMARK    7  A    between atoms: C_25  and  C_26 
REMARK    8  A    between atoms: C_26  and  O_32 
ROOT
HETATM    1  O   UNK N   1      -0.444   1.762  -0.005  0.00  0.00    -0.333 OA
ENDROOT
BRANCH   1   2
HETATM    2  C   UNK N   1       0.125   0.547  -0.076  0.00  0.00     0.178 A 
HETATM    3  C   UNK N   1       1.467   0.327   0.002  0.00  0.00     0.086 A 
HETATM    4  C   UNK N   1       1.608  -1.021  -0.076  0.00  0.00     0.116 A 
HETATM    5  C   UNK N   1       2.544   1.194   0.148  0.00  0.00     0.086 A 
HETATM    6  C   UNK N   1       2.858  -1.631  -0.013  0.00  0.00     0.040 A 
HETATM    7  O   UNK N   1       0.416  -1.567  -0.200  0.00  0.00    -0.235 OA
HETATM    8  C   UNK N   1       3.984  -0.792   0.139  0.00  0.00     0.006 A 
HETATM    9  C   UNK N   1       3.831   0.615   0.221  0.00  0.00     0.038 A 
HETATM   10  N   UNK N   1      -0.512  -0.639  -0.202  0.00  0.00    -0.238 N 
ATOM     11  HN  UNK N   1      -1.518  -0.785  -0.284  1.00  0.00     0.197 HD
BRANCH   5  12
HETATM   12  O   UNK N   1       2.324   2.531   0.224  0.00  0.00    -0.343 OA
BRANCH  12  13
HETATM   13  C   UNK N   1       3.282   3.483   0.503  0.00  0.00     0.154 C 
HETATM   14  C   UNK N   1       2.656   4.842   0.519  0.00  0.00     0.061 C 
HETATM   15  C   UNK N   1       3.748   5.728  -0.052  0.00  0.00     0.170 C 
HETATM   16  O   UNK N   1       4.825   4.922  -0.465  0.00  0.00    -0.389 OA
HETATM   17  C   UNK N   1       4.284   3.638  -0.607  0.00  0.00     0.200 C 
ENDBRANCH  12  13
ENDBRANCH   5  12
ENDBRANCH   1   2
BRANCH   1  18
HETATM   18  C   UNK N   1      -1.789   2.022  -0.039  0.00  0.00     0.182 C 
BRANCH  18  19
HETATM   19  C   UNK N   1      -1.953   3.473   0.385  0.00  0.00     0.013 C 
HETATM   20  C   UNK N   1      -3.406   3.930   0.386  0.00  0.00     0.037 C 
HETATM   21  C   UNK N   1      -3.451   5.397   0.830  0.00  0.00     0.273 C 
HETATM   22  N   UNK N   1      -2.653   6.221  -0.084  0.00  0.00     0.091 N 
HETATM   23  C   UNK N   1      -1.254   5.817   0.002  0.00  0.00     0.273 C 
HETATM   24  C   UNK N   1      -1.108   4.390  -0.498  0.00  0.00     0.037 C 
BRANCH  22  25
HETATM   25  C   UNK N   1      -2.699   7.615   0.337  0.00  0.00     0.310 C 
BRANCH  25  26
HETATM   26  C   UNK N   1      -3.908   8.348  -0.237  0.00  0.00     0.088 C 
HETATM   27  C   UNK N   1      -5.172   7.995   0.553  0.00  0.00     0.066 C 
HETATM   28  C   UNK N   1      -6.310   8.929   0.131  0.00  0.00     0.170 C 
HETATM   29  O   UNK N   1      -5.952  10.263   0.403  0.00  0.00    -0.391 OA
HETATM   30  C   UNK N   1      -4.935  10.603  -0.508  0.00  0.00     0.170 C 
HETATM   31  C   UNK N   1      -3.653   9.853  -0.137  0.00  0.00     0.066 C 
BRANCH  26  32
HETATM   32  O   UNK N   1      -4.077   8.003  -1.582  0.00  0.00    -0.388 OA
HETATM   33  H   UNK N   1      -4.342   7.985  -2.515  0.00  0.00     0.210 HD
ENDBRANCH  26  32
ENDBRANCH  25  26
ENDBRANCH  22  25
ENDBRANCH  18  19
ENDBRANCH   1  18
TORSDOF 8
