REMARK  12 active torsions:
REMARK  status: ('A' for Active; 'I' for Inactive)
REMARK    1  A    between atoms: C_2  and  C_1 
REMARK    2  A    between atoms: C_11  and  C_1 
REMARK    3  A    between atoms: C_12  and  C_2 
REMARK    4  A    between atoms: C_8  and  C_7 
REMARK    5  A    between atoms: C_15  and  C_7 
REMARK    6  A    between atoms: C_16  and  C_8 
REMARK    7  A    between atoms: C_18  and  C_13 
REMARK    8  A    between atoms: C_20  and  C_15 
REMARK    9  A    between atoms: C_15  and  N_25 
REMARK   10  A    between atoms: O_30  and  C_16 
REMARK       I    between atoms: N_25  and  C_18 
REMARK   11  A    between atoms: O_32  and  C_19 
REMARK   12  A    between atoms: O_34  and  C_20 
REMARK       I    between atoms: N_22  and  C_21 
ROOT
HETATM    1  C   UNK N   1      -3.195  -0.784   0.198  0.00  0.00     0.008 A 
HETATM    2  C   UNK N   1      -3.483  -2.789   1.513  0.00  0.00     0.008 A 
HETATM    3  C   UNK N   1      -4.222  -1.181  -0.644  0.00  0.00     0.017 A 
HETATM    4  C   UNK N   1      -4.553  -3.163   0.689  0.00  0.00     0.017 A 
HETATM    5  C   UNK N   1      -2.793  -1.602   1.250  0.00  0.00    -0.058 A 
HETATM    6  C   UNK N   1      -4.909  -2.377  -0.417  0.00  0.00     0.032 A 
ENDROOT
BRANCH   5   7
HETATM    7  C   UNK N   1      -1.528  -1.275   1.962  0.00  0.00     0.039 C 
BRANCH   7   8
HETATM    8  C   UNK N   1      -0.296  -1.842   1.223  0.00  0.00     0.011 C 
BRANCH   8   9
HETATM    9  C   UNK N   1      -0.252  -1.667  -0.317  0.00  0.00     0.008 C 
HETATM   10  C   UNK N   1      -0.497  -0.220  -0.767  0.00  0.00     0.053 C 
HETATM   11  C   UNK N   1       0.583   0.682  -0.265  0.00  0.00     0.038 A 
HETATM   12  C   UNK N   1       1.879   0.182  -0.102  0.00  0.00     0.127 A 
HETATM   13  C   UNK N   1       0.330   2.016   0.058  0.00  0.00     0.165 A 
HETATM   14  N   UNK N   1       2.161  -1.180  -0.398  0.00  0.00    -0.375 N 
HETATM   15  N   UNK N   1       2.858   0.994   0.373  0.00  0.00    -0.176 N 
HETATM   16  C   UNK N   1       1.122  -2.096  -0.840  0.00  0.00     0.126 C 
HETATM   17  H   UNK N   1       3.083  -1.511  -0.302  0.00  0.00     0.161 HD
HETATM   18  C   UNK N   1       2.593   2.290   0.688  0.00  0.00     0.679 A 
HETATM   19  H   UNK N   1       3.769   0.640   0.490  0.00  0.00     0.186 HD
HETATM   20  N   UNK N   1       3.525   3.036   1.144  0.00  0.00    -0.234 N 
HETATM   21  N   UNK N   1       1.339   2.793   0.529  0.00  0.00    -0.170 N 
HETATM   22  H   UNK N   1       4.382   2.702   1.495  0.00  0.00     0.174 HD
ATOM     23  HN  UNK N   1       3.371   4.045   1.144  1.00  0.00     0.174 HD
ATOM     24  HN  UNK N   1       1.155   3.768   0.767  1.00  0.00     0.186 HD
BRANCH  13  25
HETATM   25  O   UNK N   1      -0.903   2.535  -0.087  0.00  0.00    -0.345 OA
HETATM   26  H   UNK N   1      -1.019   3.459  -0.188  0.00  0.00     0.219 HD
ENDBRANCH  13  25
ENDBRANCH   8   9
ENDBRANCH   7   8
ENDBRANCH   5   7
BRANCH   6  27
HETATM   27  C   UNK N   1      -5.839  -2.860  -1.472  0.00  0.00     0.252 C 
HETATM   28  N   UNK N   1      -6.907  -3.684  -1.268  0.00  0.00    -0.343 N 
HETATM   29  H   UNK N   1      -7.262  -4.114  -2.080  0.00  0.00     0.163 HD
HETATM   30  O   UNK N   1      -5.625  -2.488  -2.616  0.00  0.00    -0.268 OA
BRANCH  28  31
HETATM   31  C   UNK N   1      -7.602  -4.027  -0.038  0.00  0.00     0.183 C 
BRANCH  31  32
HETATM   32  C   UNK N   1      -7.706  -2.843   0.933  0.00  0.00     0.046 C 
BRANCH  32  33
HETATM   33  C   UNK N   1      -8.413  -1.644   0.285  0.00  0.00     0.112 C 
BRANCH  33  34
HETATM   34  C   UNK N   1      -9.907  -1.798   0.175  0.00  0.00     0.139 C 
HETATM   35  O   UNK N   1     -10.478  -2.767   0.654  0.00  0.00    -0.650 OA
BRANCH  34  36
HETATM   36  O   UNK N   1     -10.626  -0.851  -0.455  0.00  0.00    -0.776 OA
HETATM   37  H   UNK N   1     -10.305  -0.088  -0.894  0.00  0.00     0.167 HD
ENDBRANCH  34  36
ENDBRANCH  33  34
ENDBRANCH  32  33
ENDBRANCH  31  32
BRANCH  31  38
HETATM   38  C   UNK N   1      -7.121  -5.302   0.606  0.00  0.00     0.163 C 
HETATM   39  O   UNK N   1      -6.011  -5.385   1.098  0.00  0.00    -0.648 OA
BRANCH  38  40
HETATM   40  O   UNK N   1      -7.948  -6.363   0.667  0.00  0.00    -0.775 OA
HETATM   41  H   UNK N   1      -8.875  -6.234   0.710  0.00  0.00     0.167 HD
ENDBRANCH  38  40
ENDBRANCH  31  38
ENDBRANCH  28  31
ENDBRANCH   6  27
TORSDOF 12
