REMARK  7 active torsions:
REMARK  status: ('A' for Active; 'I' for Inactive)
REMARK    1  A    between atoms: N_20  and  C_3 
REMARK    2  A    between atoms: C_9  and  C_8 
REMARK    3  A    between atoms: N_18  and  C_8 
REMARK    4  A    between atoms: C_15  and  C_12 
REMARK    5  A    between atoms: O_21  and  C_13 
REMARK    6  A    between atoms: O_23  and  C_14 
REMARK    7  A    between atoms: O_22  and  C_15 
ROOT
HETATM    1  C   UNK N   1       4.730   3.521  -0.198  0.00  0.00     0.152 C 
HETATM    2  N   UNK N   1       4.717   2.247  -0.387  0.00  0.00    -0.368 N 
ATOM      3  HN  UNK N   1       3.828   1.752  -0.316  1.00  0.00     0.161 HD
ENDROOT
BRANCH   1   4
HETATM    4  C   UNK N   1       3.433   4.278  -0.041  0.00  0.00     0.084 A 
HETATM    5  C   UNK N   1       2.194   3.579  -0.007  0.00  0.00     0.104 A 
HETATM    6  C   UNK N   1       0.989   4.280   0.084  0.00  0.00     0.070 A 
HETATM    7  C   UNK N   1       0.987   5.663   0.140  0.00  0.00     0.053 A 
HETATM    8 Cl   UNK N   1      -0.544   3.424   0.109  0.00  0.00    -0.081 Cl
HETATM    9  C   UNK N   1       2.174   6.388   0.115  0.00  0.00     0.070 A 
HETATM   10  C   UNK N   1       3.425   5.703   0.026  0.00  0.00     0.107 A 
HETATM   11 Cl   UNK N   1       1.996   8.138   0.176  0.00  0.00    -0.081 Cl
BRANCH   5  12
HETATM   12  O   UNK N   1       2.154   2.237  -0.067  0.00  0.00    -0.358 OA
HETATM   13  H   UNK N   1       1.329   1.793  -0.109  0.00  0.00     0.217 HD
ENDBRANCH   5  12
BRANCH  10  14
HETATM   14  O   UNK N   1       4.624   6.353  -0.014  0.00  0.00    -0.353 OA
HETATM   15  C   UNK N   1       4.844   7.708   0.032  0.00  0.00     0.210 C 
ENDBRANCH  10  14
ENDBRANCH   1   4
BRANCH   1  16
HETATM   16  O   UNK N   1       5.909   4.183  -0.221  0.00  0.00    -0.346 OA
HETATM   17  H   UNK N   1       6.715   3.705  -0.236  0.00  0.00     0.219 HD
ENDBRANCH   1  16
BRANCH   2  18
HETATM   18  C   UNK N   1       5.907   1.487  -0.696  0.00  0.00     0.157 C 
BRANCH  18  19
HETATM   19  C   UNK N   1       6.058   0.222   0.158  0.00  0.00     0.240 C 
HETATM   20  C   UNK N   1       6.991  -0.745  -0.535  0.00  0.00     0.039 C 
HETATM   21  C   UNK N   1       6.633  -2.082   0.068  0.00  0.00     0.032 C 
HETATM   22  C   UNK N   1       5.270  -1.878   0.721  0.00  0.00     0.273 C 
HETATM   23  N   UNK N   1       4.816  -0.519   0.425  0.00  0.00     0.094 N 
BRANCH  23  24
HETATM   24  C   UNK N   1       3.937  -0.609  -0.741  0.00  0.00     0.268 C 
HETATM   25  C   UNK N   1       2.511  -0.863  -0.284  0.00  0.00     0.037 C 
ENDBRANCH  23  24
ENDBRANCH  18  19
ENDBRANCH   2  18
TORSDOF 7
