REMARK  10 active torsions:
REMARK  status: ('A' for Active; 'I' for Inactive)
REMARK    1  A    between atoms: C_2  and  N_5 
REMARK    2  A    between atoms: N_5  and  C_6 
REMARK    3  A    between atoms: C_6  and  C_7 
REMARK    4  A    between atoms: C_7  and  S_8 
REMARK    5  A    between atoms: S_8  and  C_9 
REMARK    6  A    between atoms: C_9  and  C_10 
REMARK    7  A    between atoms: C_10  and  C_11 
REMARK    8  A    between atoms: C_11  and  C_12 
REMARK    9  A    between atoms: C_11  and  N_15 
REMARK   10  A    between atoms: C_12  and  O_14 
ROOT
HETATM    1  S   UNK N   1       6.831   2.861   0.944  0.00  0.00    -0.167 SA
ENDROOT
BRANCH   1   2
HETATM    2  C   UNK N   1       6.440   4.559   0.403  0.00  0.00     0.093 C 
BRANCH   2   3
HETATM    3  C   UNK N   1       4.944   4.795   0.258  0.00  0.00     0.131 C 
BRANCH   3   4
HETATM    4  N   UNK N   1       4.329   3.735  -0.498  0.00  0.00    -0.380 N 
HETATM    5  H   UNK N   1       4.691   3.500  -1.383  0.00  0.00     0.160 HD
BRANCH   4   6
HETATM    6  C   UNK N   1       3.212   3.022   0.008  0.00  0.00     0.066 C 
HETATM    7  C   UNK N   1       2.529   3.453   1.266  0.00  0.00     0.088 C 
HETATM    8  N   UNK N   1       2.779   1.996  -0.623  0.00  0.00    -0.389 N 
HETATM    9  H   UNK N   1       1.929   1.891  -1.109  0.00  0.00     0.157 HD
ATOM     10  HN  UNK N   1       3.394   1.182  -0.623  1.00  0.00     0.157 HD
ENDBRANCH   4   6
ENDBRANCH   3   4
ENDBRANCH   2   3
ENDBRANCH   1   2
BRANCH   1  11
HETATM   11  C   UNK N   1       8.287   2.788  -0.137  0.00  0.00     0.076 C 
BRANCH  11  12
HETATM   12  C   UNK N   1       9.418   3.531   0.549  0.00  0.00     0.045 C 
BRANCH  12  13
HETATM   13  C   UNK N   1      10.638   3.652  -0.345  0.00  0.00     0.174 C 
BRANCH  13  14
HETATM   14  C   UNK N   1      11.499   2.421  -0.237  0.00  0.00     0.163 C 
HETATM   15  O   UNK N   1      12.646   2.500   0.179  0.00  0.00    -0.648 OA
BRANCH  14  16
HETATM   16  O   UNK N   1      11.010   1.225  -0.611  0.00  0.00    -0.775 OA
HETATM   17  H   UNK N   1      10.118   1.102  -0.870  0.00  0.00     0.167 HD
ENDBRANCH  14  16
ENDBRANCH  13  14
BRANCH  13  18
HETATM   18  N   UNK N   1      11.381   4.838   0.048  0.00  0.00    -0.418 N 
HETATM   19  H   UNK N   1      12.363   4.803   0.323  0.00  0.00     0.150 HD
HETATM   20  H   UNK N   1      10.904   5.740   0.048  0.00  0.00     0.150 HD
ENDBRANCH  13  18
ENDBRANCH  12  13
ENDBRANCH  11  12
ENDBRANCH   1  11
TORSDOF 10
