REMARK  10 active torsions:
REMARK  status: ('A' for Active; 'I' for Inactive)
REMARK    1  A    between atoms: C_6  and  C_7 
REMARK    2  A    between atoms: C_7  and  C_8 
REMARK    3  A    between atoms: C_8  and  O_9 
REMARK    4  A    between atoms: O_9  and  C_10 
REMARK    5  A    between atoms: C_13  and  N_31 
REMARK    6  A    between atoms: C_22  and  N_18 
REMARK    7  A    between atoms: C_23  and  O_30 
REMARK    8  A    between atoms: C_24  and  O_29 
REMARK    9  A    between atoms: C_25  and  C_27 
REMARK   10  A    between atoms: C_27  and  O_28 
ROOT
HETATM    1  C   UNK N   1       3.398   2.037  -0.236  0.00  0.00     0.226 A 
HETATM    2  N   UNK N   1       3.560   0.679  -0.424  0.00  0.00    -0.306 N 
ATOM      3  HN  UNK N   1       4.486   0.309  -0.636  1.00  0.00     0.171 HD
HETATM    4  C   UNK N   1       2.497  -0.178  -0.330  0.00  0.00     0.133 A 
HETATM    5  C   UNK N   1       1.252   0.362  -0.046  0.00  0.00     0.122 A 
HETATM    6  C   UNK N   1       1.120   1.687   0.145  0.00  0.00     0.144 A 
HETATM    7  N   UNK N   1       2.165   2.542   0.061  0.00  0.00    -0.306 N 
ATOM      8  HN  UNK N   1       2.034   3.542   0.217  1.00  0.00     0.171 HD
HETATM    9  N   UNK N   1      -0.157   1.977   0.422  0.00  0.00    -0.297 N 
HETATM   10  C   UNK N   1      -0.804   0.782   0.386  0.00  0.00     0.188 A 
HETATM   11  N   UNK N   1       0.054  -0.239   0.096  0.00  0.00    -0.346 N 
ATOM     12  HN  UNK N   1      -0.162  -1.232   0.006  1.00  0.00     0.167 HD
ENDROOT
BRANCH   9  13
HETATM   13  C   UNK N   1      -0.736   3.284   0.748  0.00  0.00     0.262 C 
HETATM   14  C   UNK N   1      -1.791   3.703  -0.253  0.00  0.00     0.198 C 
HETATM   15  C   UNK N   1      -1.744   5.176  -0.051  0.00  0.00     0.182 C 
HETATM   16  C   UNK N   1      -0.247   5.352   0.002  0.00  0.00     0.179 C 
HETATM   17  O   UNK N   1       0.254   4.294   0.781  0.00  0.00    -0.353 OA
BRANCH  14  18
HETATM   18  O   UNK N   1      -3.042   3.188   0.083  0.00  0.00    -0.388 OA
HETATM   19  H   UNK N   1      -3.788   3.762   0.318  0.00  0.00     0.210 HD
ENDBRANCH  14  18
BRANCH  15  20
HETATM   20  O   UNK N   1      -2.309   5.859  -1.128  0.00  0.00    -0.390 OA
HETATM   21  H   UNK N   1      -2.094   6.438  -1.876  0.00  0.00     0.210 HD
ENDBRANCH  15  20
BRANCH  16  22
HETATM   22  C   UNK N   1       0.147   6.685   0.617  0.00  0.00     0.198 C 
BRANCH  22  23
HETATM   23  O   UNK N   1      -0.133   7.726  -0.267  0.00  0.00    -0.398 OA
HETATM   24  H   UNK N   1       0.397   8.257  -0.882  0.00  0.00     0.209 HD
ENDBRANCH  22  23
ENDBRANCH  16  22
ENDBRANCH   9  13
BRANCH   4  25
HETATM   25  N   UNK N   1       2.673  -1.564  -0.514  0.00  0.00    -0.383 N 
HETATM   26  H   UNK N   1       1.896  -2.154  -0.642  0.00  0.00     0.157 HD
HETATM   27  H   UNK N   1       3.581  -1.945  -0.514  0.00  0.00     0.157 HD
ENDBRANCH   4  25
BRANCH   1  28
HETATM   28  O   UNK N   1       4.441   2.887  -0.353  0.00  0.00    -0.322 OA
BRANCH  28  29
HETATM   29  C   UNK N   1       5.692   2.466  -0.727  0.00  0.00     0.183 C 
BRANCH  29  30
HETATM   30  C   UNK N   1       6.692   2.808   0.360  0.00  0.00     0.065 C 
BRANCH  30  31
HETATM   31  C   UNK N   1       7.882   1.923   0.238  0.00  0.00    -0.056 A 
HETATM   32  C   UNK N   1       7.738   0.536   0.373  0.00  0.00     0.009 A 
HETATM   33  C   UNK N   1       8.850  -0.299   0.257  0.00  0.00     0.024 A 
HETATM   34  C   UNK N   1      10.111   0.250   0.012  0.00  0.00     0.034 A 
HETATM   35  C   UNK N   1      10.260   1.635  -0.118  0.00  0.00     0.024 A 
HETATM   36 Cl   UNK N   1      11.503  -0.800  -0.130  0.00  0.00    -0.084 Cl
HETATM   37  C   UNK N   1       9.145   2.472  -0.005  0.00  0.00     0.009 A 
ENDBRANCH  30  31
ENDBRANCH  29  30
ENDBRANCH  28  29
ENDBRANCH   1  28
TORSDOF 10
