REMARK  8 active torsions:
REMARK  status: ('A' for Active; 'I' for Inactive)
REMARK    1  A    between atoms: C_2  and  C_4 
REMARK    2  A    between atoms: C_4  and  C_5 
REMARK    3  A    between atoms: C_4  and  C_23 
REMARK    4  A    between atoms: C_4  and  O_29 
REMARK    5  A    between atoms: C_10  and  O_19 
REMARK    6  A    between atoms: C_11  and  O_15 
REMARK    7  A    between atoms: O_15  and  C_16 
REMARK    8  A    between atoms: O_19  and  C_20 
ROOT
HETATM    1  C   UNK N   1      -0.055  -1.530  -0.831  0.00  0.00    -0.017 A 
HETATM    2  C   UNK N   1       0.005  -0.315  -1.540  0.00  0.00     0.011 A 
HETATM    3  C   UNK N   1       1.203   0.386  -1.651  0.00  0.00     0.013 A 
HETATM    4  C   UNK N   1       2.359  -0.125  -1.068  0.00  0.00    -0.023 A 
HETATM    5  C   UNK N   1       3.528   0.625  -1.077  0.00  0.00     0.052 A 
HETATM    6  C   UNK N   1       4.698   0.134  -0.475  0.00  0.00     0.109 A 
HETATM    7  C   UNK N   1       4.696  -1.168   0.090  0.00  0.00     0.109 A 
HETATM    8  C   UNK N   1       3.502  -1.898   0.130  0.00  0.00     0.052 A 
HETATM    9  C   UNK N   1       2.334  -1.377  -0.425  0.00  0.00    -0.022 A 
HETATM   10  C   UNK N   1       1.130  -2.070  -0.303  0.00  0.00     0.023 A 
ENDROOT
BRANCH   1  11
HETATM   11  C   UNK N   1      -1.419  -2.140  -0.546  0.00  0.00     0.132 C 
BRANCH  11  12
HETATM   12  C   UNK N   1      -1.403  -3.419   0.341  0.00  0.00     0.023 C 
HETATM   13  C   UNK N   1      -0.812  -3.225   1.733  0.00  0.00     0.013 C 
HETATM   14  C   UNK N   1      -0.722  -4.599  -0.335  0.00  0.00     0.013 C 
ENDBRANCH  11  12
BRANCH  11  15
HETATM   15  C   UNK N   1      -2.232  -1.055   0.134  0.00  0.00     0.080 A 
HETATM   16  C   UNK N   1      -1.920  -0.398   1.309  0.00  0.00     0.134 A 
HETATM   17  N   UNK N   1      -2.866   0.544   1.482  0.00  0.00    -0.293 N 
HETATM   18  N   UNK N   1      -3.707   0.465   0.460  0.00  0.00    -0.023 NA
ATOM     19  HN  UNK N   1      -2.925   1.200   2.261  1.00  0.00     0.183 HD
HETATM   20  N   UNK N   1      -3.342  -0.494  -0.374  0.00  0.00    -0.284 N 
HETATM   21  H   UNK N   1      -3.797  -0.749  -1.209  0.00  0.00     0.184 HD
ENDBRANCH  11  15
BRANCH  11  22
HETATM   22  O   UNK N   1      -2.029  -2.465  -1.762  0.00  0.00    -0.378 OA
HETATM   23  H   UNK N   1      -2.436  -2.211  -2.606  0.00  0.00     0.211 HD
ENDBRANCH  11  22
ENDBRANCH   1  11
BRANCH   7  24
HETATM   24  O   UNK N   1       5.803  -1.737   0.627  0.00  0.00    -0.287 OA
BRANCH  24  25
HETATM   25  C   UNK N   1       7.087  -1.413   0.251  0.00  0.00     0.505 C 
HETATM   26  F   UNK N   1       7.776  -0.880   1.321  0.00  0.00    -0.184 F 
HETATM   27  F   UNK N   1       7.729  -2.554  -0.194  0.00  0.00    -0.184 F 
ENDBRANCH  24  25
ENDBRANCH   7  24
BRANCH   6  28
HETATM   28  O   UNK N   1       5.800   0.920  -0.379  0.00  0.00    -0.287 OA
BRANCH  28  29
HETATM   29  C   UNK N   1       5.792   2.278  -0.638  0.00  0.00     0.505 C 
HETATM   30  F   UNK N   1       4.854   2.909   0.166  0.00  0.00    -0.184 F 
HETATM   31  F   UNK N   1       7.037   2.801  -0.349  0.00  0.00    -0.184 F 
ENDBRANCH  28  29
ENDBRANCH   6  28
TORSDOF 8
