REMARK  11 active torsions:
REMARK  status: ('A' for Active; 'I' for Inactive)
REMARK    1  A    between atoms: C_4  and  O_30 
REMARK    2  A    between atoms: C_7  and  C_8 
REMARK    3  A    between atoms: C_12  and  C_14 
REMARK    4  A    between atoms: C_14  and  O_15 
REMARK    5  A    between atoms: O_15  and  C_16 
REMARK    6  A    between atoms: C_24  and  C_25 
REMARK    7  A    between atoms: C_25  and  C_26 
REMARK    8  A    between atoms: C_26  and  O_28 
REMARK    9  A    between atoms: O_30  and  C_31 
REMARK   10  A    between atoms: C_31  and  C_32 
REMARK   11  A    between atoms: C_32  and  C_33 
ROOT
HETATM    1  C   UNK N   1       6.941   4.608  -0.204  0.00  0.00    -0.024 A 
HETATM    2  C   UNK N   1       8.329   4.385  -0.129  0.00  0.00     0.012 A 
HETATM    3  C   UNK N   1       8.856   3.089  -0.075  0.00  0.00     0.002 A 
HETATM    4  C   UNK N   1       8.002   1.984  -0.081  0.00  0.00     0.009 A 
HETATM    5  C   UNK N   1       6.625   2.179  -0.165  0.00  0.00    -0.033 A 
HETATM    6  C   UNK N   1       6.115   3.481  -0.223  0.00  0.00     0.021 A 
ENDROOT
BRANCH   1   7
HETATM    7  C   UNK N   1       6.346   6.009  -0.181  0.00  0.00    -0.014 A 
HETATM    8  C   UNK N   1       7.178   7.173  -0.235  0.00  0.00    -0.048 A 
HETATM    9  C   UNK N   1       6.617   8.444  -0.139  0.00  0.00     0.044 A 
HETATM   10  C   UNK N   1       8.661   7.126  -0.388  0.00  0.00     0.049 C 
HETATM   11  C   UNK N   1       5.243   8.624  -0.006  0.00  0.00     0.069 A 
HETATM   12  C   UNK N   1       4.410   7.517  -0.000  0.00  0.00     0.044 A 
HETATM   13  C   UNK N   1       4.927   6.223  -0.075  0.00  0.00    -0.048 A 
HETATM   14  C   UNK N   1       3.919   5.125   0.003  0.00  0.00     0.049 C 
BRANCH  11  15
HETATM   15  O   UNK N   1       4.706   9.859   0.127  0.00  0.00    -0.351 OA
BRANCH  15  16
HETATM   16  C   UNK N   1       5.054  10.740   1.140  0.00  0.00     0.176 C 
BRANCH  16  17
HETATM   17  C   UNK N   1       6.549  11.021   1.240  0.00  0.00     0.041 C 
BRANCH  17  18
HETATM   18  C   UNK N   1       7.054  11.729  -0.013  0.00  0.00     0.142 A 
HETATM   19  S   UNK N   1       7.694  13.373   0.423  0.00  0.00     0.140 S 
HETATM   20  O   UNK N   1       8.152  14.157  -0.814  0.00  0.00    -0.228 OA
HETATM   21  O   UNK N   1       8.965  12.541   0.191  0.00  0.00    -0.228 OA
HETATM   22  C   UNK N   1       6.520  13.019  -0.921  0.00  0.00     0.161 A 
ENDBRANCH  17  18
ENDBRANCH  16  17
ENDBRANCH  15  16
ENDBRANCH  11  15
ENDBRANCH   1   7
BRANCH   5  23
HETATM   23  C   UNK N   1       5.684   1.019  -0.096  0.00  0.00     0.214 C 
BRANCH  23  24
HETATM   24  O   UNK N   1       4.522   1.456   0.500  0.00  0.00    -0.347 OA
BRANCH  24  25
HETATM   25  C   UNK N   1       3.292   0.978   0.233  0.00  0.00     0.071 A 
HETATM   26  C   UNK N   1       3.093  -0.308  -0.321  0.00  0.00     0.037 A 
HETATM   27  C   UNK N   1       1.787  -0.765  -0.579  0.00  0.00     0.013 A 
HETATM   28  C   UNK N   1       0.720   0.089  -0.297  0.00  0.00    -0.018 A 
HETATM   29  C   UNK N   1       0.917   1.323   0.218  0.00  0.00     0.078 A 
HETATM   30  C   UNK N   1      -0.730  -0.149  -0.481  0.00  0.00     0.055 A 
HETATM   31  C   UNK N   1       2.190   1.800   0.509  0.00  0.00     0.074 A 
HETATM   32  O   UNK N   1      -0.220   1.983   0.397  0.00  0.00    -0.350 OA
HETATM   33  C   UNK N   1      -1.308   1.222  -0.010  0.00  0.00     0.185 A 
BRANCH  30  34
HETATM   34  C   UNK N   1      -1.185  -1.252   0.464  0.00  0.00     0.121 C 
BRANCH  34  35
HETATM   35  C   UNK N   1      -2.540  -1.759   0.095  0.00  0.00     0.140 C 
HETATM   36  O   UNK N   1      -2.691  -2.941  -0.162  0.00  0.00    -0.650 OA
BRANCH  35  37
HETATM   37  O   UNK N   1      -3.595  -0.924   0.056  0.00  0.00    -0.776 OA
HETATM   38  H   UNK N   1      -3.459   0.003   0.029  0.00  0.00     0.167 HD
ENDBRANCH  35  37
ENDBRANCH  34  35
ENDBRANCH  30  34
ENDBRANCH  24  25
ENDBRANCH  23  24
ENDBRANCH   5  23
TORSDOF 11
