REMARK  15 active torsions:
REMARK  status: ('A' for Active; 'I' for Inactive)
REMARK    1  A    between atoms: C_2  and  O_4 
REMARK    2  A    between atoms: O_4  and  P_5 
REMARK    3  A    between atoms: P_5  and  C_7 
REMARK    4  A    between atoms: P_5  and  O_34 
REMARK    5  A    between atoms: C_7  and  C_8 
REMARK    6  A    between atoms: C_7  and  P_24 
REMARK    7  A    between atoms: C_8  and  C_9 
REMARK    8  A    between atoms: C_11  and  C_20 
REMARK    9  A    between atoms: C_12  and  O_19 
REMARK   10  A    between atoms: C_13  and  C_15 
REMARK   11  A    between atoms: P_24  and  O_26 
REMARK   12  A    between atoms: P_24  and  O_30 
REMARK   13  A    between atoms: O_26  and  C_27 
REMARK   14  A    between atoms: O_30  and  C_31 
REMARK   15  A    between atoms: O_34  and  C_35 
ROOT
HETATM    1  C   UNK N   1       0.025   2.755   0.338  0.00  0.00     0.226 C 
ENDROOT
BRANCH   1   2
HETATM    2  P   UNK N   1      -1.748   2.673  -0.270  0.00  0.00     0.345 P 
HETATM    3  O   UNK N   1      -1.643   2.835  -1.811  0.00  0.00    -0.258 OA
BRANCH   2   4
HETATM    4  O   UNK N   1      -2.519   1.106  -0.162  0.00  0.00    -0.309 OA
BRANCH   4   5
HETATM    5  C   UNK N   1      -2.848   0.907   1.186  0.00  0.00     0.123 C 
HETATM    6  C   UNK N   1      -1.708   0.273   1.961  0.00  0.00     0.040 C 
HETATM    7  C   UNK N   1      -4.090   0.045   1.282  0.00  0.00     0.040 C 
ENDBRANCH   4   5
ENDBRANCH   2   4
BRANCH   2   8
HETATM    8  O   UNK N   1      -2.835   4.003   0.083  0.00  0.00    -0.309 OA
BRANCH   8   9
HETATM    9  C   UNK N   1      -3.797   3.588   0.999  0.00  0.00     0.123 C 
HETATM   10  C   UNK N   1      -3.968   4.652   2.062  0.00  0.00     0.040 C 
HETATM   11  C   UNK N   1      -5.116   3.371   0.283  0.00  0.00     0.040 C 
ENDBRANCH   8   9
ENDBRANCH   2   8
ENDBRANCH   1   2
BRANCH   1  12
HETATM   12  C   UNK N   1       0.964   2.167  -0.714  0.00  0.00     0.067 C 
BRANCH  12  13
HETATM   13  C   UNK N   1       1.197   0.691  -0.601  0.00  0.00    -0.055 A 
HETATM   14  C   UNK N   1       2.498   0.235  -0.425  0.00  0.00     0.018 A 
HETATM   15  C   UNK N   1       2.789  -1.139  -0.374  0.00  0.00    -0.016 A 
HETATM   16  C   UNK N   1       1.728  -2.067  -0.502  0.00  0.00     0.079 A 
HETATM   17  C   UNK N   1       0.391  -1.619  -0.686  0.00  0.00    -0.016 A 
HETATM   18  C   UNK N   1       0.156  -0.228  -0.742  0.00  0.00     0.018 A 
BRANCH  15  19
HETATM   19  C   UNK N   1       4.231  -1.606  -0.204  0.00  0.00    -0.021 C 
HETATM   20  C   UNK N   1       4.654  -2.427  -1.411  0.00  0.00     0.019 C 
HETATM   21  C   UNK N   1       4.368  -2.460   1.045  0.00  0.00     0.019 C 
HETATM   22  C   UNK N   1       5.218  -0.452  -0.075  0.00  0.00     0.019 C 
ENDBRANCH  15  19
BRANCH  16  23
HETATM   23  O   UNK N   1       2.011  -3.386  -0.454  0.00  0.00    -0.360 OA
HETATM   24  H   UNK N   1       1.316  -4.014  -0.422  0.00  0.00     0.217 HD
ENDBRANCH  16  23
BRANCH  17  25
HETATM   25  C   UNK N   1      -0.817  -2.552  -0.849  0.00  0.00    -0.021 C 
HETATM   26  C   UNK N   1      -1.847  -2.265   0.224  0.00  0.00     0.019 C 
HETATM   27  C   UNK N   1      -1.463  -2.309  -2.201  0.00  0.00     0.019 C 
HETATM   28  C   UNK N   1      -0.521  -4.040  -0.761  0.00  0.00     0.019 C 
ENDBRANCH  17  25
ENDBRANCH  12  13
ENDBRANCH   1  12
BRANCH   1  29
HETATM   29  P   UNK N   1       0.515   4.521   0.690  0.00  0.00     0.345 P 
HETATM   30  O   UNK N   1      -0.231   4.992   1.971  0.00  0.00    -0.258 OA
BRANCH  29  31
HETATM   31  O   UNK N   1       0.180   5.742  -0.526  0.00  0.00    -0.309 OA
BRANCH  31  32
HETATM   32  C   UNK N   1      -1.077   6.290  -0.248  0.00  0.00     0.123 C 
HETATM   33  C   UNK N   1      -0.923   7.638   0.428  0.00  0.00     0.040 C 
HETATM   34  C   UNK N   1      -1.858   6.450  -1.535  0.00  0.00     0.040 C 
ENDBRANCH  31  32
ENDBRANCH  29  31
BRANCH  29  35
HETATM   35  O   UNK N   1       2.184   4.707   1.170  0.00  0.00    -0.309 OA
BRANCH  35  36
HETATM   36  C   UNK N   1       2.868   5.165   0.040  0.00  0.00     0.123 C 
HETATM   37  C   UNK N   1       4.159   4.392  -0.130  0.00  0.00     0.040 C 
HETATM   38  C   UNK N   1       3.175   6.643   0.188  0.00  0.00     0.040 C 
ENDBRANCH  35  36
ENDBRANCH  29  35
ENDBRANCH   1  29
TORSDOF 15
