REMARK  1 active torsions:
REMARK  status: ('A' for Active; 'I' for Inactive)
REMARK    1  A    between atoms: C_7  and  C_6 
ROOT
HETATM    1  C   UNK N   1       2.537   6.248  -0.000  0.00  0.00     0.104 A 
HETATM    2  C   UNK N   1       1.300   5.603  -0.000  0.00  0.00     0.105 A 
HETATM    3  C   UNK N   1       3.629   4.155  -0.000  0.00  0.00     0.118 A 
HETATM    4  C   UNK N   1       2.393   3.499  -0.000  0.00  0.00     0.066 A 
HETATM    5  N   UNK N   1       3.677   5.512  -0.000  0.00  0.00    -0.372 N 
ATOM      6  HN  UNK N   1       4.581   5.984  -0.000  1.00  0.00     0.164 HD
HETATM    7  N   UNK N   1       1.254   4.244   0.000  0.00  0.00    -0.362 N 
ATOM      8  HN  UNK N   1       0.349   3.774   0.000  1.00  0.00     0.165 HD
ENDROOT
BRANCH   4   9
HETATM    9  C   UNK N   1       2.306   2.020   0.000  0.00  0.00     0.048 A 
HETATM   10  C   UNK N   1       3.420   1.093   0.000  0.00  0.00    -0.013 A 
HETATM   11  C   UNK N   1       4.845   1.562  -0.000  0.00  0.00     0.052 C 
HETATM   12  C   UNK N   1       3.104  -0.313   0.000  0.00  0.00     0.086 A 
HETATM   13  S   UNK N   1       4.078  -1.367   0.000  0.00  0.00    -0.071 SA
HETATM   14  S   UNK N   1       1.447  -0.616   0.000  0.00  0.00    -0.040 SA
HETATM   15  S   UNK N   1       0.813   1.213   0.000  0.00  0.00    -0.049 SA
ENDBRANCH   4   9
TORSDOF 1
