REMARK  11 active torsions:
REMARK  status: ('A' for Active; 'I' for Inactive)
REMARK    1  A    between atoms: O_2  and  N_3 
REMARK    2  A    between atoms: C_5  and  C_6 
REMARK    3  A    between atoms: C_5  and  N_35 
REMARK    4  A    between atoms: C_9  and  C_12 
REMARK    5  A    between atoms: C_12  and  N_13 
REMARK       I    between atoms: N_13  and  C_14 
REMARK    6  A    between atoms: C_16  and  C_14 
REMARK       I    between atoms: N_19  and  C_20 
REMARK    7  A    between atoms: C_20  and  C_22 
REMARK    8  A    between atoms: C_22  and  C_23 
REMARK    9  A    between atoms: C_22  and  O_34 
REMARK   10  A    between atoms: C_25  and  O_30 
REMARK   11  A    between atoms: O_30  and  C_31 
ROOT
HETATM    1  C   UNK N   1       2.326  -2.588   0.522  0.00  0.00     0.180 A 
HETATM    2  C   UNK N   1       2.874  -2.899   1.952  0.00  0.00     0.055 A 
HETATM    3  C   UNK N   1       2.117  -4.258   1.886  0.00  0.00     0.129 A 
HETATM    4  N   UNK N   1       1.759  -3.875   0.574  0.00  0.00    -0.336 N 
HETATM    5  C   UNK N   1       0.902  -4.447  -0.303  0.00  0.00     0.254 C 
HETATM    6  O   UNK N   1       0.748  -3.962  -1.419  0.00  0.00    -0.270 OA
ENDROOT
BRANCH   1   7
HETATM    7  C   UNK N   1       1.160  -1.602   0.611  0.00  0.00     0.240 C 
HETATM    8  N   UNK N   1       0.819  -0.812  -0.434  0.00  0.00    -0.355 N 
HETATM    9  H   UNK N   1      -0.003  -0.274  -0.373  0.00  0.00     0.162 HD
HETATM   10  O   UNK N   1       0.470  -1.569   1.621  0.00  0.00    -0.271 OA
BRANCH   8  11
HETATM   11  C   UNK N   1       1.615  -0.730  -1.631  0.00  0.00     0.161 C 
BRANCH  11  12
HETATM   12  C   UNK N   1       2.857   0.018  -1.306  0.00  0.00    -0.040 A 
HETATM   13  C   UNK N   1       4.097  -0.614  -1.395  0.00  0.00     0.010 A 
HETATM   14  C   UNK N   1       5.255   0.074  -1.026  0.00  0.00     0.016 A 
HETATM   15  C   UNK N   1       5.184   1.397  -0.560  0.00  0.00     0.009 A 
HETATM   16  C   UNK N   1       3.927   2.015  -0.470  0.00  0.00     0.016 A 
HETATM   17  C   UNK N   1       2.771   1.331  -0.836  0.00  0.00     0.010 A 
BRANCH  15  18
HETATM   18  C   UNK N   1       6.444   2.108  -0.191  0.00  0.00     0.129 C 
HETATM   19  N   UNK N   1       6.472   3.341   0.199  0.00  0.00    -0.251 N 
ATOM     20  HN  UNK N   1       7.374   3.760   0.429  1.00  0.00     0.196 HD
BRANCH  19  21
HETATM   21  O   UNK N   1       5.387   4.078   0.314  0.00  0.00    -0.284 OA
HETATM   22  C   UNK N   1       5.487   5.404   0.641  0.00  0.00     0.237 C 
ENDBRANCH  19  21
BRANCH  18  23
HETATM   23  N   UNK N   1       7.670   1.410  -0.296  0.00  0.00    -0.383 N 
HETATM   24  H   UNK N   1       7.676   0.429  -0.369  0.00  0.00     0.157 HD
HETATM   25  H   UNK N   1       8.519   1.908  -0.296  0.00  0.00     0.157 HD
ENDBRANCH  18  23
ENDBRANCH  15  18
ENDBRANCH  11  12
ENDBRANCH   8  11
ENDBRANCH   1   7
BRANCH   5  26
HETATM   26  C   UNK N   1      -0.024  -5.512   0.178  0.00  0.00     0.243 C 
BRANCH  26  27
HETATM   27  C   UNK N   1      -1.413  -4.913   0.192  0.00  0.00    -0.016 A 
HETATM   28  C   UNK N   1      -2.514  -5.602  -0.323  0.00  0.00     0.047 A 
HETATM   29  C   UNK N   1      -3.785  -5.020  -0.287  0.00  0.00     0.077 A 
HETATM   30  C   UNK N   1      -3.950  -3.715   0.207  0.00  0.00     0.060 A 
HETATM   31  C   UNK N   1      -2.848  -3.006   0.682  0.00  0.00     0.037 A 
HETATM   32  C   UNK N   1      -1.597  -3.613   0.701  0.00  0.00     0.034 A 
HETATM   33 Cl   UNK N   1      -3.020  -1.350   1.226  0.00  0.00    -0.084 Cl
BRANCH  29  34
HETATM   34  O   UNK N   1      -4.843  -5.744  -0.690  0.00  0.00    -0.290 OA
BRANCH  34  35
HETATM   35  C   UNK N   1      -5.942  -5.880   0.123  0.00  0.00     0.505 C 
HETATM   36  F   UNK N   1      -6.183  -7.227   0.316  0.00  0.00    -0.184 F 
HETATM   37  F   UNK N   1      -7.046  -5.278  -0.443  0.00  0.00    -0.184 F 
ENDBRANCH  34  35
ENDBRANCH  29  34
ENDBRANCH  26  27
BRANCH  26  38
HETATM   38  O   UNK N   1       0.056  -6.664  -0.609  0.00  0.00    -0.381 OA
HETATM   39  H   UNK N   1      -0.609  -7.112  -1.155  0.00  0.00     0.211 HD
ENDBRANCH  26  38
ENDBRANCH   5  26
TORSDOF 11
