REMARK  2 active torsions:
REMARK  status: ('A' for Active; 'I' for Inactive)
REMARK    1  A    between atoms: C_6  and  C_9 
REMARK    2  A    between atoms: C_9  and  C_11 
ROOT
HETATM    1  C   UNK N   1       1.690   4.302   0.497  0.00  0.00     0.066 C 
HETATM    2  C   UNK N   1       0.395   4.964   0.047  0.00  0.00     0.021 C 
ENDROOT
BRANCH   1   3
HETATM    3  C   UNK N   1       2.993   5.084   0.255  0.00  0.00    -0.042 A 
HETATM    4  C   UNK N   1       4.200   4.385   0.433  0.00  0.00     0.008 A 
HETATM    5  C   UNK N   1       5.435   5.003   0.265  0.00  0.00     0.001 A 
HETATM    6  C   UNK N   1       5.499   6.353  -0.056  0.00  0.00     0.007 A 
HETATM    7  C   UNK N   1       4.329   7.095  -0.211  0.00  0.00    -0.056 A 
HETATM    8  C   UNK N   1       4.453   8.551  -0.520  0.00  0.00     0.049 C 
HETATM    9  C   UNK N   1       3.066   6.478  -0.062  0.00  0.00    -0.049 A 
HETATM   10  C   UNK N   1       1.843   7.330  -0.212  0.00  0.00     0.049 C 
ENDBRANCH   1   3
BRANCH   1  11
HETATM   11  C   UNK N   1       1.676   2.850   0.071  0.00  0.00     0.035 A 
HETATM   12  C   UNK N   1       2.630   2.173  -0.671  0.00  0.00     0.116 A 
HETATM   13  N   UNK N   1       2.240   0.887  -0.778  0.00  0.00    -0.341 N 
HETATM   14  C   UNK N   1       1.074   0.820  -0.110  0.00  0.00     0.176 A 
HETATM   15  H   UNK N   1       2.706   0.156  -1.244  0.00  0.00     0.167 HD
HETATM   16  S   UNK N   1       0.314  -0.387   0.029  0.00  0.00    -0.041 SA
HETATM   17  N   UNK N   1       0.697   1.995   0.422  0.00  0.00    -0.335 N 
HETATM   18  H   UNK N   1      -0.112   2.187   0.950  0.00  0.00     0.168 HD
ENDBRANCH   1  11
TORSDOF 2
