REMARK  8 active torsions:
REMARK  status: ('A' for Active; 'I' for Inactive)
REMARK    1  A    between atoms: C_18  and  C_11 
REMARK    2  A    between atoms: O_29  and  C_11 
REMARK    3  A    between atoms: N_25  and  C_14 
REMARK    4  A    between atoms: O_29  and  C_15 
REMARK    5  A    between atoms: C_19  and  C_16 
REMARK    6  A    between atoms: C_18  and  C_17 
REMARK    7  A    between atoms: O_27  and  C_17 
REMARK    8  A    between atoms: C_18  and  O_28 
ROOT
HETATM    1  C   UNK N   1       5.834  -5.758  -0.310  0.00  0.00     0.025 C 
HETATM    2  C   UNK N   1       3.653  -6.287   0.626  0.00  0.00     0.025 C 
HETATM    3  C   UNK N   1       5.661  -4.435   0.038  0.00  0.00     0.038 C 
HETATM    4  C   UNK N   1       3.491  -4.973   0.996  0.00  0.00     0.038 C 
HETATM    5  C   UNK N   1       5.109  -8.059  -0.162  0.00  0.00     0.099 C 
HETATM    6  C   UNK N   1       4.847  -6.686   0.039  0.00  0.00     0.044 C 
HETATM    7  C   UNK N   1       4.510  -4.070   0.767  0.00  0.00     0.069 C 
HETATM    8  N   UNK N   1       5.426  -9.148  -0.370  0.00  0.00    -0.191 NA
ENDROOT
BRANCH   7   9
HETATM    9  O   UNK N   1       4.396  -2.870   1.329  0.00  0.00    -0.348 OA
BRANCH   9  10
HETATM   10  C   UNK N   1       5.306  -1.896   1.093  0.00  0.00     0.221 C 
BRANCH  10  11
HETATM   11  C   UNK N   1       5.164  -1.365  -0.328  0.00  0.00     0.140 C 
HETATM   12  C   UNK N   1       3.916  -1.779  -1.106  0.00  0.00     0.057 C 
BRANCH  11  13
HETATM   13  C   UNK N   1       5.124   0.080  -0.101  0.00  0.00     0.153 C 
HETATM   14  N   UNK N   1       6.132   0.763  -0.475  0.00  0.00    -0.338 N 
ATOM     15  HN  UNK N   1       6.871   0.271  -0.977  1.00  0.00     0.168 HD
BRANCH  14  16
HETATM   16  C   UNK N   1       6.306   2.128  -0.253  0.00  0.00     0.034 A 
HETATM   17  C   UNK N   1       5.227   3.017  -0.135  0.00  0.00     0.031 A 
HETATM   18  C   UNK N   1       5.482   4.373   0.007  0.00  0.00     0.026 A 
HETATM   19  C   UNK N   1       6.808   4.836   0.064  0.00  0.00     0.059 A 
HETATM   20  C   UNK N   1       7.009   6.254   0.142  0.00  0.00     0.100 C 
HETATM   21  C   UNK N   1       7.901   3.907   0.046  0.00  0.00     0.070 A 
HETATM   22  N   UNK N   1       7.198   7.393   0.205  0.00  0.00    -0.191 NA
HETATM   23  C   UNK N   1       7.611   2.569  -0.144  0.00  0.00     0.047 A 
BRANCH  21  24
HETATM   24  C   UNK N   1       9.376   4.264   0.184  0.00  0.00     0.419 C 
HETATM   25  F   UNK N   1       9.613   5.149   1.228  0.00  0.00    -0.166 F 
HETATM   26  F   UNK N   1       9.783   4.831  -1.000  0.00  0.00    -0.166 F 
HETATM   27  F   UNK N   1      10.146   3.117   0.413  0.00  0.00    -0.166 F 
ENDBRANCH  21  24
ENDBRANCH  14  16
BRANCH  13  28
HETATM   28  O   UNK N   1       4.118   0.630   0.623  0.00  0.00    -0.347 OA
HETATM   29  H   UNK N   1       4.100   1.422   1.124  0.00  0.00     0.219 HD
ENDBRANCH  13  28
ENDBRANCH  11  13
BRANCH  11  30
HETATM   30  O   UNK N   1       6.294  -1.735  -1.071  0.00  0.00    -0.380 OA
HETATM   31  H   UNK N   1       6.463  -2.539  -1.585  0.00  0.00     0.211 HD
ENDBRANCH  11  30
ENDBRANCH  10  11
ENDBRANCH   9  10
ENDBRANCH   7   9
TORSDOF 8
