REMARK  15 active torsions:
REMARK  status: ('A' for Active; 'I' for Inactive)
REMARK    1  A    between atoms: C_4  and  C_7 
REMARK    2  A    between atoms: C_7  and  C_8 
REMARK    3  A    between atoms: C_8  and  C_9 
REMARK    4  A    between atoms: C_8  and  N_21 
REMARK       I    between atoms: C_9  and  N_11 
REMARK    5  A    between atoms: N_11  and  C_12 
REMARK    6  A    between atoms: C_12  and  C_18 
REMARK       I    between atoms: C_18  and  N_20 
REMARK       I    between atoms: N_21  and  C_22 
REMARK    7  A    between atoms: C_22  and  C_24 
REMARK    8  A    between atoms: C_24  and  C_25 
REMARK    9  A    between atoms: C_24  and  N_35 
REMARK   10  A    between atoms: C_25  and  C_26 
REMARK       I    between atoms: N_35  and  C_36 
REMARK   11  A    between atoms: C_36  and  C_38 
REMARK   12  A    between atoms: C_38  and  C_39 
REMARK   13  A    between atoms: C_38  and  N_49 
REMARK   14  A    between atoms: C_39  and  C_40 
REMARK       I    between atoms: N_49  and  C_50 
REMARK   15  A    between atoms: C_50  and  C_52 
ROOT
HETATM    1  C   UNK N   1      -3.558  -1.937   1.450  0.00  0.00     0.181 C 
ENDROOT
BRANCH   1   2
HETATM    2  C   UNK N   1      -4.752  -2.609   0.839  0.00  0.00     0.241 C 
HETATM    3  N   UNK N   1      -5.052  -2.416  -0.471  0.00  0.00    -0.346 N 
HETATM    4  H   UNK N   1      -4.434  -1.868  -1.007  0.00  0.00     0.163 HD
HETATM    5  O   UNK N   1      -5.447  -3.326   1.541  0.00  0.00    -0.271 OA
BRANCH   3   6
HETATM    6  C   UNK N   1      -6.216  -2.962  -1.133  0.00  0.00     0.180 C 
BRANCH   6   7
HETATM    7  C   UNK N   1      -6.460  -4.468  -0.956  0.00  0.00     0.073 C 
BRANCH   7   8
HETATM    8  C   UNK N   1      -7.775  -4.811  -0.326  0.00  0.00    -0.056 A 
HETATM    9  C   UNK N   1      -8.108  -4.342   0.952  0.00  0.00     0.007 A 
HETATM   10  C   UNK N   1      -9.338  -4.675   1.525  0.00  0.00     0.001 A 
HETATM   11  C   UNK N   1     -10.235  -5.487   0.826  0.00  0.00     0.000 A 
HETATM   12  C   UNK N   1      -9.903  -5.965  -0.445  0.00  0.00     0.001 A 
HETATM   13  C   UNK N   1      -8.674  -5.626  -1.021  0.00  0.00     0.007 A 
ENDBRANCH   7   8
ENDBRANCH   6   7
BRANCH   6  14
HETATM   14  C   UNK N   1      -7.369  -2.007  -1.210  0.00  0.00     0.241 C 
HETATM   15  O   UNK N   1      -7.952  -1.850  -2.271  0.00  0.00    -0.271 OA
HETATM   16  N   UNK N   1      -7.750  -1.337  -0.089  0.00  0.00    -0.341 N 
HETATM   17  H   UNK N   1      -7.249  -1.532   0.736  0.00  0.00     0.163 HD
BRANCH  16  18
HETATM   18  C   UNK N   1      -8.823  -0.362   0.015  0.00  0.00     0.116 C 
HETATM   19  C   UNK N   1      -8.968  -0.037   1.513  0.00  0.00     0.060 C 
HETATM   20  C   UNK N   1     -10.250   0.741   1.860  0.00  0.00     0.116 C 
HETATM   21  N   UNK N   1     -11.075   1.012   0.682  0.00  0.00    -0.421 N 
HETATM   22  C   UNK N   1     -11.401  -0.252   0.023  0.00  0.00     0.116 C 
HETATM   23  H   UNK N   1     -11.375   1.935   0.370  0.00  0.00     0.153 HD
HETATM   24  C   UNK N   1     -10.144  -0.990  -0.467  0.00  0.00     0.060 C 
BRANCH  18  25
HETATM   25  C   UNK N   1      -8.486   0.898  -0.784  0.00  0.00     0.243 C 
HETATM   26  O   UNK N   1      -8.345   1.973  -0.219  0.00  0.00    -0.271 OA
HETATM   27  N   UNK N   1      -8.344   0.843  -2.124  0.00  0.00    -0.368 N 
HETATM   28  H   UNK N   1      -8.328   0.733  -3.102  0.00  0.00     0.159 HD
HETATM   29  H   UNK N   1      -7.575   1.457  -2.124  0.00  0.00     0.159 HD
ENDBRANCH  18  25
ENDBRANCH  16  18
ENDBRANCH   6  14
ENDBRANCH   3   6
ENDBRANCH   1   2
BRANCH   1  30
HETATM   30  C   UNK N   1      -3.788  -0.506   1.980  0.00  0.00     0.075 C 
BRANCH  30  31
HETATM   31  C   UNK N   1      -4.155   0.551   0.977  0.00  0.00    -0.028 A 
HETATM   32  C   UNK N   1      -5.204   0.510   0.064  0.00  0.00     0.096 A 
HETATM   33  N   UNK N   1      -5.234   1.661  -0.653  0.00  0.00    -0.365 N 
HETATM   34  C   UNK N   1      -4.228   2.419  -0.183  0.00  0.00     0.042 A 
HETATM   35  H   UNK N   1      -5.864   1.894  -1.373  0.00  0.00     0.165 HD
HETATM   36  C   UNK N   1      -3.553   1.774   0.815  0.00  0.00    -0.002 A 
HETATM   37  C   UNK N   1      -3.882   3.699  -0.602  0.00  0.00     0.030 A 
HETATM   38  C   UNK N   1      -2.481   2.370   1.478  0.00  0.00     0.014 A 
HETATM   39  C   UNK N   1      -2.103   3.666   1.079  0.00  0.00     0.001 A 
HETATM   40  C   UNK N   1      -2.799   4.327   0.041  0.00  0.00     0.002 A 
ENDBRANCH  30  31
ENDBRANCH   1  30
BRANCH   1  41
HETATM   41  N   UNK N   1      -2.313  -2.163   0.734  0.00  0.00    -0.346 N 
HETATM   42  C   UNK N   1      -2.029  -1.659  -0.496  0.00  0.00     0.241 C 
HETATM   43  O   UNK N   1      -2.830  -0.951  -1.083  0.00  0.00    -0.271 OA
HETATM   44  H   UNK N   1      -1.629  -2.721   1.170  0.00  0.00     0.163 HD
BRANCH  42  45
HETATM   45  C   UNK N   1      -0.693  -1.901  -1.132  0.00  0.00     0.180 C 
BRANCH  45  46
HETATM   46  C   UNK N   1      -0.515  -3.327  -1.668  0.00  0.00     0.074 C 
BRANCH  46  47
HETATM   47  C   UNK N   1      -0.381  -4.412  -0.641  0.00  0.00    -0.038 A 
HETATM   48  C   UNK N   1      -1.439  -5.294  -0.345  0.00  0.00     0.058 A 
HETATM   49  S   UNK N   1      -0.839  -6.369   0.787  0.00  0.00    -0.101 SA
HETATM   50  C   UNK N   1       0.702  -5.795   0.923  0.00  0.00     0.015 A 
HETATM   51  C   UNK N   1       0.820  -4.706   0.069  0.00  0.00    -0.012 A 
HETATM   52  C   UNK N   1       1.758  -6.257   1.700  0.00  0.00     0.019 A 
HETATM   53  C   UNK N   1       2.040  -4.034  -0.036  0.00  0.00     0.013 A 
HETATM   54  C   UNK N   1       3.125  -4.475   0.742  0.00  0.00     0.001 A 
HETATM   55  C   UNK N   1       2.985  -5.580   1.607  0.00  0.00     0.001 A 
ENDBRANCH  46  47
ENDBRANCH  45  46
BRANCH  45  56
HETATM   56  N   UNK N   1       0.421  -1.474  -0.306  0.00  0.00    -0.347 N 
HETATM   57  C   UNK N   1       0.484  -0.258   0.304  0.00  0.00     0.222 C 
HETATM   58  O   UNK N   1      -0.461   0.515   0.242  0.00  0.00    -0.273 OA
HETATM   59  H   UNK N   1       1.172  -2.097  -0.180  0.00  0.00     0.163 HD
BRANCH  57  60
HETATM   60  C   UNK N   1       1.715   0.161   1.070  0.00  0.00     0.081 C 
HETATM   61  C   UNK N   1       2.199   1.538   0.608  0.00  0.00     0.033 C 
HETATM   62  C   UNK N   1       2.798   1.444  -0.794  0.00  0.00     0.114 C 
HETATM   63  N   UNK N   1       3.936   0.528  -0.785  0.00  0.00    -0.421 N 
HETATM   64  C   UNK N   1       3.463  -0.817  -0.455  0.00  0.00     0.114 C 
HETATM   65  H   UNK N   1       4.904   0.784  -0.977  0.00  0.00     0.153 HD
HETATM   66  C   UNK N   1       2.870  -0.844   0.959  0.00  0.00     0.033 C 
ENDBRANCH  57  60
ENDBRANCH  45  56
ENDBRANCH  42  45
ENDBRANCH   1  41
TORSDOF 15
