REMARK  7 active torsions:
REMARK  status: ('A' for Active; 'I' for Inactive)
REMARK    1  A    between atoms: C_9  and  C_6 
REMARK    2  A    between atoms: C_10  and  C_6 
REMARK    3  A    between atoms: N_21  and  C_9 
REMARK    4  A    between atoms: N_24  and  C_10 
REMARK    5  A    between atoms: N_25  and  C_16 
REMARK    6  A    between atoms: O_28  and  C_17 
REMARK    7  A    between atoms: N_21  and  C_18 
ROOT
HETATM    1  C   UNK N   1       1.709  -3.409   0.147  0.00  0.00     0.274 C 
ENDROOT
BRANCH   1   2
HETATM    2  C   UNK N   1       0.366  -2.956  -0.442  0.00  0.00     0.050 C 
BRANCH   2   3
HETATM    3  C   UNK N   1       0.159  -1.448  -0.284  0.00  0.00     0.123 C 
BRANCH   3   4
HETATM    4  N   UNK N   1      -1.206  -0.960  -0.237  0.00  0.00    -0.376 N 
HETATM    5  H   UNK N   1      -1.305   0.018  -0.283  0.00  0.00     0.161 HD
BRANCH   4   6
HETATM    6  C   UNK N   1      -2.423  -1.693  -0.134  0.00  0.00     0.112 A 
HETATM    7  C   UNK N   1      -2.431  -3.087  -0.095  0.00  0.00     0.123 A 
HETATM    8  C   UNK N   1      -3.636  -3.767   0.001  0.00  0.00     0.254 A 
HETATM    9  N   UNK N   1      -4.818  -3.065   0.060  0.00  0.00    -0.271 N 
HETATM   10  O   UNK N   1      -3.634  -4.986   0.030  0.00  0.00    -0.268 OA
HETATM   11  C   UNK N   1      -6.087  -3.781   0.157  0.00  0.00     0.164 C 
HETATM   12  C   UNK N   1      -4.803  -1.688   0.028  0.00  0.00     0.332 A 
HETATM   13  N   UNK N   1      -3.606  -1.011  -0.068  0.00  0.00    -0.290 N 
HETATM   14  O   UNK N   1      -5.854  -1.064   0.084  0.00  0.00    -0.246 OA
HETATM   15  C   UNK N   1      -3.601   0.450  -0.100  0.00  0.00     0.163 C 
ENDBRANCH   4   6
ENDBRANCH   3   4
ENDBRANCH   2   3
ENDBRANCH   1   2
BRANCH   1  16
HETATM   16  N   UNK N   1       2.744  -2.406  -0.073  0.00  0.00     0.091 N 
HETATM   17  C   UNK N   1       4.046  -3.042  -0.066  0.00  0.00     0.292 C 
HETATM   18  C   UNK N   1       5.132  -2.005  -0.380  0.00  0.00     0.153 C 
HETATM   19  N   UNK N   1       4.840  -0.639   0.078  0.00  0.00    -0.375 N 
HETATM   20  C   UNK N   1       3.601  -0.318   0.775  0.00  0.00     0.153 C 
HETATM   21  C   UNK N   1       2.752  -1.533   1.084  0.00  0.00     0.292 C 
BRANCH  19  22
HETATM   22  C   UNK N   1       5.878   0.352  -0.024  0.00  0.00     0.064 A 
HETATM   23  C   UNK N   1       7.198  -0.096  -0.225  0.00  0.00     0.032 A 
HETATM   24  C   UNK N   1       8.274   0.787  -0.232  0.00  0.00     0.002 A 
HETATM   25  C   UNK N   1       8.060   2.145  -0.027  0.00  0.00     0.003 A 
HETATM   26  C   UNK N   1       6.765   2.626   0.149  0.00  0.00     0.039 A 
HETATM   27  C   UNK N   1       5.661   1.764   0.139  0.00  0.00     0.094 A 
BRANCH  27  28
HETATM   28  O   UNK N   1       4.441   2.339   0.269  0.00  0.00    -0.354 OA
HETATM   29  C   UNK N   1       3.408   2.116  -0.615  0.00  0.00     0.210 C 
ENDBRANCH  27  28
ENDBRANCH  19  22
ENDBRANCH   1  16
TORSDOF 7
