REMARK  10 active torsions:
REMARK  status: ('A' for Active; 'I' for Inactive)
REMARK    1  A    between atoms: C_2  and  C_3 
REMARK    2  A    between atoms: C_2  and  C_11 
REMARK    3  A    between atoms: C_3  and  N_4 
REMARK    4  A    between atoms: N_4  and  S_5 
REMARK    5  A    between atoms: S_5  and  C_8 
REMARK    6  A    between atoms: C_14  and  C_17 
REMARK    7  A    between atoms: C_20  and  C_23 
REMARK    8  A    between atoms: C_23  and  C_24 
REMARK    9  A    between atoms: C_24  and  N_25 
REMARK   10  A    between atoms: N_25  and  S_26 
ROOT
HETATM    1  C   UNK N   1       1.687   0.087  -0.067  0.00  0.00    -0.053 A 
HETATM    2  C   UNK N   1       2.467  -0.808   0.689  0.00  0.00     0.008 A 
HETATM    3  C   UNK N   1       2.114  -2.159   0.755  0.00  0.00     0.013 A 
HETATM    4  C   UNK N   1       0.991  -2.639   0.077  0.00  0.00    -0.026 A 
HETATM    5  C   UNK N   1       0.225  -1.746  -0.697  0.00  0.00     0.013 A 
HETATM    6  C   UNK N   1       0.580  -0.400  -0.765  0.00  0.00     0.008 A 
ENDROOT
BRANCH   4   7
HETATM    7  C   UNK N   1       0.598  -4.064   0.161  0.00  0.00    -0.026 A 
HETATM    8  C   UNK N   1       1.360  -4.947   0.951  0.00  0.00     0.013 A 
HETATM    9  C   UNK N   1       1.008  -6.292   1.034  0.00  0.00     0.008 A 
HETATM   10  C   UNK N   1      -0.090  -6.779   0.327  0.00  0.00    -0.057 A 
HETATM   11  C   UNK N   1      -0.862  -5.909  -0.454  0.00  0.00     0.008 A 
HETATM   12  C   UNK N   1      -0.516  -4.555  -0.529  0.00  0.00     0.013 A 
BRANCH  10  13
HETATM   13  C   UNK N   1      -0.426  -8.228   0.411  0.00  0.00     0.058 C 
BRANCH  13  14
HETATM   14  C   UNK N   1       0.120  -9.007  -0.786  0.00  0.00     0.136 C 
BRANCH  14  15
HETATM   15  N   UNK N   1       1.581  -8.911  -0.897  0.00  0.00    -0.320 N 
HETATM   16  H   UNK N   1       2.080  -8.477  -1.673  0.00  0.00     0.172 HD
BRANCH  15  17
HETATM   17  S   UNK N   1       2.355  -9.660   0.517  0.00  0.00     0.222 S 
HETATM   18  O   UNK N   1       3.837  -9.879   0.179  0.00  0.00    -0.206 OA
HETATM   19  O   UNK N   1       2.229 -10.884  -0.403  0.00  0.00    -0.206 OA
HETATM   20  C   UNK N   1       3.204  -8.226  -0.208  0.00  0.00     0.185 C 
ENDBRANCH  15  17
ENDBRANCH  14  15
ENDBRANCH  13  14
ENDBRANCH  10  13
ENDBRANCH   4   7
BRANCH   1  21
HETATM   21  C   UNK N   1       1.999   1.561  -0.122  0.00  0.00     0.033 C 
HETATM   22  C   UNK N   1       3.297   1.932   0.584  0.00  0.00     0.017 C 
BRANCH  21  23
HETATM   23  C   UNK N   1       0.838   2.360   0.479  0.00  0.00     0.141 C 
BRANCH  23  24
HETATM   24  N   UNK N   1       0.075   3.003  -0.584  0.00  0.00    -0.319 N 
HETATM   25  H   UNK N   1       0.480   3.606  -1.300  0.00  0.00     0.172 HD
BRANCH  24  26
HETATM   26  S   UNK N   1      -1.656   2.600  -0.469  0.00  0.00     0.230 S 
HETATM   27  O   UNK N   1      -1.787   1.088  -0.224  0.00  0.00    -0.206 OA
HETATM   28  O   UNK N   1      -2.037   2.645  -1.953  0.00  0.00    -0.206 OA
BRANCH  26  29
HETATM   29  C   UNK N   1      -2.893   3.655   0.360  0.00  0.00     0.121 C 
HETATM   30  C   UNK N   1      -2.371   4.224   1.660  0.00  0.00     0.027 C 
HETATM   31  C   UNK N   1      -4.156   2.856   0.621  0.00  0.00     0.027 C 
ENDBRANCH  26  29
ENDBRANCH  24  26
ENDBRANCH  23  24
ENDBRANCH  21  23
ENDBRANCH   1  21
TORSDOF 10
