REMARK  5 active torsions:
REMARK  status: ('A' for Active; 'I' for Inactive)
REMARK    1  A    between atoms: N_3  and  O_2 
REMARK    2  A    between atoms: N_7  and  C_13 
REMARK    3  A    between atoms: C_19  and  C_28 
REMARK    4  A    between atoms: N_21  and  C_25 
REMARK    5  A    between atoms: C_28  and  O_30 
ROOT
HETATM    1  C   UNK N   1       0.293  -1.120   0.274  0.00  0.00     0.144 A 
HETATM    2  C   UNK N   1       0.306   0.291   0.264  0.00  0.00     0.161 A 
HETATM    3  C   UNK N   1       1.518   0.962   0.096  0.00  0.00     0.065 A 
HETATM    4  C   UNK N   1       2.707   0.242  -0.064  0.00  0.00     0.062 A 
HETATM    5  C   UNK N   1       3.937   0.894  -0.232  0.00  0.00     0.204 A 
HETATM    6  O   UNK N   1       3.985   2.114  -0.241  0.00  0.00    -0.286 OA
HETATM    7  C   UNK N   1       5.111   0.128  -0.386  0.00  0.00     0.104 A 
HETATM    8  C   UNK N   1       5.009  -1.268  -0.382  0.00  0.00     0.115 A 
HETATM    9  N   UNK N   1       3.811  -1.897  -0.213  0.00  0.00    -0.337 N 
HETATM   10  C   UNK N   1       2.662  -1.166  -0.053  0.00  0.00     0.123 A 
HETATM   11  N   UNK N   1       1.466  -1.793   0.112  0.00  0.00    -0.325 N 
ATOM     12  HN  UNK N   1       1.446  -2.813   0.115  1.00  0.00     0.169 HD
HETATM   13  F   UNK N   1      -0.829   1.018   0.413  0.00  0.00    -0.202 F 
ENDROOT
BRANCH   1  14
HETATM   14  N   UNK N   1      -0.911  -1.870   0.415  0.00  0.00    -0.358 N 
HETATM   15  C   UNK N   1      -2.228  -1.278   0.396  0.00  0.00     0.180 C 
HETATM   16  C   UNK N   1      -3.094  -2.451   0.157  0.00  0.00     0.041 C 
HETATM   17  N   UNK N   1      -4.360  -2.339  -0.051  0.00  0.00    -0.273 N 
HETATM   18  C   UNK N   1      -2.316  -3.723   0.093  0.00  0.00     0.049 A 
ATOM     19  HN  UNK N   1      -4.795  -1.417  -0.005  1.00  0.00     0.193 HD
HETATM   20  C   UNK N   1      -0.883  -3.317   0.360  0.00  0.00     0.144 C 
HETATM   21  C   UNK N   1      -2.787  -4.925   0.859  0.00  0.00     0.132 A 
HETATM   22  C   UNK N   1      -2.463  -4.566  -1.140  0.00  0.00     0.132 A 
HETATM   23  N   UNK N   1      -2.885  -5.728  -0.360  0.00  0.00    -0.419 N 
HETATM   24  H   UNK N   1      -3.139  -6.692  -0.575  0.00  0.00     0.153 HD
BRANCH  17  25
HETATM   25  O   UNK N   1      -5.105  -3.390  -0.321  0.00  0.00    -0.285 OA
HETATM   26  C   UNK N   1      -6.427  -3.229  -0.644  0.00  0.00     0.237 C 
ENDBRANCH  17  25
ENDBRANCH   1  14
BRANCH   9  27
HETATM   27  C   UNK N   1       3.779  -3.366  -0.253  0.00  0.00     0.091 A 
HETATM   28  C   UNK N   1       4.711  -3.956   0.799  0.00  0.00     0.028 A 
HETATM   29  C   UNK N   1       3.225  -3.941   1.046  0.00  0.00     0.028 A 
ENDBRANCH   9  27
BRANCH   7  30
HETATM   30  C   UNK N   1       6.454   0.742  -0.545  0.00  0.00     0.181 C 
HETATM   31  O   UNK N   1       6.592   1.955  -0.555  0.00  0.00    -0.646 OA
BRANCH  30  32
HETATM   32  O   UNK N   1       7.542  -0.045  -0.663  0.00  0.00    -0.772 OA
HETATM   33  H   UNK N   1       7.447  -0.973  -0.745  0.00  0.00     0.167 HD
ENDBRANCH  30  32
ENDBRANCH   7  30
TORSDOF 5
