REMARK  6 active torsions:
REMARK  status: ('A' for Active; 'I' for Inactive)
REMARK    1  A    between atoms: C_8  and  C_7 
REMARK    2  A    between atoms: C_12  and  C_7 
REMARK    3  A    between atoms: C_17  and  C_8 
REMARK    4  A    between atoms: C_16  and  C_9 
REMARK    5  A    between atoms: O_23  and  C_17 
REMARK    6  A    between atoms: O_24  and  C_18 
ROOT
HETATM    1  C   UNK N   1       0.241  -2.864   0.001  0.00  0.00     0.051 C 
HETATM    2  C   UNK N   1      -3.497   0.583  -0.000  0.00  0.00     0.068 C 
HETATM    3  C   UNK N   1      -0.537  -1.590   0.000  0.00  0.00    -0.027 A 
HETATM    4  C   UNK N   1      -2.174  -0.101  -0.000  0.00  0.00     0.012 A 
HETATM    5  C   UNK N   1      -1.917  -1.469   0.000  0.00  0.00    -0.027 A 
HETATM    6  C   UNK N   1      -0.022  -0.300  -0.000  0.00  0.00     0.040 A 
HETATM    7  N   UNK N   1      -1.025   0.591  -0.000  0.00  0.00    -0.359 N 
HETATM    8  H   UNK N   1      -0.935   1.571  -0.001  0.00  0.00     0.166 HD
ENDROOT
BRANCH   6   9
HETATM    9  C   UNK N   1       1.416   0.075  -0.000  0.00  0.00     0.046 C 
HETATM   10  C   UNK N   1       1.891   1.347  -0.000  0.00  0.00     0.029 A 
HETATM   11  C   UNK N   1       3.308   1.707  -0.000  0.00  0.00     0.005 A 
HETATM   12  C   UNK N   1       1.216   2.682  -0.000  0.00  0.00     0.151 A 
HETATM   13  C   UNK N   1       4.468   0.933  -0.000  0.00  0.00     0.014 A 
HETATM   14  C   UNK N   1       3.364   3.079  -0.000  0.00  0.00     0.045 A 
HETATM   15  C   UNK N   1       5.706   1.603  -0.000  0.00  0.00     0.001 A 
HETATM   16  C   UNK N   1       5.757   3.015   0.000  0.00  0.00     0.002 A 
HETATM   17  C   UNK N   1       4.571   3.769   0.000  0.00  0.00     0.030 A 
HETATM   18  N   UNK N   1       2.074   3.639  -0.000  0.00  0.00    -0.336 N 
ATOM     19  HN  UNK N   1       1.856   4.636  -0.000  1.00  0.00     0.168 HD
BRANCH  12  20
HETATM   20  O   UNK N   1      -0.105   2.929  -0.000  0.00  0.00    -0.345 OA
HETATM   21  H   UNK N   1      -0.417   3.813  -0.000  0.00  0.00     0.219 HD
ENDBRANCH  12  20
ENDBRANCH   6   9
BRANCH   5  22
HETATM   22  C   UNK N   1      -2.902  -2.616   0.001  0.00  0.00     0.051 C 
BRANCH  22  23
HETATM   23  C   UNK N   1      -4.352  -2.140   0.003  0.00  0.00     0.114 C 
BRANCH  23  24
HETATM   24  C   UNK N   1      -5.372  -3.231  -0.000  0.00  0.00     0.139 C 
HETATM   25  O   UNK N   1      -6.556  -2.937   0.001  0.00  0.00    -0.650 OA
BRANCH  24  26
HETATM   26  O   UNK N   1      -5.005  -4.526  -0.003  0.00  0.00    -0.776 OA
HETATM   27  H   UNK N   1      -5.659  -5.198  -0.006  0.00  0.00     0.167 HD
ENDBRANCH  24  26
ENDBRANCH  23  24
ENDBRANCH  22  23
ENDBRANCH   5  22
TORSDOF 6
