REMARK  2 active torsions:
REMARK  status: ('A' for Active; 'I' for Inactive)
REMARK    1  A    between atoms: C_5  and  N_34 
REMARK       I    between atoms: N_34  and  C_35 
REMARK    2  A    between atoms: C_35  and  C_37 
ROOT
HETATM    1  C   UNK N   1       3.311   0.915   2.769  0.00  0.00     0.017 C 
HETATM    2  C   UNK N   1       3.783   1.158   1.335  0.00  0.00    -0.022 C 
HETATM    3  C   UNK N   1       4.628   2.433   1.316  0.00  0.00     0.013 C 
HETATM    4  C   UNK N   1       5.321   2.506  -0.061  0.00  0.00     0.032 C 
HETATM    5  C   UNK N   1       6.276   1.333  -0.360  0.00  0.00     0.037 C 
HETATM    6  C   UNK N   1       5.927   0.567  -1.637  0.00  0.00     0.032 C 
HETATM    7  C   UNK N   1       7.051  -0.447  -1.934  0.00  0.00     0.011 C 
HETATM    8  C   UNK N   1       7.375  -1.435  -0.794  0.00  0.00    -0.047 C 
HETATM    9  C   UNK N   1       7.217  -0.847   0.621  0.00  0.00     0.016 C 
HETATM   10  C   UNK N   1       6.203   0.297   0.765  0.00  0.00     0.027 C 
HETATM   11  C   UNK N   1       4.710  -0.059   1.080  0.00  0.00     0.075 C 
HETATM   12  C   UNK N   1       3.999  -1.241   0.482  0.00  0.00     0.155 C 
HETATM   13  O   UNK N   1       4.429  -2.363   0.675  0.00  0.00    -0.293 OA
HETATM   14  C   UNK N   1       2.696  -1.092  -0.190  0.00  0.00     0.055 C 
HETATM   15  C   UNK N   1       1.993   0.059  -0.245  0.00  0.00    -0.055 C 
HETATM   16  C   UNK N   1       2.532   1.347   0.353  0.00  0.00    -0.011 C 
HETATM   17  C   UNK N   1       1.451   2.134   1.126  0.00  0.00     0.015 C 
HETATM   18  C   UNK N   1       0.023   1.715   0.831  0.00  0.00     0.008 C 
HETATM   19  C   UNK N   1      -0.137   1.415  -0.658  0.00  0.00     0.017 C 
HETATM   20  C   UNK N   1       0.672   0.112  -1.030  0.00  0.00     0.004 C 
HETATM   21  C   UNK N   1      -0.105  -1.145  -0.717  0.00  0.00     0.014 C 
HETATM   22  C   UNK N   1      -1.397  -1.176  -0.389  0.00  0.00     0.088 C 
HETATM   23  C   UNK N   1      -2.199   0.072  -0.360  0.00  0.00     0.178 C 
HETATM   24  O   UNK N   1      -3.288   0.086   0.196  0.00  0.00    -0.291 OA
HETATM   25  C   UNK N   1      -1.637   1.324  -1.004  0.00  0.00     0.024 C 
HETATM   26  C   UNK N   1      -1.815   1.242  -2.509  0.00  0.00     0.024 C 
HETATM   27  C   UNK N   1      -2.382   2.579  -0.546  0.00  0.00     0.024 C 
HETATM   28  C   UNK N   1      -1.942  -2.432   0.048  0.00  0.00     0.103 C 
HETATM   29  N   UNK N   1      -2.373  -3.439   0.418  0.00  0.00    -0.191 NA
HETATM   30  C   UNK N   1       0.988   0.091  -2.522  0.00  0.00     0.025 C 
HETATM   31  C   UNK N   1       2.793   2.191  -0.903  0.00  0.00     0.021 C 
HETATM   32  C   UNK N   1       8.829  -1.834  -0.935  0.00  0.00     0.015 C 
HETATM   33  C   UNK N   1       6.569  -2.705  -0.953  0.00  0.00     0.015 C 
ENDROOT
BRANCH   5  34
HETATM   34  N   UNK N   1       7.545   1.991  -0.569  0.00  0.00    -0.346 N 
HETATM   35  C   UNK N   1       8.146   2.767   0.363  0.00  0.00     0.290 C 
HETATM   36  O   UNK N   1       7.904   2.617   1.553  0.00  0.00    -0.267 OA
HETATM   37  H   UNK N   1       7.996   1.869  -1.435  0.00  0.00     0.163 HD
BRANCH  35  38
HETATM   38  C   UNK N   1       8.927   3.951  -0.123  0.00  0.00     0.318 C 
HETATM   39  C   UNK N   1       9.498   4.776   1.016  0.00  0.00     0.101 C 
HETATM   40  F   UNK N   1       9.944   3.547  -0.964  0.00  0.00    -0.196 F 
HETATM   41  F   UNK N   1       8.050   4.753  -0.838  0.00  0.00    -0.196 F 
ENDBRANCH  35  38
ENDBRANCH   5  34
TORSDOF 2
