REMARK  2 active torsions:
REMARK  status: ('A' for Active; 'I' for Inactive)
REMARK    1  A    between atoms: C_4  and  O_12 
REMARK    2  A    between atoms: N_7  and  O_8 
ROOT
HETATM    1  C   UNK N   1       0.361   2.134  -1.253  0.00  0.00     0.034 C 
HETATM    2  C   UNK N   1       0.759   1.631   0.133  0.00  0.00     0.034 C 
HETATM    3  C   UNK N   1       2.118   0.931   0.062  0.00  0.00     0.058 C 
HETATM    4  C   UNK N   1       2.016  -0.400  -0.666  0.00  0.00     0.122 C 
HETATM    5  C   UNK N   1       1.021  -1.282   0.071  0.00  0.00     0.058 C 
HETATM    6  C   UNK N   1      -0.358  -0.623   0.129  0.00  0.00     0.034 C 
HETATM    7  N   UNK N   1      -0.262   0.732   0.725  0.00  0.00    -0.182 NA
HETATM    8  C   UNK N   1      -1.228  -1.494   1.018  0.00  0.00     0.034 C 
HETATM    9  C   UNK N   1      -0.982  -0.607  -1.264  0.00  0.00     0.034 C 
HETATM   10  C   UNK N   1       0.932   2.840   1.034  0.00  0.00     0.034 C 
ENDROOT
BRANCH   7  11
HETATM   11  O   UNK N   1      -1.482   1.336   0.691  0.00  0.00    -0.312 OA
ATOM     12  HO  UNK N   1      -1.420   2.204   1.073  1.00  0.00     0.237 HD
ENDBRANCH   7  11
BRANCH   4  13
HETATM   13  O   UNK N   1       3.265  -1.019  -0.681  0.00  0.00    -0.395 OA
HETATM   14  H   UNK N   1       3.326  -1.987  -0.691  0.00  0.00     0.210 HD
ENDBRANCH   4  13
TORSDOF 2
