REMARK  5 active torsions:
REMARK  status: ('A' for Active; 'I' for Inactive)
REMARK    1  A    between atoms: C_11  and  C_8 
REMARK    2  A    between atoms: N_14  and  C_8 
REMARK    3  A    between atoms: C_11  and  C_9 
REMARK    4  A    between atoms: O_15  and  C_11 
REMARK    5  A    between atoms: N_14  and  C_12 
ROOT
HETATM    1  C   UNK N   1      -1.309   0.930   0.537  0.00  0.00     0.170 C 
ENDROOT
BRANCH   1   2
HETATM    2  C   UNK N   1      -1.609   2.153  -0.312  0.00  0.00     0.151 C 
BRANCH   2   3
HETATM    3  N   UNK N   1      -1.901   3.270   0.584  0.00  0.00    -0.411 N 
HETATM    4  H   UNK N   1      -1.933   3.188   1.600  0.00  0.00     0.154 HD
BRANCH   3   5
HETATM    5  C   UNK N   1      -2.143   4.521  -0.140  0.00  0.00     0.014 C 
HETATM    6  C   UNK N   1      -2.285   5.635   0.876  0.00  0.00     0.037 C 
HETATM    7  C   UNK N   1      -3.433   4.439  -0.938  0.00  0.00     0.037 C 
HETATM    8  C   UNK N   1      -0.983   4.873  -1.061  0.00  0.00     0.037 C 
ENDBRANCH   3   5
ENDBRANCH   2   3
ENDBRANCH   1   2
BRANCH   1   9
HETATM    9  C   UNK N   1       0.000   0.264   0.181  0.00  0.00    -0.006 A 
HETATM   10  C   UNK N   1       0.011  -1.091  -0.197  0.00  0.00     0.011 A 
HETATM   11  C   UNK N   1       1.211  -1.740  -0.492  0.00  0.00     0.001 A 
HETATM   12  C   UNK N   1       2.418  -1.045  -0.415  0.00  0.00     0.002 A 
HETATM   13  C   UNK N   1       2.426   0.300  -0.041  0.00  0.00     0.024 A 
HETATM   14  C   UNK N   1       1.231   0.959   0.259  0.00  0.00     0.043 A 
HETATM   15 Cl   UNK N   1       1.323   2.647   0.746  0.00  0.00    -0.084 Cl
ENDBRANCH   1   9
BRANCH   1  16
HETATM   16  O   UNK N   1      -2.387   0.044   0.459  0.00  0.00    -0.389 OA
HETATM   17  H   UNK N   1      -3.294   0.384   0.404  0.00  0.00     0.210 HD
ENDBRANCH   1  16
TORSDOF 5
