REMARK  8 active torsions:
REMARK  status: ('A' for Active; 'I' for Inactive)
REMARK    1  A    between atoms: C_2  and  C_3 
REMARK    2  A    between atoms: C_3  and  N_4 
REMARK    3  A    between atoms: N_4  and  C_5 
REMARK       I    between atoms: N_4  and  C_8 
REMARK    4  A    between atoms: C_5  and  C_6 
REMARK    5  A    between atoms: C_8  and  C_10 
REMARK    6  A    between atoms: C_15  and  C_23 
REMARK    7  A    between atoms: C_20  and  N_22 
REMARK    8  A    between atoms: C_26  and  C_29 
REMARK       I    between atoms: C_29  and  N_31 
ROOT
HETATM    1  C   UNK N   1       2.871  -2.138   1.399  0.00  0.00     0.018 C 
HETATM    2  C   UNK N   1       3.257  -0.890   1.503  0.00  0.00     0.027 C 
HETATM    3  C   UNK N   1       4.319  -0.350   0.688  0.00  0.00    -0.009 C 
HETATM    4  C   UNK N   1       4.389   1.050   0.677  0.00  0.00     0.014 C 
HETATM    5  C   UNK N   1       5.401   1.699  -0.015  0.00  0.00     0.013 C 
HETATM    6  C   UNK N   1       6.299   0.942  -0.762  0.00  0.00    -0.024 C 
HETATM    7  C   UNK N   1       6.104  -0.423  -0.896  0.00  0.00     0.042 C 
HETATM    8  C   UNK N   1       5.170  -1.102  -0.177  0.00  0.00     0.044 C 
HETATM    9  N   UNK N   1       5.325  -2.512  -0.251  0.00  0.00    -0.345 N 
ATOM     10  HN  UNK N   1       5.930  -2.829  -1.009  1.00  0.00     0.167 HD
HETATM   11  C   UNK N   1       4.843  -3.457   0.466  0.00  0.00     0.079 C 
HETATM   12  C   UNK N   1       3.882  -3.237   1.572  0.00  0.00     0.120 C 
ENDROOT
BRANCH   6  13
HETATM   13  C   UNK N   1       7.709   1.335  -0.770  0.00  0.00    -0.026 A 
HETATM   14  C   UNK N   1       8.131   2.530  -0.167  0.00  0.00     0.013 A 
HETATM   15  C   UNK N   1       9.466   2.670   0.230  0.00  0.00     0.018 A 
HETATM   16  C   UNK N   1      10.368   1.600   0.081  0.00  0.00     0.032 A 
HETATM   17  C   UNK N   1       9.932   0.439  -0.546  0.00  0.00     0.018 A 
HETATM   18  C   UNK N   1       8.640   0.307  -0.961  0.00  0.00     0.013 A 
BRANCH  16  19
HETATM   19  C   UNK N   1      11.783   1.713   0.503  0.00  0.00     0.253 C 
HETATM   20  O   UNK N   1      12.175   2.806   0.915  0.00  0.00    -0.267 OA
HETATM   21  N   UNK N   1      12.680   0.680   0.411  0.00  0.00    -0.348 N 
HETATM   22  C   UNK N   1      14.075   0.866   0.649  0.00  0.00     0.126 C 
HETATM   23  C   UNK N   1      12.337  -0.666   0.007  0.00  0.00     0.126 C 
HETATM   24  C   UNK N   1      14.731  -0.375   0.071  0.00  0.00     0.021 C 
HETATM   25  C   UNK N   1      13.639  -1.432   0.005  0.00  0.00     0.021 C 
ENDBRANCH  16  19
ENDBRANCH   6  13
BRANCH  11  26
HETATM   26  N   UNK N   1       5.327  -4.767   0.258  0.00  0.00    -0.389 N 
HETATM   27  H   UNK N   1       4.705  -5.517   0.114  0.00  0.00     0.157 HD
HETATM   28  H   UNK N   1       6.298  -4.933   0.258  0.00  0.00     0.157 HD
ENDBRANCH  11  26
BRANCH   1  29
HETATM   29  C   UNK N   1       1.628  -2.227   0.575  0.00  0.00     0.250 C 
HETATM   30  N   UNK N   1       1.382  -3.205  -0.348  0.00  0.00    -0.348 N 
HETATM   31  O   UNK N   1       0.824  -1.304   0.678  0.00  0.00    -0.268 OA
BRANCH  30  32
HETATM   32  C   UNK N   1       0.176  -3.126  -1.140  0.00  0.00     0.125 C 
BRANCH  32  33
HETATM   33  C   UNK N   1      -0.900  -4.017  -0.547  0.00  0.00     0.015 C 
HETATM   34  C   UNK N   1      -1.286  -3.546   0.844  0.00  0.00     0.006 C 
ENDBRANCH  32  33
ENDBRANCH  30  32
BRANCH  30  35
HETATM   35  C   UNK N   1       2.359  -4.201  -0.704  0.00  0.00     0.125 C 
BRANCH  35  36
HETATM   36  C   UNK N   1       1.925  -5.583  -0.275  0.00  0.00     0.015 C 
HETATM   37  C   UNK N   1       2.997  -6.572  -0.676  0.00  0.00     0.006 C 
ENDBRANCH  35  36
ENDBRANCH  30  35
ENDBRANCH   1  29
TORSDOF 8
