REMARK  4 active torsions:
REMARK  status: ('A' for Active; 'I' for Inactive)
REMARK    1  A    between atoms: C_13  and  C_2 
REMARK    2  A    between atoms: C_16  and  C_9 
REMARK    3  A    between atoms: C_16  and  C_15 
REMARK    4  A    between atoms: O_21  and  C_17 
ROOT
HETATM    1  C   UNK N   1       0.990  -0.196  -0.003  0.00  0.00     0.195 C 
HETATM    2  O   UNK N   1       1.797  -1.114  -0.070  0.00  0.00    -0.287 OA
ENDROOT
BRANCH   1   3
HETATM    3  C   UNK N   1      -0.454  -0.570  -0.039  0.00  0.00     0.018 A 
HETATM    4  C   UNK N   1      -0.819  -1.928  -0.033  0.00  0.00     0.037 A 
HETATM    5  C   UNK N   1      -2.166  -2.307  -0.025  0.00  0.00     0.046 A 
HETATM    6  C   UNK N   1      -3.167  -1.325  -0.030  0.00  0.00     0.100 A 
HETATM    7 Br   UNK N   1      -2.618  -4.164   0.011  0.00  0.00    -0.048 Br
HETATM    8  C   UNK N   1      -2.808   0.026  -0.053  0.00  0.00     0.046 A 
HETATM    9  C   UNK N   1      -1.464   0.384  -0.057  0.00  0.00     0.037 A 
HETATM   10 Br   UNK N   1      -4.125   1.409  -0.063  0.00  0.00    -0.048 Br
BRANCH   6  11
HETATM   11  O   UNK N   1      -4.465  -1.678  -0.010  0.00  0.00    -0.358 OA
HETATM   12  H   UNK N   1      -5.130  -1.017   0.003  0.00  0.00     0.217 HD
ENDBRANCH   6  11
ENDBRANCH   1   3
BRANCH   1  13
HETATM   13  C   UNK N   1       1.547   1.205   0.144  0.00  0.00     0.058 A 
HETATM   14  C   UNK N   1       2.910   1.464   0.199  0.00  0.00     0.014 A 
HETATM   15  C   UNK N   1       4.016   0.612   0.135  0.00  0.00     0.015 A 
HETATM   16  C   UNK N   1       3.066   2.812   0.361  0.00  0.00     0.087 A 
HETATM   17  C   UNK N   1       5.297   1.183   0.243  0.00  0.00     0.001 A 
HETATM   18  C   UNK N   1       5.447   2.577   0.410  0.00  0.00     0.003 A 
HETATM   19  C   UNK N   1       4.316   3.410   0.471  0.00  0.00     0.038 A 
HETATM   20  O   UNK N   1       1.902   3.401   0.411  0.00  0.00    -0.313 OA
HETATM   21  C   UNK N   1       0.956   2.489   0.289  0.00  0.00     0.068 A 
BRANCH  21  22
HETATM   22  C   UNK N   1      -0.478   2.885   0.355  0.00  0.00     0.061 C 
HETATM   23  C   UNK N   1      -0.819   3.856  -0.759  0.00  0.00     0.012 C 
ENDBRANCH  21  22
ENDBRANCH   1  13
TORSDOF 4
