REMARK  4 active torsions:
REMARK  status: ('A' for Active; 'I' for Inactive)
REMARK    1  A    between atoms: C_3  and  C_14 
REMARK    2  A    between atoms: C_6  and  C_7 
REMARK    3  A    between atoms: C_7  and  N_8 
REMARK       I    between atoms: C_14  and  N_16 
REMARK    4  A    between atoms: N_19  and  C_22 
ROOT
HETATM    1  C   UNK N   1      -0.515   9.387   0.172  0.00  0.00     0.010 A 
HETATM    2  C   UNK N   1       0.733   8.733   0.174  0.00  0.00     0.017 A 
HETATM    3  C   UNK N   1       0.799   7.348  -0.067  0.00  0.00     0.032 A 
HETATM    4  C   UNK N   1      -0.373   6.668  -0.400  0.00  0.00     0.017 A 
HETATM    5  C   UNK N   1      -1.590   7.311  -0.429  0.00  0.00     0.010 A 
HETATM    6  C   UNK N   1      -1.687   8.664  -0.111  0.00  0.00    -0.030 A 
ENDROOT
BRANCH   3   7
HETATM    7  C   UNK N   1       2.078   6.585   0.027  0.00  0.00     0.253 C 
HETATM    8  O   UNK N   1       3.136   7.175  -0.160  0.00  0.00    -0.267 OA
HETATM    9  N   UNK N   1       2.093   5.248   0.348  0.00  0.00    -0.345 N 
HETATM   10  C   UNK N   1       3.313   4.471   0.329  0.00  0.00     0.156 C 
HETATM   11  C   UNK N   1       0.894   4.558   0.780  0.00  0.00     0.156 C 
HETATM   12  C   UNK N   1       3.053   3.173  -0.461  0.00  0.00     0.292 C 
HETATM   13  N   UNK N   1       1.869   2.476   0.067  0.00  0.00     0.096 N 
HETATM   14  C   UNK N   1       0.702   3.341  -0.094  0.00  0.00     0.292 C 
BRANCH  13  15
HETATM   15  C   UNK N   1       1.640   1.270  -0.718  0.00  0.00     0.223 A 
HETATM   16  C   UNK N   1       2.048   0.060   0.101  0.00  0.00     0.038 A 
HETATM   17  C   UNK N   1       0.582   0.398  -0.053  0.00  0.00     0.038 A 
ENDBRANCH  13  15
ENDBRANCH   3   7
BRANCH   6  18
HETATM   18  C   UNK N   1      -3.049   9.307  -0.011  0.00  0.00     0.311 C 
BRANCH  18  19
HETATM   19  N   UNK N   1      -4.119   8.334  -0.265  0.00  0.00     0.096 N 
HETATM   20  C   UNK N   1      -4.218   7.375   0.842  0.00  0.00     0.299 C 
HETATM   21  C   UNK N   1      -5.330   6.380   0.513  0.00  0.00     0.198 C 
HETATM   22  O   UNK N   1      -6.555   7.071   0.455  0.00  0.00    -0.388 OA
HETATM   23  C   UNK N   1      -6.489   7.958  -0.641  0.00  0.00     0.198 C 
HETATM   24  C   UNK N   1      -5.402   9.017  -0.397  0.00  0.00     0.299 C 
ENDBRANCH  18  19
ENDBRANCH   6  18
TORSDOF 4
