REMARK WARNING: 32 MAX_TORS EXCEEDED!!!
REMARK  36 active torsions:
REMARK  status: ('A' for Active; 'I' for Inactive)
REMARK    1  A    between atoms: C_2  and  C_3 
REMARK    2  A    between atoms: C_3  and  C_4 
REMARK    3  A    between atoms: C_4  and  C_5 
REMARK    4  A    between atoms: C_5  and  C_6 
REMARK    5  A    between atoms: C_6  and  C_7 
REMARK    6  A    between atoms: C_7  and  C_8 
REMARK    7  A    between atoms: C_8  and  C_9 
REMARK    8  A    between atoms: C_9  and  C_10 
REMARK    9  A    between atoms: C_10  and  C_11 
REMARK   10  A    between atoms: C_11  and  C_12 
REMARK   11  A    between atoms: C_12  and  C_13 
REMARK   12  A    between atoms: C_13  and  C_14 
REMARK   13  A    between atoms: C_14  and  C_15 
REMARK   14  A    between atoms: C_15  and  C_16 
REMARK   15  A    between atoms: C_16  and  O_18 
REMARK   16  A    between atoms: O_18  and  C_19 
REMARK   17  A    between atoms: C_19  and  C_20 
REMARK   18  A    between atoms: C_20  and  C_21 
REMARK   19  A    between atoms: C_20  and  O_26 
REMARK   20  A    between atoms: C_21  and  O_22 
REMARK   21  A    between atoms: O_22  and  C_23 
REMARK   22  A    between atoms: O_26  and  C_27 
REMARK   23  A    between atoms: C_27  and  C_29 
REMARK   24  A    between atoms: C_29  and  C_30 
REMARK   25  A    between atoms: C_30  and  C_31 
REMARK   26  A    between atoms: C_31  and  C_32 
REMARK   27  A    between atoms: C_32  and  C_33 
REMARK   28  A    between atoms: C_33  and  C_34 
REMARK   29  A    between atoms: C_34  and  C_35 
REMARK   30  A    between atoms: C_35  and  C_36 
REMARK   31  A    between atoms: C_37  and  C_38 
REMARK   32  A    between atoms: C_38  and  C_39 
REMARK   33  A    between atoms: C_40  and  C_41 
REMARK   34  A    between atoms: C_41  and  C_42 
REMARK   35  A    between atoms: C_42  and  C_43 
REMARK   36  A    between atoms: C_43  and  C_44 
ROOT
HETATM    1  C   UNK N   1      13.557  18.176  -1.445  0.00  0.00     0.180 C 
ENDROOT
BRANCH   1   2
HETATM    2  C   UNK N   1      12.288  19.006  -1.639  0.00  0.00     0.213 C 
BRANCH   2   3
HETATM    3  O   UNK N   1      11.893  19.685  -0.506  0.00  0.00    -0.319 OA
BRANCH   3   4
HETATM    4  C   UNK N   1      11.076  19.125   0.417  0.00  0.00     0.258 C 
HETATM    5  O   UNK N   1      10.598  19.826   1.294  0.00  0.00    -0.265 OA
BRANCH   4   6
HETATM    6  C   UNK N   1      10.788  17.649   0.401  0.00  0.00     0.111 C 
BRANCH   6   7
HETATM    7  C   UNK N   1       9.385  17.340  -0.091  0.00  0.00     0.010 C 
BRANCH   7   8
HETATM    8  C   UNK N   1       8.426  17.145   1.072  0.00  0.00     0.000 C 
BRANCH   8   9
HETATM    9  C   UNK N   1       8.043  18.486   1.680  0.00  0.00     0.000 C 
BRANCH   9  10
HETATM   10  C   UNK N   1       6.791  19.093   1.057  0.00  0.00     0.000 C 
BRANCH  10  11
HETATM   11  C   UNK N   1       6.918  19.370  -0.439  0.00  0.00     0.000 C 
BRANCH  11  12
HETATM   12  C   UNK N   1       6.528  18.157  -1.283  0.00  0.00     0.000 C 
BRANCH  12  13
HETATM   13  C   UNK N   1       5.052  17.811  -1.142  0.00  0.00     0.000 C 
BRANCH  13  14
HETATM   14  C   UNK N   1       4.824  16.945   0.086  0.00  0.00     0.000 C 
BRANCH  14  15
HETATM   15  C   UNK N   1       3.871  17.637   1.049  0.00  0.00     0.000 C 
BRANCH  15  16
HETATM   16  C   UNK N   1       2.438  17.197   0.805  0.00  0.00     0.000 C 
BRANCH  16  17
HETATM   17  C   UNK N   1       1.892  17.810  -0.474  0.00  0.00     0.000 C 
BRANCH  17  18
HETATM   18  C   UNK N   1       0.506  17.267  -0.761  0.00  0.00    -0.000 C 
BRANCH  18  19
HETATM   19  C   UNK N   1      -0.512  17.911   0.161  0.00  0.00    -0.005 C 
HETATM   20  C   UNK N   1      -1.862  17.261  -0.049  0.00  0.00     0.005 C 
ENDBRANCH  18  19
ENDBRANCH  17  18
ENDBRANCH  16  17
ENDBRANCH  15  16
ENDBRANCH  14  15
ENDBRANCH  13  14
ENDBRANCH  12  13
ENDBRANCH  11  12
ENDBRANCH  10  11
ENDBRANCH   9  10
ENDBRANCH   8   9
ENDBRANCH   7   8
ENDBRANCH   6   7
ENDBRANCH   4   6
ENDBRANCH   3   4
ENDBRANCH   2   3
ENDBRANCH   1   2
BRANCH   1  21
HETATM   21  C   UNK N   1      13.330  16.718  -1.838  0.00  0.00     0.213 C 
BRANCH  21  22
HETATM   22  O   UNK N   1      12.981  15.949  -0.745  0.00  0.00    -0.319 OA
BRANCH  22  23
HETATM   23  C   UNK N   1      13.779  14.948  -0.296  0.00  0.00     0.254 C 
HETATM   24  O   UNK N   1      14.835  14.690  -0.856  0.00  0.00    -0.266 OA
HETATM   25  C   UNK N   1      13.376  14.160   0.902  0.00  0.00     0.126 C 
ENDBRANCH  22  23
ENDBRANCH  21  22
ENDBRANCH   1  21
BRANCH   1  26
HETATM   26  O   UNK N   1      14.098  18.253  -0.179  0.00  0.00    -0.312 OA
BRANCH  26  27
HETATM   27  C   UNK N   1      15.304  18.821   0.053  0.00  0.00     0.259 C 
HETATM   28  O   UNK N   1      15.892  18.555   1.087  0.00  0.00    -0.265 OA
BRANCH  27  29
HETATM   29  C   UNK N   1      15.896  19.789  -0.950  0.00  0.00     0.111 C 
BRANCH  29  30
HETATM   30  C   UNK N   1      17.388  20.080  -0.811  0.00  0.00     0.010 C 
BRANCH  30  31
HETATM   31  C   UNK N   1      17.758  20.844   0.452  0.00  0.00     0.000 C 
BRANCH  31  32
HETATM   32  C   UNK N   1      18.363  19.893   1.475  0.00  0.00     0.000 C 
BRANCH  32  33
HETATM   33  C   UNK N   1      19.890  19.808   1.425  0.00  0.00     0.000 C 
BRANCH  33  34
HETATM   34  C   UNK N   1      20.512  19.334   0.102  0.00  0.00     0.004 C 
BRANCH  34  35
HETATM   35  C   UNK N   1      19.731  18.273  -0.674  0.00  0.00     0.027 C 
BRANCH  35  36
HETATM   36  C   UNK N   1      19.287  17.132   0.176  0.00  0.00    -0.030 C 
HETATM   37  C   UNK N   1      18.467  16.219  -0.333  0.00  0.00    -0.027 C 
BRANCH  37  38
HETATM   38  C   UNK N   1      18.014  15.074   0.511  0.00  0.00     0.053 C 
BRANCH  38  39
HETATM   39  C   UNK N   1      18.467  13.768  -0.074  0.00  0.00    -0.027 C 
HETATM   40  C   UNK N   1      19.754  13.401  -0.143  0.00  0.00    -0.030 C 
BRANCH  40  41
HETATM   41  C   UNK N   1      20.866  14.261   0.370  0.00  0.00     0.027 C 
BRANCH  41  42
HETATM   42  C   UNK N   1      21.729  14.711  -0.794  0.00  0.00     0.004 C 
BRANCH  42  43
HETATM   43  C   UNK N   1      22.761  15.725  -0.336  0.00  0.00    -0.000 C 
BRANCH  43  44
HETATM   44  C   UNK N   1      23.912  15.029   0.363  0.00  0.00    -0.005 C 
HETATM   45  C   UNK N   1      24.957  16.053   0.751  0.00  0.00     0.005 C 
ENDBRANCH  43  44
ENDBRANCH  42  43
ENDBRANCH  41  42
ENDBRANCH  40  41
ENDBRANCH  38  39
ENDBRANCH  37  38
ENDBRANCH  35  36
ENDBRANCH  34  35
ENDBRANCH  33  34
ENDBRANCH  32  33
ENDBRANCH  31  32
ENDBRANCH  30  31
ENDBRANCH  29  30
ENDBRANCH  27  29
ENDBRANCH  26  27
ENDBRANCH   1  26
TORSDOF 36
