REMARK  4 active torsions:
REMARK  status: ('A' for Active; 'I' for Inactive)
REMARK    1  A    between atoms: C_3  and  C_2 
REMARK    2  A    between atoms: C_8  and  C_3 
REMARK    3  A    between atoms: C_9  and  C_7 
REMARK    4  A    between atoms: S_14  and  C_9 
ROOT
HETATM    1  C   UNK N   1       0.919  -1.214   0.000  0.00  0.00     0.031 A 
HETATM    2  C   UNK N   1       2.179  -0.608   0.000  0.00  0.00     0.089 A 
HETATM    3  C   UNK N   1      -0.091   0.974  -0.000  0.00  0.00     0.039 A 
HETATM    4  C   UNK N   1      -0.231  -0.416   0.000  0.00  0.00    -0.000 A 
HETATM    5  C   UNK N   1       1.178   1.546  -0.000  0.00  0.00     0.009 A 
HETATM    6  N   UNK N   1       2.284   0.754  -0.000  0.00  0.00    -0.369 N 
ATOM      7  HN  UNK N   1       3.208   1.185  -0.000  1.00  0.00     0.165 HD
ENDROOT
BRANCH   4   8
HETATM    8  C   UNK N   1      -1.586  -1.011   0.000  0.00  0.00     0.071 C 
HETATM    9  N   UNK N   1      -1.735  -2.286   0.000  0.00  0.00    -0.393 N 
HETATM   10  H   UNK N   1      -2.638  -2.677   0.000  0.00  0.00     0.156 HD
ATOM     11  HN  UNK N   1      -0.916  -2.895   0.000  1.00  0.00     0.156 HD
BRANCH   8  12
HETATM   12  S   UNK N   1      -3.046   0.037   0.000  0.00  0.00    -0.125 SA
HETATM   13  H   UNK N   1      -2.911   1.391   0.000  0.00  0.00     0.108 HD
ENDBRANCH   8  12
ENDBRANCH   4   8
BRANCH   5  14
HETATM   14  C   UNK N   1       1.269   3.042  -0.000  0.00  0.00     0.056 C 
BRANCH  14  15
HETATM   15  C   UNK N   1       2.684   3.582  -0.000  0.00  0.00     0.002 C 
HETATM   16  C   UNK N   1       2.613   5.095  -0.000  0.00  0.00     0.005 C 
ENDBRANCH  14  15
ENDBRANCH   5  14
TORSDOF 4
