REMARK  12 active torsions:
REMARK  status: ('A' for Active; 'I' for Inactive)
REMARK    1  A    between atoms: C_3  and  C_14 
REMARK    2  A    between atoms: C_6  and  C_8 
REMARK    3  A    between atoms: C_14  and  O_15 
REMARK    4  A    between atoms: O_15  and  C_16 
REMARK    5  A    between atoms: C_19  and  C_22 
REMARK    6  A    between atoms: C_22  and  O_23 
REMARK    7  A    between atoms: O_23  and  N_24 
REMARK    8  A    between atoms: C_26  and  C_27 
REMARK    9  A    between atoms: C_26  and  C_32 
REMARK   10  A    between atoms: C_27  and  C_28 
REMARK   11  A    between atoms: C_28  and  C_29 
REMARK   12  A    between atoms: C_29  and  O_31 
ROOT
HETATM    1  C   UNK N   1       5.521  -7.136   0.148  0.00  0.00     0.069 A 
HETATM    2  C   UNK N   1       6.061  -6.411  -0.927  0.00  0.00     0.037 A 
HETATM    3  C   UNK N   1       7.443  -6.316  -1.078  0.00  0.00     0.012 A 
HETATM    4  C   UNK N   1       8.293  -6.943  -0.157  0.00  0.00    -0.032 A 
HETATM    5  C   UNK N   1       7.759  -7.690   0.893  0.00  0.00     0.012 A 
HETATM    6  C   UNK N   1       6.375  -7.788   1.042  0.00  0.00     0.037 A 
ENDROOT
BRANCH   4   7
HETATM    7  C   UNK N   1       9.774  -6.737  -0.235  0.00  0.00     0.239 C 
BRANCH   7   8
HETATM    8  O   UNK N   1      10.139  -5.413  -0.034  0.00  0.00    -0.276 OA
BRANCH   8   9
HETATM    9  N   UNK N   1       9.244  -4.451   0.103  0.00  0.00    -0.270 N 
HETATM   10  C   UNK N   1       9.541  -3.194   0.160  0.00  0.00     0.043 C 
ATOM     11  HN  UNK N   1       8.261  -4.715   0.167  1.00  0.00     0.194 HD
BRANCH  10  12
HETATM   12  C   UNK N   1       8.411  -2.188   0.247  0.00  0.00     0.070 C 
BRANCH  12  13
HETATM   13  C   UNK N   1       7.024  -2.841   0.214  0.00  0.00     0.116 C 
BRANCH  13  14
HETATM   14  C   UNK N   1       5.896  -1.860   0.072  0.00  0.00     0.139 C 
HETATM   15  O   UNK N   1       6.110  -0.659   0.004  0.00  0.00    -0.650 OA
BRANCH  14  16
HETATM   16  O   UNK N   1       4.631  -2.315   0.013  0.00  0.00    -0.776 OA
HETATM   17  H   UNK N   1       3.916  -1.710  -0.028  0.00  0.00     0.167 HD
ENDBRANCH  14  16
ENDBRANCH  13  14
ENDBRANCH  12  13
ENDBRANCH  10  12
BRANCH  10  18
HETATM   18  C   UNK N   1      10.951  -2.697   0.097  0.00  0.00    -0.012 A 
HETATM   19  C   UNK N   1      11.202  -1.315   0.072  0.00  0.00     0.013 A 
HETATM   20  C   UNK N   1      12.511  -0.831   0.002  0.00  0.00     0.001 A 
HETATM   21  C   UNK N   1      13.586  -1.721  -0.041  0.00  0.00     0.000 A 
HETATM   22  C   UNK N   1      13.353  -3.097  -0.011  0.00  0.00     0.001 A 
HETATM   23  C   UNK N   1      12.045  -3.579   0.056  0.00  0.00     0.013 A 
ENDBRANCH  10  18
ENDBRANCH   8   9
ENDBRANCH   7   8
ENDBRANCH   4   7
BRANCH   1  24
HETATM   24  O   UNK N   1       4.190  -7.215   0.348  0.00  0.00    -0.345 OA
BRANCH  24  25
HETATM   25  C   UNK N   1       3.257  -6.690  -0.515  0.00  0.00     0.235 C 
BRANCH  25  26
HETATM   26  C   UNK N   1       2.007  -7.469  -0.341  0.00  0.00     0.065 A 
HETATM   27  C   UNK N   1       0.743  -6.993  -0.083  0.00  0.00     0.076 A 
HETATM   28  C   UNK N   1       0.325  -5.572   0.056  0.00  0.00     0.079 C 
HETATM   29  O   UNK N   1      -0.054  -8.027   0.037  0.00  0.00    -0.296 OA
HETATM   30  C   UNK N   1       0.677  -9.110  -0.134  0.00  0.00     0.158 A 
HETATM   31  N   UNK N   1       1.970  -8.808  -0.376  0.00  0.00    -0.336 N 
ATOM     32  HN  UNK N   1       2.742  -9.452  -0.546  1.00  0.00     0.168 HD
BRANCH  30  33
HETATM   33  C   UNK N   1       0.178 -10.484  -0.042  0.00  0.00     0.015 A 
HETATM   34  C   UNK N   1       1.066 -11.560  -0.179  0.00  0.00     0.016 A 
HETATM   35  C   UNK N   1       0.601 -12.873  -0.076  0.00  0.00     0.001 A 
HETATM   36  C   UNK N   1      -0.754 -13.116   0.163  0.00  0.00     0.000 A 
HETATM   37  C   UNK N   1      -1.643 -12.045   0.300  0.00  0.00     0.001 A 
HETATM   38  C   UNK N   1      -1.178 -10.731   0.201  0.00  0.00     0.016 A 
ENDBRANCH  30  33
ENDBRANCH  25  26
ENDBRANCH  24  25
ENDBRANCH   1  24
TORSDOF 12
