REMARK  14 active torsions:
REMARK  status: ('A' for Active; 'I' for Inactive)
REMARK    1  A    between atoms: N_2  and  C_4 
REMARK    2  A    between atoms: C_4  and  C_5 
REMARK    3  A    between atoms: C_5  and  C_6 
REMARK    4  A    between atoms: C_6  and  N_7 
REMARK       I    between atoms: N_7  and  C_8 
REMARK    5  A    between atoms: C_8  and  C_10 
REMARK    6  A    between atoms: C_10  and  C_20 
REMARK    7  A    between atoms: C_11  and  C_12 
REMARK    8  A    between atoms: C_12  and  C_13 
REMARK    9  A    between atoms: C_13  and  C_14 
REMARK   10  A    between atoms: C_14  and  C_15 
REMARK   11  A    between atoms: C_15  and  C_16 
REMARK       I    between atoms: C_16  and  N_18 
REMARK   12  A    between atoms: N_18  and  O_19 
REMARK   13  A    between atoms: C_20  and  O_21 
REMARK   14  A    between atoms: O_21  and  C_22 
ROOT
HETATM    1  C   UNK N   1      -6.843  -2.447  -0.030  0.00  0.00     0.030 C 
HETATM    2  C   UNK N   1      -5.508  -2.687   0.009  0.00  0.00    -0.012 C 
ENDROOT
BRANCH   1   3
HETATM    3  C   UNK N   1      -7.730  -3.663  -0.083  0.00  0.00     0.249 C 
HETATM    4  N   UNK N   1      -9.090  -3.621  -0.032  0.00  0.00    -0.357 N 
HETATM    5  H   UNK N   1      -9.560  -4.485  -0.073  0.00  0.00     0.162 HD
HETATM    6  O   UNK N   1      -7.203  -4.761  -0.159  0.00  0.00    -0.268 OA
BRANCH   4   7
HETATM    7  C   UNK N   1      -9.912  -2.446   0.074  0.00  0.00     0.124 C 
BRANCH   7   8
HETATM    8  C   UNK N   1     -11.318  -2.890   0.430  0.00  0.00     0.050 C 
BRANCH   8   9
HETATM    9  C   UNK N   1     -12.335  -2.233  -0.481  0.00  0.00     0.273 C 
BRANCH   9  10
HETATM   10  N   UNK N   1     -13.051  -1.200   0.245  0.00  0.00     0.080 N 
HETATM   11  C   UNK N   1     -14.463  -1.529   0.178  0.00  0.00     0.309 C 
HETATM   12  C   UNK N   1     -12.875   0.035  -0.494  0.00  0.00     0.309 C 
ENDBRANCH   9  10
ENDBRANCH   8   9
ENDBRANCH   7   8
ENDBRANCH   4   7
ENDBRANCH   1   3
BRANCH   1  13
HETATM   13  C   UNK N   1      -7.433  -1.040  -0.006  0.00  0.00     0.219 C 
BRANCH  13  14
HETATM   14  O   UNK N   1      -6.477  -0.046   0.004  0.00  0.00    -0.346 OA
BRANCH  14  15
HETATM   15  C   UNK N   1      -6.656   1.302   0.005  0.00  0.00     0.080 A 
HETATM   16  C   UNK N   1      -5.498   2.091  -0.005  0.00  0.00     0.037 A 
HETATM   17  C   UNK N   1      -5.569   3.483  -0.008  0.00  0.00     0.004 A 
HETATM   18  C   UNK N   1      -6.806   4.120  -0.000  0.00  0.00     0.012 A 
HETATM   19  C   UNK N   1      -7.980   3.369   0.011  0.00  0.00    -0.023 A 
HETATM   20  C   UNK N   1      -7.924   1.948   0.015  0.00  0.00     0.007 A 
HETATM   21  C   UNK N   1      -9.213   4.026   0.020  0.00  0.00     0.012 A 
HETATM   22  C   UNK N   1      -9.129   1.230   0.028  0.00  0.00     0.015 A 
HETATM   23  C   UNK N   1     -10.355   1.897   0.038  0.00  0.00     0.001 A 
HETATM   24  C   UNK N   1     -10.399   3.292   0.033  0.00  0.00     0.001 A 
ENDBRANCH  14  15
ENDBRANCH  13  14
ENDBRANCH   1  13
BRANCH   2  25
HETATM   25  C   UNK N   1      -4.420  -1.665   0.075  0.00  0.00     0.028 C 
BRANCH  25  26
HETATM   26  C   UNK N   1      -3.138  -2.307   0.556  0.00  0.00     0.004 C 
BRANCH  26  27
HETATM   27  C   UNK N   1      -2.185  -2.532  -0.603  0.00  0.00     0.010 C 
BRANCH  27  28
HETATM   28  C   UNK N   1      -0.773  -2.625  -0.051  0.00  0.00     0.105 C 
BRANCH  28  29
HETATM   29  C   UNK N   1      -0.156  -1.269   0.110  0.00  0.00     0.240 C 
HETATM   30  O   UNK N   1      -0.760  -0.384   0.699  0.00  0.00    -0.271 OA
HETATM   31  N   UNK N   1       1.085  -1.040  -0.371  0.00  0.00    -0.237 N 
HETATM   32  H   UNK N   1       1.562  -1.758  -0.846  0.00  0.00     0.197 HD
BRANCH  31  33
HETATM   33  O   UNK N   1       1.675   0.152  -0.208  0.00  0.00    -0.287 OA
HETATM   34  H   UNK N   1       2.636   0.214  -0.091  0.00  0.00     0.244 HD
ENDBRANCH  31  33
ENDBRANCH  28  29
ENDBRANCH  27  28
ENDBRANCH  26  27
ENDBRANCH  25  26
ENDBRANCH   2  25
TORSDOF 14
