REMARK  1 active torsions:
REMARK  status: ('A' for Active; 'I' for Inactive)
REMARK    1  A    between atoms: C_9  and  C_14 
ROOT
HETATM    1  C   UNK N   1       2.858  -4.125   0.000  0.00  0.00     0.210 A 
HETATM    2  C   UNK N   1       2.143  -3.712   0.000  0.00  0.00    -0.098 A 
HETATM    3  C   UNK N   1       1.429  -3.300   0.000  0.00  0.00     0.014 A 
HETATM    4  N   UNK N   1       3.572  -3.712   0.000  0.00  0.00    -0.403 N 
HETATM    5  C   UNK N   1       3.572  -2.888   0.000  0.00  0.00     0.144 A 
HETATM    6  C   UNK N   1       4.287  -4.125   0.000  0.00  0.00     0.079 A 
HETATM    7  C   UNK N   1       4.287  -4.950   0.000  0.00  0.00     0.032 A 
HETATM    8  C   UNK N   1       5.001  -3.712   0.000  0.00  0.00     0.063 A 
HETATM    9  C   UNK N   1       5.716  -4.125   0.000  0.00  0.00    -0.056 A 
HETATM   10  C   UNK N   1       6.430  -3.712   0.000  0.00  0.00     0.007 A 
HETATM   11  C   UNK N   1       7.145  -4.125   0.000  0.00  0.00     0.001 A 
HETATM   12  C   UNK N   1       7.145  -4.950   0.000  0.00  0.00     0.000 A 
HETATM   13  C   UNK N   1       6.430  -5.362   0.000  0.00  0.00     0.001 A 
HETATM   14  C   UNK N   1       5.716  -4.950   0.000  0.00  0.00     0.007 A 
ENDROOT
TORSDOF 1
