REMARK  4 active torsions:
REMARK  status: ('A' for Active; 'I' for Inactive)
REMARK    1  A    between atoms: C_3  and  C_6 
REMARK    2  A    between atoms: C_6  and  O_8 
REMARK    3  A    between atoms: O_8  and  C_9 
REMARK       I    between atoms: N_18  and  C_19 
REMARK    4  A    between atoms: C_19  and  C_21 
ROOT
HETATM    1  C   UNK N   1      -0.951   0.023   0.016  0.00  0.00     0.080 A 
HETATM    2  C   UNK N   1      -1.081  -1.361  -0.014  0.00  0.00     0.039 A 
HETATM    3  C   UNK N   1       0.044  -2.176   0.009  0.00  0.00     0.033 A 
HETATM    4  C   UNK N   1       1.335  -1.647   0.063  0.00  0.00     0.043 A 
HETATM    5  C   UNK N   1       1.469  -0.232   0.084  0.00  0.00    -0.028 A 
HETATM    6  C   UNK N   1       0.333   0.588   0.065  0.00  0.00     0.046 A 
HETATM    7  C   UNK N   1       2.819   0.416   0.119  0.00  0.00     0.042 C 
HETATM    8  C   UNK N   1       3.872  -0.502  -0.476  0.00  0.00     0.025 C 
HETATM    9  C   UNK N   1       3.814  -1.838   0.244  0.00  0.00     0.132 C 
HETATM   10  N   UNK N   1       2.518  -2.489   0.086  0.00  0.00    -0.315 N 
HETATM   11  C   UNK N   1       2.522  -3.874   0.013  0.00  0.00     0.257 C 
HETATM   12  O   UNK N   1       3.596  -4.461   0.037  0.00  0.00    -0.270 OA
ENDROOT
BRANCH   1  13
HETATM   13  O   UNK N   1      -2.086   0.766  -0.002  0.00  0.00    -0.273 OA
BRANCH  13  14
HETATM   14  C   UNK N   1      -2.211   2.118   0.002  0.00  0.00     0.322 C 
HETATM   15  O   UNK N   1      -1.233   2.851   0.005  0.00  0.00    -0.257 OA
BRANCH  14  16
HETATM   16  C   UNK N   1      -3.562   2.692   0.000  0.00  0.00     0.150 A 
HETATM   17  C   UNK N   1      -3.881   4.032  -0.001  0.00  0.00     0.045 A 
HETATM   18  C   UNK N   1      -5.264   4.078  -0.003  0.00  0.00     0.027 A 
HETATM   19  C   UNK N   1      -5.699   2.763  -0.001  0.00  0.00     0.143 A 
HETATM   20  O   UNK N   1      -4.654   1.970   0.000  0.00  0.00    -0.317 OA
ENDBRANCH  14  16
ENDBRANCH  13  14
ENDBRANCH   1  13
BRANCH  11  21
HETATM   21  C   UNK N   1       1.300  -4.760  -0.071  0.00  0.00     0.270 C 
HETATM   22 Cl   UNK N   1       0.311  -4.825   1.417  0.00  0.00    -0.098 Cl
HETATM   23 Cl   UNK N   1       0.363  -4.688  -1.592  0.00  0.00    -0.098 Cl
ENDBRANCH  11  21
TORSDOF 4
