REMARK  6 active torsions:
REMARK  status: ('A' for Active; 'I' for Inactive)
REMARK    1  A    between atoms: C_3  and  C_16 
REMARK    2  A    between atoms: C_5  and  O_7 
REMARK    3  A    between atoms: O_7  and  C_8 
REMARK    4  A    between atoms: C_8  and  C_9 
REMARK    5  A    between atoms: C_9  and  N_10 
REMARK    6  A    between atoms: C_19  and  C_26 
ROOT
HETATM    1  C   UNK N   1       1.192  -0.985   0.300  0.00  0.00     0.071 A 
HETATM    2  C   UNK N   1       2.540  -1.197   0.205  0.00  0.00     0.022 A 
HETATM    3  C   UNK N   1       3.601  -0.315   0.142  0.00  0.00     0.031 A 
HETATM    4  C   UNK N   1       4.890  -0.837  -0.000  0.00  0.00     0.010 A 
HETATM    5  C   UNK N   1       5.077  -2.244  -0.082  0.00  0.00     0.017 A 
HETATM    6  C   UNK N   1       3.965  -3.118  -0.016  0.00  0.00     0.033 A 
HETATM    7  C   UNK N   1       2.703  -2.541   0.131  0.00  0.00     0.060 A 
HETATM    8  N   UNK N   1       1.500  -3.144   0.188  0.00  0.00    -0.299 N 
HETATM    9  N   UNK N   1       0.572  -2.191   0.285  0.00  0.00    -0.299 N 
ATOM     10  HN  UNK N   1      -0.435  -2.343   0.340  1.00  0.00     0.187 HD
HETATM   11  H   UNK N   1       1.335  -4.114   0.163  0.00  0.00     0.187 HD
ENDROOT
BRANCH   1  12
HETATM   12  C   UNK N   1       0.522   0.330   0.307  0.00  0.00    -0.004 A 
HETATM   13  C   UNK N   1       1.283   1.511   0.321  0.00  0.00     0.014 A 
HETATM   14  C   UNK N   1       0.669   2.754   0.187  0.00  0.00     0.004 A 
HETATM   15  C   UNK N   1      -0.709   2.824  -0.010  0.00  0.00     0.037 A 
HETATM   16  C   UNK N   1      -1.483   1.650  -0.020  0.00  0.00     0.069 A 
HETATM   17  C   UNK N   1      -0.865   0.409   0.159  0.00  0.00     0.050 A 
BRANCH  16  18
HETATM   18  O   UNK N   1      -2.804   1.686  -0.289  0.00  0.00    -0.349 OA
BRANCH  18  19
HETATM   19  C   UNK N   1      -3.302   2.533  -1.253  0.00  0.00     0.206 C 
BRANCH  19  20
HETATM   20  C   UNK N   1      -4.377   3.467  -0.718  0.00  0.00     0.299 C 
BRANCH  20  21
HETATM   21  N   UNK N   1      -3.844   4.599   0.038  0.00  0.00     0.090 N 
HETATM   22  C   UNK N   1      -4.969   5.526   0.176  0.00  0.00     0.272 C 
HETATM   23  C   UNK N   1      -4.557   6.776   0.951  0.00  0.00     0.030 C 
HETATM   24  C   UNK N   1      -3.391   7.461   0.248  0.00  0.00     0.003 C 
HETATM   25  C   UNK N   1      -2.254   6.469   0.044  0.00  0.00     0.030 C 
HETATM   26  C   UNK N   1      -2.787   5.269  -0.731  0.00  0.00     0.272 C 
ENDBRANCH  20  21
ENDBRANCH  19  20
ENDBRANCH  18  19
ENDBRANCH  16  18
ENDBRANCH   1  12
BRANCH   4  27
HETATM   27  C   UNK N   1       6.012   0.109  -0.055  0.00  0.00     0.131 A 
HETATM   28  N   UNK N   1       5.861   1.444   0.040  0.00  0.00    -0.336 N 
HETATM   29  C   UNK N   1       7.120   1.913  -0.048  0.00  0.00     0.199 A 
ATOM     30  HN  UNK N   1       4.997   1.974   0.151  1.00  0.00     0.168 HD
HETATM   31  N   UNK N   1       7.994   0.897  -0.190  0.00  0.00    -0.295 N 
HETATM   32  N   UNK N   1       7.300  -0.232  -0.194  0.00  0.00    -0.284 N 
HETATM   33  H   UNK N   1       8.971   0.979  -0.275  0.00  0.00     0.187 HD
ATOM     34  HN  UNK N   1       7.674  -1.176  -0.286  1.00  0.00     0.188 HD
ENDBRANCH   4  27
TORSDOF 6
