REMARK  2 active torsions:
REMARK  status: ('A' for Active; 'I' for Inactive)
REMARK    1  A    between atoms: C_6  and  C_12 
REMARK       I    between atoms: C_12  and  N_14 
REMARK    2  A    between atoms: N_25  and  C_30 
ROOT
HETATM    1  C   UNK N   1       5.560   0.260  -0.094  0.00  0.00     0.253 C 
HETATM    2  O   UNK N   1       6.177  -0.625   0.486  0.00  0.00    -0.267 OA
HETATM    3  N   UNK N   1       4.233   0.063  -0.383  0.00  0.00    -0.348 N 
HETATM    4  C   UNK N   1       3.514  -1.014   0.248  0.00  0.00     0.127 C 
HETATM    5  C   UNK N   1       2.602  -0.362   1.303  0.00  0.00     0.030 C 
HETATM    6  C   UNK N   1       1.683   0.716   0.691  0.00  0.00    -0.026 C 
HETATM    7  C   UNK N   1       2.481   1.684  -0.212  0.00  0.00     0.030 C 
HETATM    8  C   UNK N   1       3.444   0.991  -1.152  0.00  0.00     0.127 C 
HETATM    9  C   UNK N   1       0.545  -0.001  -0.088  0.00  0.00     0.052 C 
HETATM   10  C   UNK N   1      -0.553   0.958  -0.448  0.00  0.00    -0.009 A 
HETATM   11  C   UNK N   1      -1.526   0.854  -1.420  0.00  0.00     0.117 A 
HETATM   12  N   UNK N   1      -2.227   2.013  -1.425  0.00  0.00    -0.308 N 
ATOM     13  HN  UNK N   1      -3.013   2.229  -2.038  1.00  0.00     0.186 HD
HETATM   14  N   UNK N   1      -1.725   2.822  -0.502  0.00  0.00    -0.284 N 
HETATM   15  C   UNK N   1      -0.714   2.186   0.126  0.00  0.00     0.104 A 
HETATM   16  C   UNK N   1       0.153   2.627   1.232  0.00  0.00     0.178 C 
HETATM   17  O   UNK N   1       0.133   3.769   1.660  0.00  0.00    -0.291 OA
HETATM   18  C   UNK N   1       1.094   1.594   1.815  0.00  0.00     0.095 C 
ENDROOT
BRANCH   1  19
HETATM   19  C   UNK N   1       6.265   1.561  -0.333  0.00  0.00     0.034 A 
HETATM   20  C   UNK N   1       7.636   1.666   0.002  0.00  0.00     0.049 A 
HETATM   21  C   UNK N   1       8.226   2.924  -0.047  0.00  0.00     0.061 A 
HETATM   22  N   UNK N   1       9.491   3.255   0.248  0.00  0.00    -0.344 N 
HETATM   23  C   UNK N   1       7.529   4.039  -0.387  0.00  0.00     0.060 A 
HETATM   24  C   UNK N   1       9.521   4.600   0.074  0.00  0.00     0.078 A 
HETATM   25  H   UNK N   1      10.225   2.661   0.526  0.00  0.00     0.167 HD
HETATM   26  C   UNK N   1      10.733   5.429   0.301  0.00  0.00     0.089 C 
HETATM   27  N   UNK N   1       8.327   5.113  -0.317  0.00  0.00    -0.344 N 
ATOM     28  HN  UNK N   1       8.093   6.087  -0.511  1.00  0.00     0.167 HD
HETATM   29  C   UNK N   1       6.187   3.995  -0.734  0.00  0.00     0.033 A 
HETATM   30  C   UNK N   1       5.556   2.739  -0.699  0.00  0.00     0.019 A 
ENDBRANCH   1  19
BRANCH  14  31
HETATM   31  C   UNK N   1      -2.226   4.179  -0.296  0.00  0.00     0.100 C 
HETATM   32  C   UNK N   1      -2.719   4.387   1.123  0.00  0.00     0.034 C 
HETATM   33  C   UNK N   1      -1.166   5.204  -0.659  0.00  0.00     0.034 C 
ENDBRANCH  14  31
TORSDOF 2
