REMARK  6 active torsions:
REMARK  status: ('A' for Active; 'I' for Inactive)
REMARK    1  A    between atoms: C_3  and  N_24 
REMARK    2  A    between atoms: C_6  and  C_7 
REMARK    3  A    between atoms: C_7  and  O_9 
REMARK    4  A    between atoms: O_9  and  C_10 
REMARK    5  A    between atoms: C_15  and  C_20 
REMARK    6  A    between atoms: C_20  and  N_23 
REMARK       I    between atoms: N_24  and  C_25 
REMARK       I    between atoms: C_25  and  N_28 
ROOT
HETATM    1  O   UNK N   1      -0.118  -1.674  -0.000  0.00  0.00    -0.275 OA
ENDROOT
BRANCH   1   2
HETATM    2  C   UNK N   1      -0.210  -3.035  -0.000  0.00  0.00     0.298 C 
HETATM    3  O   UNK N   1       0.791  -3.742  -0.000  0.00  0.00    -0.259 OA
BRANCH   2   4
HETATM    4  C   UNK N   1      -1.539  -3.657  -0.000  0.00  0.00     0.040 A 
HETATM    5  C   UNK N   1      -2.670  -2.838   0.000  0.00  0.00     0.020 A 
HETATM    6  C   UNK N   1      -3.941  -3.400   0.000  0.00  0.00     0.031 A 
HETATM    7  C   UNK N   1      -4.105  -4.791   0.000  0.00  0.00     0.049 A 
HETATM    8  C   UNK N   1      -2.972  -5.614  -0.000  0.00  0.00     0.031 A 
HETATM    9  C   UNK N   1      -1.691  -5.050  -0.000  0.00  0.00     0.020 A 
BRANCH   7  10
HETATM   10  N   UNK N   1      -5.395  -5.388   0.000  0.00  0.00    -0.193 N 
HETATM   11  C   UNK N   1      -6.637  -4.685   0.000  0.00  0.00     0.669 C 
HETATM   12  N   UNK N   1      -7.731  -5.349   0.000  0.00  0.00    -0.235 N 
HETATM   13  N   UNK N   1      -6.687  -3.272  -0.000  0.00  0.00    -0.235 N 
HETATM   14  H   UNK N   1      -8.594  -4.875   0.000  0.00  0.00     0.174 HD
ATOM     15  HN  UNK N   1      -7.710  -6.368   0.000  1.00  0.00     0.174 HD
HETATM   16  H   UNK N   1      -5.853  -2.749  -0.000  0.00  0.00     0.174 HD
HETATM   17  H   UNK N   1      -7.557  -2.810  -0.000  0.00  0.00     0.174 HD
HETATM   18  H   UNK N   1      -5.435  -6.372   0.000  0.00  0.00     0.184 HD
ENDBRANCH   7  10
ENDBRANCH   2   4
ENDBRANCH   1   2
BRANCH   1  19
HETATM   19  C   UNK N   1       1.013  -0.925  -0.000  0.00  0.00     0.080 A 
HETATM   20  C   UNK N   1       0.904   0.472  -0.000  0.00  0.00     0.038 A 
HETATM   21  C   UNK N   1       2.053   1.274  -0.000  0.00  0.00     0.015 A 
HETATM   22  C   UNK N   1       3.317   0.677  -0.000  0.00  0.00    -0.025 A 
HETATM   23  C   UNK N   1       4.475   1.461  -0.000  0.00  0.00     0.027 A 
HETATM   24  C   UNK N   1       3.427  -0.729   0.000  0.00  0.00    -0.023 A 
HETATM   25  C   UNK N   1       5.740   0.849   0.000  0.00  0.00     0.008 A 
HETATM   26  C   UNK N   1       5.832  -0.552   0.000  0.00  0.00     0.016 A 
HETATM   27  C   UNK N   1       4.680  -1.336   0.000  0.00  0.00     0.013 A 
HETATM   28  C   UNK N   1       2.284  -1.515   0.000  0.00  0.00     0.049 A 
BRANCH  25  29
HETATM   29  C   UNK N   1       6.968   1.668   0.000  0.00  0.00     0.102 C 
HETATM   30  N   UNK N   1       8.122   1.106   0.000  0.00  0.00    -0.385 N 
HETATM   31  H   UNK N   1       8.191   0.124   0.000  0.00  0.00     0.157 HD
ATOM     32  HN  UNK N   1       8.967   1.677   0.000  1.00  0.00     0.157 HD
BRANCH  29  33
HETATM   33  N   UNK N   1       6.884   3.079  -0.000  0.00  0.00    -0.385 N 
HETATM   34  H   UNK N   1       7.706   3.621  -0.000  0.00  0.00     0.157 HD
HETATM   35  H   UNK N   1       6.004   3.519  -0.000  0.00  0.00     0.157 HD
ENDBRANCH  29  33
ENDBRANCH  25  29
ENDBRANCH   1  19
TORSDOF 6
