REMARK  8 active torsions:
REMARK  status: ('A' for Active; 'I' for Inactive)
REMARK    1  A    between atoms: C_2  and  C_3 
REMARK    2  A    between atoms: C_3  and  C_4 
REMARK    3  A    between atoms: C_4  and  C_6 
REMARK    4  A    between atoms: C_6  and  C_7 
REMARK    5  A    between atoms: C_7  and  C_8 
REMARK    6  A    between atoms: C_7  and  N_12 
REMARK    7  A    between atoms: C_8  and  C_9 
REMARK    8  A    between atoms: C_9  and  O_11 
ROOT
HETATM    1  C   UNK N   1       6.914   2.301   0.195  0.00  0.00     0.084 C 
ENDROOT
BRANCH   1   2
HETATM    2  C   UNK N   1       5.631   3.010  -0.234  0.00  0.00     0.029 C 
BRANCH   2   3
HETATM    3  C   UNK N   1       4.342   2.377   0.290  0.00  0.00    -0.017 C 
HETATM    4  C   UNK N   1       4.142   0.981  -0.283  0.00  0.00     0.010 C 
BRANCH   3   5
HETATM    5  C   UNK N   1       3.183   3.269  -0.134  0.00  0.00     0.004 C 
BRANCH   5   6
HETATM    6  C   UNK N   1       1.863   2.792   0.448  0.00  0.00    -0.004 C 
HETATM    7  C   UNK N   1       0.738   3.656  -0.083  0.00  0.00     0.005 C 
ENDBRANCH   5   6
ENDBRANCH   3   5
ENDBRANCH   2   3
ENDBRANCH   1   2
BRANCH   1   8
HETATM    8  C   UNK N   1       8.086   3.210  -0.172  0.00  0.00     0.134 C 
BRANCH   8   9
HETATM    9  C   UNK N   1       9.453   2.636   0.084  0.00  0.00     0.141 C 
HETATM   10  O   UNK N   1      10.437   3.331  -0.107  0.00  0.00    -0.650 OA
BRANCH   9  11
HETATM   11  O   UNK N   1       9.610   1.364   0.502  0.00  0.00    -0.776 OA
HETATM   12  H   UNK N   1       8.899   0.828   0.792  0.00  0.00     0.167 HD
ENDBRANCH   9  11
ENDBRANCH   8   9
ENDBRANCH   1   8
BRANCH   1  13
HETATM   13  N   UNK N   1       7.030   1.032  -0.506  0.00  0.00    -0.426 N 
HETATM   14  H   UNK N   1       6.300   0.516  -0.997  0.00  0.00     0.150 HD
HETATM   15  H   UNK N   1       7.957   0.604  -0.506  0.00  0.00     0.150 HD
ENDBRANCH   1  13
TORSDOF 8
