REMARK  0 active torsions:
REMARK  status: ('A' for Active; 'I' for Inactive)
ROOT
HETATM    1  C   UNK N   1       0.879   2.966  -0.171  0.00  0.00     0.032 C 
HETATM    2  C   UNK N   1       1.474   2.066  -1.240  0.00  0.00     0.078 C 
HETATM    3  C   UNK N   1       3.013   2.061  -1.205  0.00  0.00     0.066 C 
HETATM    4  C   UNK N   1       3.514   0.992  -0.293  0.00  0.00    -0.018 A 
HETATM    5  C   UNK N   1       4.805   0.624  -0.011  0.00  0.00     0.002 A 
HETATM    6  C   UNK N   1       6.020   1.130  -0.457  0.00  0.00     0.058 A 
HETATM    7  C   UNK N   1       7.189   0.423  -0.114  0.00  0.00     0.139 A 
HETATM    8  C   UNK N   1       7.108  -0.761   0.662  0.00  0.00     0.074 A 
HETATM    9  C   UNK N   1       5.863  -1.230   1.117  0.00  0.00     0.057 A 
HETATM   10  C   UNK N   1       4.729  -0.507   0.761  0.00  0.00     0.045 A 
HETATM   11  N   UNK N   1       3.453  -0.864   0.980  0.00  0.00    -0.356 N 
HETATM   12  C   UNK N   1       2.709   0.054   0.308  0.00  0.00     0.059 A 
HETATM   13  C   UNK N   1       1.261  -0.122  -0.059  0.00  0.00     0.182 A 
HETATM   14  N   UNK N   1       0.886   0.708  -1.228  0.00  0.00    -0.392 N 
HETATM   15  C   UNK N   1       1.091  -1.588  -0.374  0.00  0.00     0.013 A 
HETATM   16  C   UNK N   1       1.842  -2.369  -1.256  0.00  0.00     0.036 A 
HETATM   17  C   UNK N   1       1.616  -3.753  -1.282  0.00  0.00     0.034 A 
HETATM   18  C   UNK N   1       0.635  -4.327  -0.446  0.00  0.00     0.026 A 
HETATM   19  C   UNK N   1      -0.113  -3.520   0.430  0.00  0.00     0.032 A 
HETATM   20  C   UNK N   1       0.153  -2.153   0.448  0.00  0.00     0.044 A 
HETATM   21  N   UNK N   1      -0.392  -1.208   1.310  0.00  0.00    -0.324 N 
HETATM   22  C   UNK N   1       0.231  -0.036   1.066  0.00  0.00     0.261 A 
HETATM   23  O   UNK N   1      -0.031   0.978   1.688  0.00  0.00    -0.270 OA
HETATM   24 Cl   UNK N   1       2.613  -4.773  -2.296  0.00  0.00    -0.084 Cl
HETATM   25 Cl   UNK N   1       8.553  -1.687   1.020  0.00  0.00    -0.081 Cl
HETATM   26  F   UNK N   1       8.389   0.862  -0.565  0.00  0.00    -0.204 F 
HETATM   27  H   UNK N   1       3.127  -1.626   1.512  0.00  0.00     0.166 HD
HETATM   28  H   UNK N   1       0.270   0.369  -1.966  0.00  0.00     0.155 HD
HETATM   29  H   UNK N   1      -1.100  -1.365   1.975  0.00  0.00     0.169 HD
ENDROOT
TORSDOF 0
