REMARK  23 active torsions:
REMARK  status: ('A' for Active; 'I' for Inactive)
REMARK    1  A    between atoms: O_2  and  C_3 
REMARK    2  A    between atoms: C_3  and  C_4 
REMARK    3  A    between atoms: C_4  and  O_5 
REMARK    4  A    between atoms: O_5  and  C_6 
REMARK    5  A    between atoms: C_6  and  C_7 
REMARK    6  A    between atoms: C_7  and  N_8 
REMARK    7  A    between atoms: N_8  and  C_9 
REMARK       I    between atoms: N_8  and  C_24 
REMARK    8  A    between atoms: C_9  and  C_10 
REMARK       I    between atoms: C_10  and  N_12 
REMARK    9  A    between atoms: N_12  and  C_13 
REMARK   10  A    between atoms: C_13  and  C_14 
REMARK   11  A    between atoms: C_14  and  C_15 
REMARK   12  A    between atoms: C_15  and  C_16 
REMARK   13  A    between atoms: C_16  and  C_17 
REMARK   14  A    between atoms: C_17  and  C_18 
REMARK   15  A    between atoms: C_18  and  O_19 
REMARK   16  A    between atoms: O_19  and  P_20 
REMARK   17  A    between atoms: P_20  and  O_22 
REMARK   18  A    between atoms: P_20  and  O_23 
REMARK   19  A    between atoms: C_24  and  C_26 
REMARK   20  A    between atoms: C_26  and  O_27 
REMARK   21  A    between atoms: O_27  and  C_28 
REMARK   22  A    between atoms: C_28  and  C_29 
REMARK   23  A    between atoms: C_29  and  O_30 
ROOT
HETATM    1  C   UNK N   1       1.847  -8.587  -0.451  0.00  0.00     0.228 C 
ENDROOT
BRANCH   1   2
HETATM    2  N   UNK N   1       2.994  -9.428  -0.185  0.00  0.00    -0.340 N 
HETATM    3  C   UNK N   1       4.260  -8.928  -0.323  0.00  0.00     0.243 C 
HETATM    4  O   UNK N   1       5.232  -9.610  -0.044  0.00  0.00    -0.271 OA
BRANCH   2   5
HETATM    5  C   UNK N   1       2.772 -10.770   0.321  0.00  0.00     0.152 C 
BRANCH   5   6
HETATM    6  C   UNK N   1       3.398 -11.820  -0.591  0.00  0.00     0.187 C 
BRANCH   6   7
HETATM    7  O   UNK N   1       3.750 -12.955   0.151  0.00  0.00    -0.387 OA
BRANCH   7   8
HETATM    8  C   UNK N   1       5.026 -12.686   0.662  0.00  0.00     0.193 C 
BRANCH   8   9
HETATM    9  C   UNK N   1       6.095 -13.323  -0.209  0.00  0.00     0.193 C 
BRANCH   9  10
HETATM   10  O   UNK N   1       7.279 -12.590  -0.103  0.00  0.00    -0.394 OA
HETATM   11  C   UNK N   1       8.143 -13.399   0.635  0.00  0.00     0.201 C 
ENDBRANCH   9  10
ENDBRANCH   8   9
ENDBRANCH   7   8
ENDBRANCH   6   7
ENDBRANCH   5   6
ENDBRANCH   2   5
BRANCH   3  12
HETATM   12  C   UNK N   1       4.481  -7.523  -0.803  0.00  0.00     0.270 C 
BRANCH  12  13
HETATM   13  O   UNK N   1       5.083  -6.760   0.202  0.00  0.00    -0.380 OA
BRANCH  13  14
HETATM   14  C   UNK N   1       4.184  -5.722   0.466  0.00  0.00     0.194 C 
BRANCH  14  15
HETATM   15  C   UNK N   1       4.588  -4.487  -0.321  0.00  0.00     0.193 C 
BRANCH  15  16
HETATM   16  O   UNK N   1       3.779  -3.410   0.036  0.00  0.00    -0.394 OA
HETATM   17  C   UNK N   1       4.640  -2.313   0.022  0.00  0.00     0.201 C 
ENDBRANCH  15  16
ENDBRANCH  14  15
ENDBRANCH  13  14
ENDBRANCH  12  13
ENDBRANCH   3  12
ENDBRANCH   1   2
BRANCH   1  18
HETATM   18  C   UNK N   1       1.169  -8.211   0.841  0.00  0.00     0.235 C 
HETATM   19  O   UNK N   1       1.851  -7.977   1.826  0.00  0.00    -0.272 OA
HETATM   20  N   UNK N   1      -0.174  -8.096   0.932  0.00  0.00    -0.360 N 
HETATM   21  H   UNK N   1      -0.563  -7.853   1.803  0.00  0.00     0.162 HD
BRANCH  20  22
HETATM   22  C   UNK N   1      -1.068  -8.312  -0.179  0.00  0.00     0.122 C 
BRANCH  22  23
HETATM   23  C   UNK N   1      -1.791  -7.023  -0.571  0.00  0.00     0.020 C 
BRANCH  23  24
HETATM   24  C   UNK N   1      -2.083  -6.092   0.603  0.00  0.00     0.002 C 
BRANCH  24  25
HETATM   25  C   UNK N   1      -0.994  -5.028   0.748  0.00  0.00     0.002 C 
BRANCH  25  26
HETATM   26  C   UNK N   1      -0.783  -4.197  -0.523  0.00  0.00     0.027 C 
BRANCH  26  27
HETATM   27  C   UNK N   1      -2.075  -3.617  -1.091  0.00  0.00     0.180 C 
BRANCH  27  28
HETATM   28  O   UNK N   1      -2.805  -2.967  -0.089  0.00  0.00    -0.297 OA
BRANCH  28  29
HETATM   29  P   UNK N   1      -4.414  -2.800  -0.732  0.00  0.00     0.390 P 
HETATM   30  O   UNK N   1      -5.397  -2.328   0.372  0.00  0.00    -0.632 OA
BRANCH  29  31
HETATM   31  O   UNK N   1      -3.805  -1.241  -0.266  0.00  0.00    -0.307 OA
HETATM   32  H   UNK N   1      -2.882  -1.100  -0.006  0.00  0.00     0.222 HD
ENDBRANCH  29  31
BRANCH  29  33
HETATM   33  O   UNK N   1      -4.425  -4.107   0.412  0.00  0.00    -0.307 OA
HETATM   34  H   UNK N   1      -5.061  -4.467   1.051  0.00  0.00     0.222 HD
ENDBRANCH  29  33
ENDBRANCH  28  29
ENDBRANCH  27  28
ENDBRANCH  26  27
ENDBRANCH  25  26
ENDBRANCH  24  25
ENDBRANCH  23  24
ENDBRANCH  22  23
ENDBRANCH  20  22
ENDBRANCH   1  18
TORSDOF 23
