REMARK  5 active torsions:
REMARK  status: ('A' for Active; 'I' for Inactive)
REMARK    1  A    between atoms: O_2  and  C_3 
REMARK    2  A    between atoms: C_13  and  C_5 
REMARK    3  A    between atoms: C_7  and  O_11 
REMARK    4  A    between atoms: C_8  and  O_9 
REMARK    5  A    between atoms: C_20  and  O_27 
ROOT
HETATM    1  C   UNK N   1       3.104  -1.655   0.496  0.00  0.00     0.066 C 
HETATM    2  C   UNK N   1       4.476  -2.370   0.290  0.00  0.00    -0.037 A 
HETATM    3  C   UNK N   1       5.686  -1.709   0.612  0.00  0.00     0.048 A 
HETATM    4  C   UNK N   1       6.891  -2.335   0.333  0.00  0.00     0.105 A 
HETATM    5  C   UNK N   1       6.958  -3.551  -0.207  0.00  0.00     0.105 A 
HETATM    6  C   UNK N   1       5.822  -4.288  -0.510  0.00  0.00     0.050 A 
HETATM    7  C   UNK N   1       4.560  -3.710  -0.253  0.00  0.00    -0.019 A 
HETATM    8  C   UNK N   1       3.336  -4.542  -0.549  0.00  0.00     0.158 C 
HETATM    9  C   UNK N   1       2.129  -3.874   0.060  0.00  0.00     0.058 C 
HETATM   10  C   UNK N   1       2.002  -2.411  -0.298  0.00  0.00     0.107 C 
HETATM   11  C   UNK N   1       0.553  -2.284   0.060  0.00  0.00     0.264 C 
HETATM   12  O   UNK N   1      -0.056  -1.232   0.131  0.00  0.00    -0.265 OA
HETATM   13  O   UNK N   1      -0.083  -3.462   0.135  0.00  0.00    -0.321 OA
HETATM   14  C   UNK N   1       0.759  -4.515  -0.110  0.00  0.00     0.187 C 
HETATM   15  O   UNK N   1       8.233  -3.890  -0.378  0.00  0.00    -0.323 OA
HETATM   16  C   UNK N   1       9.033  -2.832   0.068  0.00  0.00     0.352 A 
HETATM   17  O   UNK N   1       8.126  -1.868   0.515  0.00  0.00    -0.323 OA
ENDROOT
BRANCH   1  18
HETATM   18  C   UNK N   1       3.106  -0.128   0.242  0.00  0.00    -0.043 A 
HETATM   19  C   UNK N   1       4.296   0.594   0.109  0.00  0.00     0.047 A 
HETATM   20  C   UNK N   1       4.330   1.980  -0.028  0.00  0.00     0.104 A 
HETATM   21  C   UNK N   1       3.110   2.707  -0.064  0.00  0.00     0.135 A 
HETATM   22  C   UNK N   1       1.886   1.992   0.047  0.00  0.00     0.104 A 
HETATM   23  C   UNK N   1       1.912   0.595   0.220  0.00  0.00     0.047 A 
BRANCH  20  24
HETATM   24  O   UNK N   1       5.557   2.561  -0.110  0.00  0.00    -0.353 OA
HETATM   25  C   UNK N   1       5.812   3.911  -0.176  0.00  0.00     0.210 C 
ENDBRANCH  20  24
BRANCH  21  26
HETATM   26  O   UNK N   1       3.154   4.062  -0.206  0.00  0.00    -0.351 OA
HETATM   27  C   UNK N   1       2.076   4.916  -0.219  0.00  0.00     0.210 C 
ENDBRANCH  21  26
BRANCH  22  28
HETATM   28  O   UNK N   1       0.700   2.648  -0.014  0.00  0.00    -0.353 OA
HETATM   29  C   UNK N   1      -0.524   2.018   0.012  0.00  0.00     0.210 C 
ENDBRANCH  22  28
ENDBRANCH   1  18
BRANCH   8  30
HETATM   30  O   UNK N   1       3.471  -5.801   0.044  0.00  0.00    -0.390 OA
HETATM   31  H   UNK N   1       2.761  -6.319   0.455  0.00  0.00     0.210 HD
ENDBRANCH   8  30
TORSDOF 5
