REMARK  0 active torsions:
REMARK  status: ('A' for Active; 'I' for Inactive)
REMARK       I    between atoms: C_4  and  N_13 
REMARK       I    between atoms: C_7  and  N_10 
ROOT
HETATM    1  C   UNK N   1       1.128   3.387  -0.000  0.00  0.00     0.056 C 
HETATM    2  C   UNK N   1       1.063   1.876   0.000  0.00  0.00     0.212 A 
HETATM    3  N   UNK N   1       2.262   1.085  -0.000  0.00  0.00    -0.205 N 
HETATM    4  C   UNK N   1       2.155  -0.325  -0.000  0.00  0.00     0.687 A 
HETATM    5  N   UNK N   1       0.996  -0.892   0.000  0.00  0.00    -0.023 N 
ATOM      6  HN  UNK N   1       0.945  -1.911   0.000  1.00  0.00     0.203 HD
HETATM    7  C   UNK N   1      -0.222  -0.137  -0.000  0.00  0.00     0.691 A 
HETATM    8  N   UNK N   1      -0.191   1.158   0.000  0.00  0.00    -0.204 N 
ATOM      9  HN  UNK N   1      -1.068   1.680  -0.000  1.00  0.00     0.179 HD
HETATM   10  N   UNK N   1      -1.475  -0.820  -0.000  0.00  0.00    -0.226 N 
HETATM   11  C   UNK N   1      -1.523  -2.258   0.000  0.00  0.00     0.168 C 
HETATM   12  C   UNK N   1      -2.714  -0.084  -0.000  0.00  0.00     0.168 C 
HETATM   13  N   UNK N   1       3.325  -1.113   0.000  0.00  0.00    -0.234 N 
HETATM   14  H   UNK N   1       3.145   1.519  -0.000  0.00  0.00     0.179 HD
HETATM   15  H   UNK N   1       3.257  -2.095   0.000  0.00  0.00     0.174 HD
HETATM   16  H   UNK N   1       4.210  -0.680   0.000  0.00  0.00     0.174 HD
ENDROOT
TORSDOF 0
