REMARK  5 active torsions:
REMARK  status: ('A' for Active; 'I' for Inactive)
REMARK    1  A    between atoms: C_15  and  C_2 
REMARK    2  A    between atoms: C_15  and  C_12 
REMARK    3  A    between atoms: N_19  and  C_14 
REMARK    4  A    between atoms: C_18  and  C_15 
REMARK    5  A    between atoms: O_22  and  C_18 
ROOT
HETATM    1  C   UNK N   1      -2.207   0.444   0.824  0.00  0.00     0.010 A 
HETATM    2  C   UNK N   1      -2.384   2.722   0.038  0.00  0.00     0.010 A 
HETATM    3  C   UNK N   1      -0.818   0.531   0.765  0.00  0.00     0.030 A 
HETATM    4  C   UNK N   1      -0.988   2.819   0.005  0.00  0.00     0.030 A 
HETATM    5  C   UNK N   1      -3.008   1.528   0.443  0.00  0.00    -0.044 A 
HETATM    6  C   UNK N   1      -0.191   1.715   0.356  0.00  0.00     0.037 A 
ENDROOT
BRANCH   6   7
HETATM    7  N   UNK N   1       1.235   1.756   0.259  0.00  0.00    -0.310 N 
HETATM    8  C   UNK N   1       2.062   0.556   0.365  0.00  0.00     0.172 A 
HETATM    9  C   UNK N   1       3.437   1.124   0.138  0.00  0.00    -0.024 A 
HETATM   10  C   UNK N   1       4.651   0.442   0.099  0.00  0.00     0.010 A 
HETATM   11  C   UNK N   1       3.379   2.482  -0.046  0.00  0.00     0.040 A 
HETATM   12  C   UNK N   1       5.824   1.183  -0.128  0.00  0.00     0.001 A 
HETATM   13  C   UNK N   1       5.760   2.581  -0.307  0.00  0.00     0.001 A 
HETATM   14  C   UNK N   1       4.522   3.247  -0.269  0.00  0.00     0.017 A 
HETATM   15  C   UNK N   1       1.997   2.854   0.030  0.00  0.00     0.259 A 
HETATM   16  O   UNK N   1       1.561   3.989  -0.089  0.00  0.00    -0.267 OA
ENDBRANCH   6   7
BRANCH   5  17
HETATM   17  C   UNK N   1      -4.521   1.373   0.466  0.00  0.00     0.116 C 
BRANCH  17  18
HETATM   18  C   UNK N   1      -5.274   2.625  -0.000  0.00  0.00     0.015 C 
HETATM   19  C   UNK N   1      -5.228   3.718   1.050  0.00  0.00     0.006 C 
ENDBRANCH  17  18
BRANCH  17  20
HETATM   20  C   UNK N   1      -4.955   0.166  -0.339  0.00  0.00     0.148 C 
HETATM   21  O   UNK N   1      -4.586  -0.950  -0.007  0.00  0.00    -0.649 OA
BRANCH  20  22
HETATM   22  O   UNK N   1      -5.770   0.301  -1.405  0.00  0.00    -0.776 OA
HETATM   23  H   UNK N   1      -5.972   0.838  -2.145  0.00  0.00     0.167 HD
ENDBRANCH  20  22
ENDBRANCH  17  20
ENDBRANCH   5  17
TORSDOF 5
