REMARK  9 active torsions:
REMARK  status: ('A' for Active; 'I' for Inactive)
REMARK    1  A    between atoms: C_12  and  O_22 
REMARK    2  A    between atoms: C_14  and  C_20 
REMARK    3  A    between atoms: C_15  and  O_18 
REMARK    4  A    between atoms: O_22  and  C_23 
REMARK    5  A    between atoms: C_23  and  C_25 
REMARK    6  A    between atoms: C_25  and  S_26 
REMARK    7  A    between atoms: C_27  and  S_26 
REMARK    8  A    between atoms: C_30  and  N_34 
REMARK    9  A    between atoms: C_32  and  O_33 
ROOT
HETATM    1  C   UNK N   1      -0.212   2.357   0.106  0.00  0.00     0.011 C 
HETATM    2  C   UNK N   1       0.210   1.256   1.063  0.00  0.00    -0.007 C 
HETATM    3  C   UNK N   1      -0.974   0.239   1.237  0.00  0.00     0.006 C 
HETATM    4  C   UNK N   1      -0.560  -1.275   1.276  0.00  0.00     0.011 C 
HETATM    5  C   UNK N   1       0.428  -1.707   0.143  0.00  0.00    -0.023 C 
HETATM    6  C   UNK N   1      -0.343  -2.296  -1.054  0.00  0.00     0.018 C 
HETATM    7  C   UNK N   1      -0.736  -1.123  -1.955  0.00  0.00     0.079 C 
HETATM    8  C   UNK N   1       0.298  -0.129  -1.609  0.00  0.00     0.132 C 
HETATM    9  O   UNK N   1       0.563   0.828  -2.319  0.00  0.00    -0.298 OA
HETATM   10  C   UNK N   1       1.098  -0.512  -0.418  0.00  0.00     0.075 C 
HETATM   11  C   UNK N   1       1.494   0.508   0.652  0.00  0.00    -0.003 C 
HETATM   12  C   UNK N   1       2.726   1.133  -0.001  0.00  0.00     0.142 C 
HETATM   13  C   UNK N   1       3.784   0.074  -0.510  0.00  0.00     0.049 C 
HETATM   14  C   UNK N   1       4.034  -1.391   0.051  0.00  0.00     0.002 C 
HETATM   15  C   UNK N   1       2.946  -2.534  -0.178  0.00  0.00     0.134 C 
HETATM   16  C   UNK N   1       1.610  -2.589   0.656  0.00  0.00     0.021 C 
HETATM   17  C   UNK N   1       1.174  -4.024   0.903  0.00  0.00     0.013 C 
HETATM   18  C   UNK N   1       4.421  -1.352   1.519  0.00  0.00     0.022 C 
HETATM   19  C   UNK N   1       1.976  -0.057   1.993  0.00  0.00     0.019 C 
ENDROOT
BRANCH  12  20
HETATM   20  O   UNK N   1       3.333   2.124   0.730  0.00  0.00    -0.315 OA
BRANCH  20  21
HETATM   21  C   UNK N   1       3.414   3.365   0.206  0.00  0.00     0.268 C 
HETATM   22  O   UNK N   1       2.416   4.064   0.123  0.00  0.00    -0.264 OA
BRANCH  21  23
HETATM   23  C   UNK N   1       4.698   3.840  -0.391  0.00  0.00     0.185 C 
BRANCH  23  24
HETATM   24  S   UNK N   1       6.014   3.909   0.856  0.00  0.00    -0.152 SA
BRANCH  24  25
HETATM   25  C   UNK N   1       6.700   2.291   0.379  0.00  0.00     0.076 C 
HETATM   26  C   UNK N   1       6.778   1.375   1.606  0.00  0.00     0.020 C 
HETATM   27  C   UNK N   1       7.666   0.141   1.393  0.00  0.00     0.026 C 
HETATM   28  C   UNK N   1       7.949  -0.121  -0.082  0.00  0.00     0.076 C 
HETATM   29  C   UNK N   1       8.647   1.076  -0.735  0.00  0.00     0.057 C 
HETATM   30  C   UNK N   1       8.054   2.436  -0.330  0.00  0.00     0.133 C 
BRANCH  28  31
HETATM   31  N   UNK N   1       8.772  -1.308  -0.225  0.00  0.00    -0.426 N 
HETATM   32  H   UNK N   1       8.339  -2.226  -0.326  0.00  0.00     0.150 HD
HETATM   33  H   UNK N   1       9.789  -1.224  -0.225  0.00  0.00     0.150 HD
ENDBRANCH  28  31
BRANCH  30  34
HETATM   34  O   UNK N   1       8.964   3.105   0.491  0.00  0.00    -0.394 OA
HETATM   35  H   UNK N   1       9.683   2.789   1.061  0.00  0.00     0.210 HD
ENDBRANCH  30  34
ENDBRANCH  24  25
ENDBRANCH  23  24
ENDBRANCH  21  23
ENDBRANCH  20  21
ENDBRANCH  12  20
BRANCH  14  36
HETATM   36  C   UNK N   1       5.302  -1.853  -0.619  0.00  0.00    -0.025 C 
HETATM   37  C   UNK N   1       5.430  -1.970  -1.943  0.00  0.00     0.008 C 
ENDBRANCH  14  36
BRANCH  15  38
HETATM   38  O   UNK N   1       2.693  -2.761  -1.535  0.00  0.00    -0.394 OA
HETATM   39  H   UNK N   1       2.469  -2.688  -2.476  0.00  0.00     0.210 HD
ENDBRANCH  15  38
TORSDOF 9
