REMARK  7 active torsions:
REMARK  status: ('A' for Active; 'I' for Inactive)
REMARK    1  A    between atoms: C_2  and  C_3 
REMARK    2  A    between atoms: C_2  and  O_17 
REMARK    3  A    between atoms: C_5  and  C_13 
REMARK    4  A    between atoms: C_7  and  C_9 
REMARK    5  A    between atoms: C_18  and  O_17 
REMARK    6  A    between atoms: N_23  and  C_34 
REMARK    7  A    between atoms: C_26  and  C_27 
ROOT
HETATM    1  C   UNK N   1       2.622   1.185   1.379  0.00  0.00     0.131 C 
HETATM    2  C   UNK N   1       2.184  -0.273   1.517  0.00  0.00     0.033 C 
HETATM    3  C   UNK N   1       2.381  -1.020   0.200  0.00  0.00     0.009 C 
HETATM    4  C   UNK N   1       1.669  -0.345  -0.967  0.00  0.00     0.010 C 
HETATM    5  C   UNK N   1       0.183  -0.627  -0.939  0.00  0.00     0.128 C 
HETATM    6  N   UNK N   1      -0.396   0.637  -1.272  0.00  0.00    -0.383 N 
HETATM    7  C   UNK N   1       0.559   1.572  -1.800  0.00  0.00     0.128 C 
HETATM    8  C   UNK N   1       1.850   1.194  -1.081  0.00  0.00     0.020 C 
HETATM    9  C   UNK N   1       1.825   1.926   0.285  0.00  0.00     0.053 C 
ENDROOT
BRANCH   1  10
HETATM   10  O   UNK N   1       4.024   1.413   1.467  0.00  0.00    -0.376 OA
BRANCH  10  11
HETATM   11  C   UNK N   1       4.726   0.928   0.344  0.00  0.00     0.150 C 
HETATM   12  C   UNK N   1       5.187  -0.506   0.623  0.00  0.00     0.045 C 
BRANCH  11  13
HETATM   13  C   UNK N   1       5.918   1.823   0.081  0.00  0.00    -0.028 A 
HETATM   14  C   UNK N   1       5.734   3.178  -0.231  0.00  0.00     0.025 A 
HETATM   15  C   UNK N   1       6.843   4.022  -0.420  0.00  0.00     0.049 A 
HETATM   16  C   UNK N   1       8.137   3.499  -0.304  0.00  0.00     0.032 A 
HETATM   17  C   UNK N   1       8.332   2.145  -0.014  0.00  0.00     0.049 A 
HETATM   18  C   UNK N   1       7.225   1.321   0.180  0.00  0.00     0.025 A 
BRANCH  15  19
HETATM   19  C   UNK N   1       6.669   5.482  -0.724  0.00  0.00     0.417 C 
HETATM   20  F   UNK N   1       7.173   6.230   0.325  0.00  0.00    -0.166 F 
HETATM   21  F   UNK N   1       7.358   5.803  -1.880  0.00  0.00    -0.166 F 
HETATM   22  F   UNK N   1       5.338   5.804  -0.905  0.00  0.00    -0.166 F 
ENDBRANCH  15  19
BRANCH  17  23
HETATM   23  C   UNK N   1       9.710   1.562   0.096  0.00  0.00     0.417 C 
HETATM   24  F   UNK N   1       9.891   1.047   1.366  0.00  0.00    -0.166 F 
HETATM   25  F   UNK N   1      10.679   2.521  -0.142  0.00  0.00    -0.166 F 
HETATM   26  F   UNK N   1       9.853   0.544  -0.829  0.00  0.00    -0.166 F 
ENDBRANCH  17  23
ENDBRANCH  11  13
ENDBRANCH  10  11
ENDBRANCH   1  10
BRANCH   9  27
HETATM   27  C   UNK N   1       2.070   3.429   0.205  0.00  0.00    -0.051 A 
HETATM   28  C   UNK N   1       1.353   4.208  -0.719  0.00  0.00     0.011 A 
HETATM   29  C   UNK N   1       1.558   5.588  -0.804  0.00  0.00     0.043 A 
HETATM   30  C   UNK N   1       2.471   6.211   0.048  0.00  0.00     0.116 A 
HETATM   31  C   UNK N   1       3.174   5.454   0.988  0.00  0.00     0.043 A 
HETATM   32  F   UNK N   1       2.678   7.547  -0.042  0.00  0.00    -0.206 F 
HETATM   33  C   UNK N   1       2.975   4.072   1.066  0.00  0.00     0.011 A 
ENDBRANCH   9  27
BRANCH   6  34
HETATM   34  C   UNK N   1      -1.558   1.079  -0.578  0.00  0.00     0.011 A 
HETATM   35  C   UNK N   1      -2.315   0.267   0.141  0.00  0.00     0.075 A 
HETATM   36  C   UNK N   1      -3.353   1.047   0.751  0.00  0.00     0.151 A 
HETATM   37  O   UNK N   1      -4.209   0.581   1.483  0.00  0.00    -0.293 OA
HETATM   38  C   UNK N   1      -3.246   2.489   0.402  0.00  0.00     0.089 A 
HETATM   39  C   UNK N   1      -2.011   2.515  -0.525  0.00  0.00     0.065 A 
ENDBRANCH   6  34
TORSDOF 7
