REMARK  7 active torsions:
REMARK  status: ('A' for Active; 'I' for Inactive)
REMARK    1  A    between atoms: C_2  and  C_3 
REMARK    2  A    between atoms: C_3  and  C_5 
REMARK    3  A    between atoms: C_3  and  N_13 
REMARK       I    between atoms: C_5  and  N_7 
REMARK    4  A    between atoms: N_7  and  C_8 
REMARK    5  A    between atoms: C_8  and  C_9 
REMARK    6  A    between atoms: N_13  and  C_14 
REMARK    7  A    between atoms: C_19  and  C_22 
ROOT
HETATM    1  C   UNK N   1      -1.502   1.843  -0.477  0.00  0.00     0.104 A 
HETATM    2  C   UNK N   1      -0.598   2.896  -0.648  0.00  0.00     0.065 A 
HETATM    3  C   UNK N   1       0.763   2.631  -0.501  0.00  0.00     0.093 A 
HETATM    4  N   UNK N   1       1.181   1.375  -0.194  0.00  0.00    -0.351 N 
ATOM      5  HN  UNK N   1       2.177   1.187  -0.086  1.00  0.00     0.166 HD
HETATM    6  C   UNK N   1       0.283   0.363  -0.030  0.00  0.00     0.119 A 
HETATM    7  N   UNK N   1      -1.038   0.607  -0.180  0.00  0.00    -0.328 N 
ATOM      8  HN  UNK N   1      -1.701  -0.159  -0.067  1.00  0.00     0.169 HD
ENDROOT
BRANCH   1   9
HETATM    9  N   UNK N   1      -2.902   2.021  -0.548  0.00  0.00    -0.359 N 
HETATM   10  H   UNK N   1      -3.409   1.308  -0.998  0.00  0.00     0.162 HD
BRANCH   9  11
HETATM   11  C   UNK N   1      -3.678   3.133  -0.034  0.00  0.00     0.108 C 
HETATM   12  C   UNK N   1      -5.101   2.608   0.011  0.00  0.00     0.049 C 
BRANCH  11  13
HETATM   13  C   UNK N   1      -3.276   3.448   1.420  0.00  0.00     0.036 C 
HETATM   14  C   UNK N   1      -1.974   4.226   1.569  0.00  0.00     0.008 C 
ENDBRANCH  11  13
BRANCH  11  15
HETATM   15  C   UNK N   1      -3.646   4.378  -0.917  0.00  0.00     0.245 C 
HETATM   16  O   UNK N   1      -2.925   4.406  -1.902  0.00  0.00    -0.271 OA
HETATM   17  N   UNK N   1      -4.421   5.465  -0.644  0.00  0.00    -0.350 N 
HETATM   18  H   UNK N   1      -4.343   6.255  -1.226  0.00  0.00     0.162 HD
BRANCH  17  19
HETATM   19  C   UNK N   1      -5.354   5.516   0.462  0.00  0.00     0.240 C 
BRANCH  19  20
HETATM   20  C   UNK N   1      -6.773   5.719  -0.052  0.00  0.00     0.403 C 
HETATM   21  F   UNK N   1      -7.662   5.633   1.002  0.00  0.00    -0.169 F 
HETATM   22  F   UNK N   1      -7.090   4.749  -0.987  0.00  0.00    -0.169 F 
HETATM   23  F   UNK N   1      -6.876   6.967  -0.634  0.00  0.00    -0.169 F 
ENDBRANCH  19  20
ENDBRANCH  17  19
ENDBRANCH  11  15
ENDBRANCH   9  11
ENDBRANCH   1   9
BRANCH   6  24
HETATM   24  C   UNK N   1       0.737  -1.001   0.249  0.00  0.00     0.037 A 
HETATM   25  C   UNK N   1      -0.073  -2.118   0.474  0.00  0.00     0.106 A 
HETATM   26  N   UNK N   1       0.706  -3.220   0.620  0.00  0.00    -0.351 N 
HETATM   27  C   UNK N   1       1.976  -2.791   0.481  0.00  0.00     0.116 A 
HETATM   28  H   UNK N   1       0.405  -4.142   0.791  0.00  0.00     0.166 HD
HETATM   29  C   UNK N   1       2.026  -1.450   0.266  0.00  0.00     0.023 A 
HETATM   30  N   UNK N   1       3.085  -3.563   0.508  0.00  0.00    -0.352 N 
HETATM   31  C   UNK N   1       3.238  -0.795   0.073  0.00  0.00     0.017 A 
HETATM   32  C   UNK N   1       4.402  -1.576   0.105  0.00  0.00     0.018 A 
HETATM   33  C   UNK N   1       4.306  -2.971   0.319  0.00  0.00     0.090 A 
ATOM     34  HN  UNK N   1       3.014  -4.568   0.666  1.00  0.00     0.166 HD
ENDBRANCH   6  24
TORSDOF 7
