REMARK WARNING: 32 MAX_TORS EXCEEDED!!!
REMARK  40 active torsions:
REMARK  status: ('A' for Active; 'I' for Inactive)
REMARK    1  A    between atoms: O_2  and  C_3 
REMARK    2  A    between atoms: C_6  and  N_72 
REMARK    3  A    between atoms: C_8  and  C_9 
REMARK       I    between atoms: C_9  and  N_11 
REMARK    4  A    between atoms: C_12  and  N_11 
REMARK    5  A    between atoms: C_12  and  C_13 
REMARK    6  A    between atoms: C_12  and  C_18 
REMARK    7  A    between atoms: C_13  and  C_14 
REMARK    8  A    between atoms: C_14  and  C_15 
REMARK    9  A    between atoms: C_15  and  C_16 
REMARK   10  A    between atoms: C_16  and  N_17 
REMARK       I    between atoms: C_18  and  N_20 
REMARK   11  A    between atoms: N_20  and  C_21 
REMARK   12  A    between atoms: C_24  and  O_70 
REMARK   13  A    between atoms: C_25  and  C_27 
REMARK       I    between atoms: C_27  and  N_29 
REMARK   14  A    between atoms: C_30  and  N_29 
REMARK   15  A    between atoms: C_30  and  C_31 
REMARK   16  A    between atoms: C_30  and  C_36 
REMARK   17  A    between atoms: C_31  and  C_32 
REMARK   18  A    between atoms: C_32  and  C_33 
REMARK   19  A    between atoms: C_33  and  C_34 
REMARK   20  A    between atoms: C_34  and  N_35 
REMARK       I    between atoms: C_36  and  N_38 
REMARK   21  A    between atoms: N_38  and  C_39 
REMARK   22  A    between atoms: C_42  and  O_68 
REMARK   23  A    between atoms: C_43  and  C_45 
REMARK       I    between atoms: C_45  and  N_47 
REMARK   24  A    between atoms: C_48  and  N_47 
REMARK   25  A    between atoms: C_48  and  C_49 
REMARK   26  A    between atoms: C_48  and  C_54 
REMARK   27  A    between atoms: C_49  and  C_50 
REMARK   28  A    between atoms: C_50  and  C_51 
REMARK   29  A    between atoms: C_51  and  C_52 
REMARK   30  A    between atoms: C_52  and  N_53 
REMARK       I    between atoms: C_54  and  N_56 
REMARK   31  A    between atoms: N_56  and  C_57 
REMARK   32  A    between atoms: C_60  and  O_66 
REMARK   33  A    between atoms: C_61  and  C_63 
REMARK       I    between atoms: C_63  and  N_65 
REMARK       I    between atoms: N_72  and  C_73 
REMARK   34  A    between atoms: C_73  and  C_75 
REMARK   35  A    between atoms: C_75  and  C_76 
REMARK   36  A    between atoms: C_75  and  N_81 
REMARK   37  A    between atoms: C_76  and  C_77 
REMARK   38  A    between atoms: C_77  and  C_78 
REMARK   39  A    between atoms: C_78  and  C_79 
REMARK   40  A    between atoms: C_79  and  N_80 
ROOT
HETATM    1  C   UNK N   1      -9.824 -14.169  -0.306  0.00  0.00     0.255 C 
HETATM    2  O   UNK N   1      -9.125 -13.952  -1.308  0.00  0.00    -0.268 OA
HETATM    3  N   UNK N   1      -9.933 -13.229   0.638  0.00  0.00    -0.344 N 
HETATM    4  H   UNK N   1     -10.147 -13.455   1.572  0.00  0.00     0.163 HD
ENDROOT
BRANCH   3   5
HETATM    5  C   UNK N   1      -9.725 -11.890   0.226  0.00  0.00     0.177 C 
BRANCH   5   6
HETATM    6  C   UNK N   1      -9.360 -10.970   1.383  0.00  0.00     0.035 C 
BRANCH   6   7
HETATM    7  C   UNK N   1      -7.859 -10.694   1.431  0.00  0.00     0.004 C 
BRANCH   7   8
HETATM    8  C   UNK N   1      -7.338 -10.126   0.113  0.00  0.00     0.019 C 
BRANCH   8   9
HETATM    9  C   UNK N   1      -7.025  -8.648   0.238  0.00  0.00     0.111 C 
BRANCH   9  10
HETATM   10  N   UNK N   1      -6.472  -8.167  -1.015  0.00  0.00    -0.430 N 
HETATM   11  H   UNK N   1      -5.985  -8.334  -1.895  0.00  0.00     0.149 HD
HETATM   12  H   UNK N   1      -6.667  -7.166  -1.015  0.00  0.00     0.149 HD
ENDBRANCH   9  10
ENDBRANCH   8   9
ENDBRANCH   7   8
ENDBRANCH   6   7
ENDBRANCH   5   6
BRANCH   5  13
HETATM   13  C   UNK N   1     -10.960 -11.667  -0.602  0.00  0.00     0.241 C 
HETATM   14  O   UNK N   1     -10.842 -11.638  -1.814  0.00  0.00    -0.271 OA
HETATM   15  N   UNK N   1     -12.202 -11.848  -0.062  0.00  0.00    -0.348 N 
HETATM   16  H   UNK N   1     -12.862 -12.346  -0.595  0.00  0.00     0.163 HD
BRANCH  15  17
HETATM   17  C   UNK N   1     -12.617 -11.366   1.223  0.00  0.00     0.132 C 
HETATM   18  C   UNK N   1     -14.001 -11.264   1.225  0.00  0.00     0.005 C 
HETATM   19  C   UNK N   1     -14.506 -10.350   0.288  0.00  0.00     0.036 C 
HETATM   20  C   UNK N   1     -13.607  -9.387  -0.262  0.00  0.00     0.083 C 
HETATM   21  C   UNK N   1     -12.331  -9.186   0.413  0.00  0.00     0.063 C 
HETATM   22  C   UNK N   1     -12.034 -10.122   1.419  0.00  0.00     0.022 C 
BRANCH  20  23
HETATM   23  O   UNK N   1     -13.939  -8.745  -1.404  0.00  0.00    -0.355 OA
HETATM   24  C   UNK N   1     -15.081  -9.027  -2.123  0.00  0.00     0.210 C 
ENDBRANCH  20  23
BRANCH  21  25
HETATM   25  C   UNK N   1     -11.194  -8.252   0.056  0.00  0.00     0.254 C 
HETATM   26  O   UNK N   1     -10.085  -8.504   0.492  0.00  0.00    -0.268 OA
HETATM   27  N   UNK N   1     -11.306  -7.144  -0.696  0.00  0.00    -0.344 N 
HETATM   28  H   UNK N   1     -10.477  -6.688  -0.971  0.00  0.00     0.163 HD
BRANCH  27  29
HETATM   29  C   UNK N   1     -12.538  -6.589  -1.120  0.00  0.00     0.177 C 
BRANCH  29  30
HETATM   30  C   UNK N   1     -12.329  -5.326  -1.956  0.00  0.00     0.035 C 
BRANCH  30  31
HETATM   31  C   UNK N   1     -11.770  -4.141  -1.173  0.00  0.00     0.004 C 
BRANCH  31  32
HETATM   32  C   UNK N   1     -10.363  -4.416  -0.676  0.00  0.00     0.019 C 
BRANCH  32  33
HETATM   33  C   UNK N   1      -9.782  -3.149  -0.093  0.00  0.00     0.111 C 
BRANCH  33  34
HETATM   34  N   UNK N   1      -9.000  -3.474   1.084  0.00  0.00    -0.430 N 
HETATM   35  H   UNK N   1      -8.923  -4.065   1.912  0.00  0.00     0.149 HD
HETATM   36  H   UNK N   1      -8.190  -2.854   1.084  0.00  0.00     0.149 HD
ENDBRANCH  33  34
ENDBRANCH  32  33
ENDBRANCH  31  32
ENDBRANCH  30  31
ENDBRANCH  29  30
BRANCH  29  37
HETATM   37  C   UNK N   1     -13.450  -6.367   0.039  0.00  0.00     0.245 C 
HETATM   38  O   UNK N   1     -13.034  -5.959   1.118  0.00  0.00    -0.271 OA
HETATM   39  N   UNK N   1     -14.764  -6.512  -0.196  0.00  0.00    -0.325 N 
HETATM   40  H   UNK N   1     -15.096  -7.377  -0.529  0.00  0.00     0.169 HD
BRANCH  39  41
HETATM   41  C   UNK N   1     -15.674  -5.475   0.017  0.00  0.00     0.035 A 
HETATM   42  C   UNK N   1     -17.023  -5.703  -0.214  0.00  0.00     0.032 A 
HETATM   43  C   UNK N   1     -17.910  -4.634  -0.209  0.00  0.00     0.040 A 
HETATM   44  C   UNK N   1     -17.447  -3.317  -0.008  0.00  0.00     0.084 A 
HETATM   45  C   UNK N   1     -16.064  -3.088   0.192  0.00  0.00     0.067 A 
HETATM   46  C   UNK N   1     -15.202  -4.175   0.192  0.00  0.00     0.049 A 
BRANCH  44  47
HETATM   47  O   UNK N   1     -18.317  -2.282  -0.004  0.00  0.00    -0.355 OA
HETATM   48  C   UNK N   1     -19.679  -2.448  -0.113  0.00  0.00     0.210 C 
ENDBRANCH  44  47
BRANCH  45  49
HETATM   49  C   UNK N   1     -15.474  -1.742   0.403  0.00  0.00     0.252 C 
HETATM   50  O   UNK N   1     -14.262  -1.619   0.514  0.00  0.00    -0.268 OA
HETATM   51  N   UNK N   1     -16.254  -0.647   0.487  0.00  0.00    -0.366 N 
HETATM   52  H   UNK N   1     -15.846   0.247   0.549  0.00  0.00     0.159 HD
HETATM   53  H   UNK N   1     -17.234  -0.741   0.487  0.00  0.00     0.159 HD
ENDBRANCH  45  49
ENDBRANCH  39  41
ENDBRANCH  29  37
ENDBRANCH  27  29
ENDBRANCH  21  25
ENDBRANCH  15  17
ENDBRANCH   5  13
ENDBRANCH   3   5
BRANCH   1  54
HETATM   54  C   UNK N   1     -10.465 -15.451  -0.164  0.00  0.00     0.067 C 
HETATM   55  C   UNK N   1     -11.598 -15.735   0.621  0.00  0.00     0.084 C 
HETATM   56  C   UNK N   1     -11.969 -17.093   0.779  0.00  0.00     0.040 C 
HETATM   57  C   UNK N   1     -11.110 -18.108   0.309  0.00  0.00     0.032 C 
HETATM   58  C   UNK N   1      -9.967 -17.758  -0.429  0.00  0.00     0.035 C 
HETATM   59  C   UNK N   1      -9.773 -16.446  -0.720  0.00  0.00     0.049 C 
BRANCH  55  60
HETATM   60  O   UNK N   1     -12.292 -14.726   1.197  0.00  0.00    -0.355 OA
HETATM   61  C   UNK N   1     -13.397 -14.926   1.991  0.00  0.00     0.210 C 
ENDBRANCH  55  60
BRANCH  58  62
HETATM   62  N   UNK N   1      -8.770 -18.507  -0.246  0.00  0.00    -0.325 N 
HETATM   63  C   UNK N   1      -7.528 -17.921  -0.404  0.00  0.00     0.245 C 
HETATM   64  O   UNK N   1      -7.372 -16.910  -1.080  0.00  0.00    -0.271 OA
HETATM   65  H   UNK N   1      -8.828 -19.460  -0.003  0.00  0.00     0.169 HD
BRANCH  63  66
HETATM   66  C   UNK N   1      -6.423 -18.323   0.484  0.00  0.00     0.177 C 
BRANCH  66  67
HETATM   67  N   UNK N   1      -5.477 -17.213   0.589  0.00  0.00    -0.344 N 
HETATM   68  C   UNK N   1      -4.481 -16.930  -0.297  0.00  0.00     0.255 C 
HETATM   69  O   UNK N   1      -4.154 -17.744  -1.147  0.00  0.00    -0.268 OA
HETATM   70  H   UNK N   1      -5.567 -16.618   1.368  0.00  0.00     0.163 HD
BRANCH  68  71
HETATM   71  C   UNK N   1      -3.791 -15.621  -0.239  0.00  0.00     0.067 A 
HETATM   72  C   UNK N   1      -2.393 -15.578  -0.328  0.00  0.00     0.049 A 
HETATM   73  C   UNK N   1      -1.706 -14.365  -0.190  0.00  0.00     0.035 A 
HETATM   74  C   UNK N   1      -2.432 -13.181  -0.070  0.00  0.00     0.032 A 
HETATM   75  C   UNK N   1      -3.818 -13.202  -0.002  0.00  0.00     0.040 A 
HETATM   76  C   UNK N   1      -4.510 -14.423  -0.029  0.00  0.00     0.084 A 
BRANCH  73  77
HETATM   77  N   UNK N   1      -0.324 -14.286   0.131  0.00  0.00    -0.325 N 
HETATM   78  C   UNK N   1       0.579 -15.241   0.496  0.00  0.00     0.244 C 
HETATM   79  O   UNK N   1       1.644 -14.860   0.949  0.00  0.00    -0.271 OA
HETATM   80  H   UNK N   1       0.049 -13.377   0.080  0.00  0.00     0.169 HD
BRANCH  78  81
HETATM   81  C   UNK N   1       0.378 -16.735   0.407  0.00  0.00     0.167 C 
BRANCH  81  82
HETATM   82  C   UNK N   1       0.779 -17.376  -0.914  0.00  0.00     0.034 C 
BRANCH  82  83
HETATM   83  C   UNK N   1       2.289 -17.638  -0.924  0.00  0.00     0.004 C 
BRANCH  83  84
HETATM   84  C   UNK N   1       3.095 -16.348  -1.001  0.00  0.00     0.019 C 
BRANCH  84  85
HETATM   85  C   UNK N   1       4.275 -16.419  -0.048  0.00  0.00     0.111 C 
BRANCH  85  86
HETATM   86  N   UNK N   1       4.697 -15.077   0.313  0.00  0.00    -0.430 N 
HETATM   87  H   UNK N   1       5.661 -14.861   0.567  0.00  0.00     0.149 HD
HETATM   88  H   UNK N   1       4.006 -14.326   0.313  0.00  0.00     0.149 HD
ENDBRANCH  85  86
ENDBRANCH  84  85
ENDBRANCH  83  84
ENDBRANCH  82  83
ENDBRANCH  81  82
BRANCH  81  89
HETATM   89  N   UNK N   1      -0.809 -17.292   1.034  0.00  0.00    -0.418 N 
HETATM   90  H   UNK N   1      -1.564 -16.766   1.474  0.00  0.00     0.150 HD
HETATM   91  H   UNK N   1      -0.895 -18.308   1.034  0.00  0.00     0.150 HD
ENDBRANCH  81  89
ENDBRANCH  78  81
ENDBRANCH  73  77
BRANCH  76  92
HETATM   92  O   UNK N   1      -5.854 -14.455   0.125  0.00  0.00    -0.355 OA
HETATM   93  C   UNK N   1      -6.583 -13.355   0.507  0.00  0.00     0.210 C 
ENDBRANCH  76  92
ENDBRANCH  68  71
ENDBRANCH  66  67
BRANCH  66  94
HETATM   94  C   UNK N   1      -5.854 -19.633   0.020  0.00  0.00     0.035 C 
BRANCH  94  95
HETATM   95  C   UNK N   1      -5.586 -20.511   1.213  0.00  0.00     0.004 C 
BRANCH  95  96
HETATM   96  C   UNK N   1      -4.542 -21.536   0.832  0.00  0.00     0.019 C 
BRANCH  96  97
HETATM   97  C   UNK N   1      -3.186 -20.866   0.676  0.00  0.00     0.111 C 
BRANCH  97  98
HETATM   98  N   UNK N   1      -2.990 -20.452  -0.703  0.00  0.00    -0.430 N 
HETATM   99  H   UNK N   1      -2.669 -20.426  -1.671  0.00  0.00     0.149 HD
HETATM  100  H   UNK N   1      -3.569 -19.612  -0.703  0.00  0.00     0.149 HD
ENDBRANCH  97  98
ENDBRANCH  96  97
ENDBRANCH  95  96
ENDBRANCH  94  95
ENDBRANCH  66  94
ENDBRANCH  63  66
ENDBRANCH  58  62
ENDBRANCH   1  54
TORSDOF 40
