REMARK WARNING: 32 MAX_TORS EXCEEDED!!!
REMARK  65 active torsions:
REMARK  status: ('A' for Active; 'I' for Inactive)
REMARK    1  A    between atoms: O_1  and  C_2 
REMARK    2  A    between atoms: O_1  and  C_25 
REMARK    3  A    between atoms: C_2  and  C_4 
REMARK    4  A    between atoms: C_4  and  C_5 
REMARK    5  A    between atoms: C_5  and  C_6 
REMARK    6  A    between atoms: C_6  and  C_7 
REMARK    7  A    between atoms: C_7  and  C_8 
REMARK    8  A    between atoms: C_8  and  C_9 
REMARK    9  A    between atoms: C_9  and  C_10 
REMARK   10  A    between atoms: C_10  and  C_11 
REMARK   11  A    between atoms: C_11  and  C_12 
REMARK   12  A    between atoms: C_12  and  C_13 
REMARK   13  A    between atoms: C_13  and  C_14 
REMARK   14  A    between atoms: C_14  and  C_15 
REMARK   15  A    between atoms: C_16  and  C_17 
REMARK   16  A    between atoms: C_17  and  C_18 
REMARK   17  A    between atoms: C_18  and  C_19 
REMARK   18  A    between atoms: C_19  and  C_20 
REMARK   19  A    between atoms: C_20  and  C_21 
REMARK   20  A    between atoms: C_21  and  C_22 
REMARK   21  A    between atoms: C_22  and  C_23 
REMARK   22  A    between atoms: C_25  and  C_26 
REMARK   23  A    between atoms: C_26  and  C_27 
REMARK   24  A    between atoms: C_26  and  O_52 
REMARK   25  A    between atoms: C_27  and  O_28 
REMARK   26  A    between atoms: O_28  and  C_29 
REMARK   27  A    between atoms: C_29  and  C_31 
REMARK   28  A    between atoms: C_31  and  C_32 
REMARK   29  A    between atoms: C_32  and  C_33 
REMARK   30  A    between atoms: C_33  and  C_34 
REMARK   31  A    between atoms: C_34  and  C_35 
REMARK   32  A    between atoms: C_35  and  C_36 
REMARK   33  A    between atoms: C_36  and  C_37 
REMARK   34  A    between atoms: C_37  and  C_38 
REMARK   35  A    between atoms: C_38  and  C_39 
REMARK   36  A    between atoms: C_39  and  C_40 
REMARK   37  A    between atoms: C_40  and  C_41 
REMARK   38  A    between atoms: C_41  and  C_42 
REMARK   39  A    between atoms: C_43  and  C_44 
REMARK   40  A    between atoms: C_44  and  C_45 
REMARK   41  A    between atoms: C_45  and  C_46 
REMARK   42  A    between atoms: C_46  and  C_47 
REMARK   43  A    between atoms: C_47  and  C_48 
REMARK   44  A    between atoms: C_48  and  C_49 
REMARK   45  A    between atoms: C_49  and  C_50 
REMARK   46  A    between atoms: O_52  and  C_53 
REMARK   47  A    between atoms: C_53  and  C_55 
REMARK   48  A    between atoms: C_55  and  C_56 
REMARK   49  A    between atoms: C_56  and  C_57 
REMARK   50  A    between atoms: C_57  and  C_58 
REMARK   51  A    between atoms: C_58  and  C_59 
REMARK   52  A    between atoms: C_59  and  C_60 
REMARK   53  A    between atoms: C_60  and  C_61 
REMARK   54  A    between atoms: C_61  and  C_62 
REMARK   55  A    between atoms: C_62  and  C_63 
REMARK   56  A    between atoms: C_63  and  C_64 
REMARK   57  A    between atoms: C_64  and  C_65 
REMARK   58  A    between atoms: C_65  and  C_66 
REMARK   59  A    between atoms: C_67  and  C_68 
REMARK   60  A    between atoms: C_68  and  C_69 
REMARK   61  A    between atoms: C_69  and  C_70 
REMARK   62  A    between atoms: C_70  and  C_71 
REMARK   63  A    between atoms: C_71  and  C_72 
REMARK   64  A    between atoms: C_72  and  C_73 
REMARK   65  A    between atoms: C_73  and  C_74 
ROOT
HETATM    1  C   UNK N   1      27.060 -12.030  -0.277  0.00  0.00     0.180 C 
ENDROOT
BRANCH   1   2
HETATM    2  C   UNK N   1      25.660 -12.620  -0.390  0.00  0.00     0.213 C 
BRANCH   2   3
HETATM    3  O   UNK N   1      24.784 -11.592  -0.636  0.00  0.00    -0.319 OA
BRANCH   3   4
HETATM    4  C   UNK N   1      23.877 -11.234   0.294  0.00  0.00     0.258 C 
HETATM    5  O   UNK N   1      23.288 -12.081   0.947  0.00  0.00    -0.265 OA
BRANCH   4   6
HETATM    6  C   UNK N   1      23.700  -9.793   0.623  0.00  0.00     0.111 C 
BRANCH   6   7
HETATM    7  C   UNK N   1      23.353  -8.985  -0.609  0.00  0.00     0.010 C 
BRANCH   7   8
HETATM    8  C   UNK N   1      22.551  -7.762  -0.199  0.00  0.00     0.000 C 
BRANCH   8   9
HETATM    9  C   UNK N   1      21.218  -8.161   0.426  0.00  0.00     0.000 C 
BRANCH   9  10
HETATM   10  C   UNK N   1      20.329  -8.871  -0.586  0.00  0.00     0.000 C 
BRANCH  10  11
HETATM   11  C   UNK N   1      20.573 -10.375  -0.628  0.00  0.00     0.000 C 
BRANCH  11  12
HETATM   12  C   UNK N   1      20.046 -11.046   0.630  0.00  0.00     0.000 C 
BRANCH  12  13
HETATM   13  C   UNK N   1      19.408 -12.388   0.294  0.00  0.00     0.000 C 
BRANCH  13  14
HETATM   14  C   UNK N   1      18.083 -12.201  -0.435  0.00  0.00     0.000 C 
BRANCH  14  15
HETATM   15  C   UNK N   1      17.054 -11.555   0.484  0.00  0.00     0.004 C 
BRANCH  15  16
HETATM   16  C   UNK N   1      16.343 -10.412  -0.222  0.00  0.00     0.027 C 
BRANCH  16  17
HETATM   17  C   UNK N   1      17.296  -9.285  -0.483  0.00  0.00    -0.031 C 
HETATM   18  C   UNK N   1      17.098  -8.036  -0.051  0.00  0.00    -0.031 C 
BRANCH  18  19
HETATM   19  C   UNK N   1      15.896  -7.634   0.737  0.00  0.00     0.027 C 
BRANCH  19  20
HETATM   20  C   UNK N   1      14.850  -7.040  -0.193  0.00  0.00     0.004 C 
BRANCH  20  21
HETATM   21  C   UNK N   1      13.861  -8.102  -0.647  0.00  0.00     0.000 C 
BRANCH  21  22
HETATM   22  C   UNK N   1      13.010  -8.544   0.531  0.00  0.00     0.000 C 
BRANCH  22  23
HETATM   23  C   UNK N   1      11.882  -9.437   0.062  0.00  0.00     0.000 C 
BRANCH  23  24
HETATM   24  C   UNK N   1      10.580  -8.666   0.122  0.00  0.00    -0.000 C 
BRANCH  24  25
HETATM   25  C   UNK N   1       9.428  -9.592  -0.202  0.00  0.00    -0.005 C 
HETATM   26  C   UNK N   1       8.124  -8.834  -0.075  0.00  0.00     0.005 C 
ENDBRANCH  24  25
ENDBRANCH  23  24
ENDBRANCH  22  23
ENDBRANCH  21  22
ENDBRANCH  20  21
ENDBRANCH  19  20
ENDBRANCH  18  19
ENDBRANCH  16  17
ENDBRANCH  15  16
ENDBRANCH  14  15
ENDBRANCH  13  14
ENDBRANCH  12  13
ENDBRANCH  11  12
ENDBRANCH  10  11
ENDBRANCH   9  10
ENDBRANCH   8   9
ENDBRANCH   7   8
ENDBRANCH   6   7
ENDBRANCH   4   6
ENDBRANCH   3   4
ENDBRANCH   2   3
ENDBRANCH   1   2
BRANCH   1  27
HETATM   27  C   UNK N   1      27.900 -12.823   0.696  0.00  0.00     0.213 C 
BRANCH  27  28
HETATM   28  O   UNK N   1      29.206 -12.444   0.512  0.00  0.00    -0.319 OA
BRANCH  28  29
HETATM   29  C   UNK N   1      30.094 -13.245  -0.122  0.00  0.00     0.258 C 
HETATM   30  O   UNK N   1      29.809 -14.397  -0.403  0.00  0.00    -0.265 OA
BRANCH  29  31
HETATM   31  C   UNK N   1      31.413 -12.691  -0.547  0.00  0.00     0.111 C 
BRANCH  31  32
HETATM   32  C   UNK N   1      32.170 -12.109   0.633  0.00  0.00     0.010 C 
BRANCH  32  33
HETATM   33  C   UNK N   1      31.996 -10.599   0.698  0.00  0.00     0.000 C 
BRANCH  33  34
HETATM   34  C   UNK N   1      32.697  -9.940  -0.481  0.00  0.00     0.000 C 
BRANCH  34  35
HETATM   35  C   UNK N   1      33.381  -8.650  -0.054  0.00  0.00     0.000 C 
BRANCH  35  36
HETATM   36  C   UNK N   1      34.589  -8.905   0.840  0.00  0.00     0.000 C 
BRANCH  36  37
HETATM   37  C   UNK N   1      35.724  -9.537   0.054  0.00  0.00     0.000 C 
BRANCH  37  38
HETATM   38  C   UNK N   1      35.561 -11.045   0.030  0.00  0.00     0.000 C 
BRANCH  38  39
HETATM   39  C   UNK N   1      36.539 -11.652  -0.954  0.00  0.00     0.000 C 
BRANCH  39  40
HETATM   40  C   UNK N   1      37.382 -12.713  -0.264  0.00  0.00     0.004 C 
BRANCH  40  41
HETATM   41  C   UNK N   1      38.446 -12.073   0.615  0.00  0.00     0.027 C 
BRANCH  41  42
HETATM   42  C   UNK N   1      39.526 -11.484  -0.239  0.00  0.00    -0.031 C 
HETATM   43  C   UNK N   1      39.761 -10.169  -0.290  0.00  0.00    -0.031 C 
BRANCH  43  44
HETATM   44  C   UNK N   1      38.983  -9.180   0.522  0.00  0.00     0.027 C 
BRANCH  44  45
HETATM   45  C   UNK N   1      39.303  -7.754   0.099  0.00  0.00     0.004 C 
BRANCH  45  46
HETATM   46  C   UNK N   1      40.682  -7.322   0.572  0.00  0.00     0.000 C 
BRANCH  46  47
HETATM   47  C   UNK N   1      41.674  -7.405  -0.574  0.00  0.00     0.000 C 
BRANCH  47  48
HETATM   48  C   UNK N   1      42.540  -8.644  -0.447  0.00  0.00     0.000 C 
BRANCH  48  49
HETATM   49  C   UNK N   1      43.885  -8.271   0.140  0.00  0.00    -0.000 C 
BRANCH  49  50
HETATM   50  C   UNK N   1      44.823  -9.454   0.030  0.00  0.00    -0.005 C 
HETATM   51  C   UNK N   1      46.235  -9.007   0.347  0.00  0.00     0.005 C 
ENDBRANCH  49  50
ENDBRANCH  48  49
ENDBRANCH  47  48
ENDBRANCH  46  47
ENDBRANCH  45  46
ENDBRANCH  44  45
ENDBRANCH  43  44
ENDBRANCH  41  42
ENDBRANCH  40  41
ENDBRANCH  39  40
ENDBRANCH  38  39
ENDBRANCH  37  38
ENDBRANCH  36  37
ENDBRANCH  35  36
ENDBRANCH  34  35
ENDBRANCH  33  34
ENDBRANCH  32  33
ENDBRANCH  31  32
ENDBRANCH  29  31
ENDBRANCH  28  29
ENDBRANCH  27  28
ENDBRANCH   1  27
BRANCH   1  52
HETATM   52  O   UNK N   1      26.992 -10.707   0.110  0.00  0.00    -0.312 OA
BRANCH  52  53
HETATM   53  C   UNK N   1      27.553  -9.718  -0.613  0.00  0.00     0.259 C 
HETATM   54  O   UNK N   1      28.542  -9.944  -1.313  0.00  0.00    -0.265 OA
BRANCH  53  55
HETATM   55  C   UNK N   1      26.935  -8.365  -0.642  0.00  0.00     0.111 C 
BRANCH  55  56
HETATM   56  C   UNK N   1      26.815  -7.765   0.749  0.00  0.00     0.010 C 
BRANCH  56  57
HETATM   57  C   UNK N   1      26.414  -6.300   0.659  0.00  0.00     0.000 C 
BRANCH  57  58
HETATM   58  C   UNK N   1      27.519  -5.527  -0.031  0.00  0.00     0.000 C 
BRANCH  58  59
HETATM   59  C   UNK N   1      27.420  -4.041   0.219  0.00  0.00     0.000 C 
BRANCH  59  60
HETATM   60  C   UNK N   1      28.627  -3.421  -0.445  0.00  0.00     0.000 C 
BRANCH  60  61
HETATM   61  C   UNK N   1      28.941  -2.051   0.106  0.00  0.00     0.000 C 
BRANCH  61  62
HETATM   62  C   UNK N   1      30.367  -1.748  -0.295  0.00  0.00     0.000 C 
BRANCH  62  63
HETATM   63  C   UNK N   1      30.756  -0.328   0.040  0.00  0.00     0.000 C 
BRANCH  63  64
HETATM   64  C   UNK N   1      32.178  -0.128  -0.436  0.00  0.00     0.004 C 
BRANCH  64  65
HETATM   65  C   UNK N   1      32.787   1.093   0.222  0.00  0.00     0.027 C 
BRANCH  65  66
HETATM   66  C   UNK N   1      34.296   1.103   0.339  0.00  0.00    -0.031 C 
HETATM   67  C   UNK N   1      35.186   0.149  -0.003  0.00  0.00    -0.031 C 
BRANCH  67  68
HETATM   68  C   UNK N   1      34.868  -1.190  -0.597  0.00  0.00     0.027 C 
BRANCH  68  69
HETATM   69  C   UNK N   1      34.352  -2.152   0.457  0.00  0.00     0.004 C 
BRANCH  69  70
HETATM   70  C   UNK N   1      33.961  -3.455  -0.210  0.00  0.00     0.000 C 
BRANCH  70  71
HETATM   71  C   UNK N   1      32.987  -4.201   0.678  0.00  0.00     0.000 C 
BRANCH  71  72
HETATM   72  C   UNK N   1      32.609  -5.525   0.046  0.00  0.00     0.000 C 
BRANCH  72  73
HETATM   73  C   UNK N   1      31.145  -5.508  -0.351  0.00  0.00    -0.000 C 
BRANCH  73  74
HETATM   74  C   UNK N   1      30.613  -6.923  -0.495  0.00  0.00    -0.005 C 
HETATM   75  C   UNK N   1      30.319  -7.511   0.873  0.00  0.00     0.005 C 
ENDBRANCH  73  74
ENDBRANCH  72  73
ENDBRANCH  71  72
ENDBRANCH  70  71
ENDBRANCH  69  70
ENDBRANCH  68  69
ENDBRANCH  67  68
ENDBRANCH  65  66
ENDBRANCH  64  65
ENDBRANCH  63  64
ENDBRANCH  62  63
ENDBRANCH  61  62
ENDBRANCH  60  61
ENDBRANCH  59  60
ENDBRANCH  58  59
ENDBRANCH  57  58
ENDBRANCH  56  57
ENDBRANCH  55  56
ENDBRANCH  53  55
ENDBRANCH  52  53
ENDBRANCH   1  52
TORSDOF 65
