REMARK  6 active torsions:
REMARK  status: ('A' for Active; 'I' for Inactive)
REMARK    1  A    between atoms: C_2  and  C_3 
REMARK    2  A    between atoms: C_3  and  O_5 
REMARK    3  A    between atoms: C_6  and  O_5 
REMARK    4  A    between atoms: C_6  and  C_26 
REMARK    5  A    between atoms: C_26  and  C_28 
REMARK    6  A    between atoms: C_28  and  O_29 
ROOT
HETATM    1  C   UNK N   1       6.043   1.033   0.522  0.00  0.00     0.140 C 
HETATM    2  C   UNK N   1       5.855  -0.052   1.570  0.00  0.00     0.048 C 
HETATM    3  C   UNK N   1       5.264  -1.209   0.778  0.00  0.00     0.009 C 
HETATM    4  C   UNK N   1       4.134  -0.533   0.030  0.00  0.00     0.002 C 
HETATM    5  C   UNK N   1       4.798   0.788  -0.444  0.00  0.00    -0.001 C 
HETATM    6  C   UNK N   1       3.785   1.954  -0.517  0.00  0.00     0.013 C 
HETATM    7  C   UNK N   1       2.846   2.072   0.679  0.00  0.00     0.007 C 
HETATM    8  C   UNK N   1       2.040   0.784   0.843  0.00  0.00     0.002 C 
HETATM    9  C   UNK N   1       3.014  -0.372   1.084  0.00  0.00    -0.004 C 
HETATM   10  C   UNK N   1       2.262  -1.683   1.345  0.00  0.00     0.010 C 
HETATM   11  C   UNK N   1       1.313  -2.008   0.196  0.00  0.00     0.035 C 
HETATM   12  C   UNK N   1       0.361  -0.866   0.006  0.00  0.00    -0.068 C 
HETATM   13  C   UNK N   1      -0.958  -1.111  -0.008  0.00  0.00     0.053 C 
HETATM   14  C   UNK N   1      -1.929  -0.044  -0.312  0.00  0.00     0.149 C 
HETATM   15  O   UNK N   1      -3.124  -0.288  -0.303  0.00  0.00    -0.293 OA
HETATM   16  C   UNK N   1      -1.446   1.308  -0.736  0.00  0.00     0.084 C 
HETATM   17  C   UNK N   1      -0.130   1.624  -0.037  0.00  0.00     0.022 C 
HETATM   18  C   UNK N   1       0.936   0.527  -0.224  0.00  0.00    -0.016 C 
HETATM   19  C   UNK N   1       1.474   0.567  -1.651  0.00  0.00     0.020 C 
HETATM   20  C   UNK N   1       5.183   0.578  -1.897  0.00  0.00     0.019 C 
ENDROOT
BRANCH   1  21
HETATM   21  O   UNK N   1       5.971   2.281   1.131  0.00  0.00    -0.301 OA
BRANCH  21  22
HETATM   22  C   UNK N   1       6.173   3.467   0.489  0.00  0.00     0.259 C 
HETATM   23  O   UNK N   1       6.478   3.498  -0.695  0.00  0.00    -0.265 OA
BRANCH  22  24
HETATM   24  C   UNK N   1       6.018   4.744   1.245  0.00  0.00     0.106 C 
HETATM   25  C   UNK N   1       4.893   5.571   0.652  0.00  0.00     0.015 C 
ENDBRANCH  22  24
ENDBRANCH  21  22
ENDBRANCH   1  21
BRANCH   1  26
HETATM   26  C   UNK N   1       7.493   0.813   0.039  0.00  0.00     0.185 C 
HETATM   27  O   UNK N   1       8.399   0.962   0.848  0.00  0.00    -0.292 OA
BRANCH  26  28
HETATM   28  C   UNK N   1       7.875   0.424  -1.353  0.00  0.00     0.245 C 
BRANCH  28  29
HETATM   29  O   UNK N   1       8.517  -0.815  -1.338  0.00  0.00    -0.393 OA
HETATM   30  H   UNK N   1       7.994  -1.632  -1.328  0.00  0.00     0.209 HD
ENDBRANCH  28  29
ENDBRANCH  26  28
ENDBRANCH   1  26
TORSDOF 6
