REMARK  5 active torsions:
REMARK  status: ('A' for Active; 'I' for Inactive)
REMARK    1  A    between atoms: N_10  and  C_12 
REMARK    2  A    between atoms: C_12  and  C_13 
REMARK    3  A    between atoms: C_13  and  P_14 
REMARK    4  A    between atoms: P_14  and  O_16 
REMARK    5  A    between atoms: P_14  and  O_17 
ROOT
HETATM    1  C   UNK N   1       4.394   0.539   0.501  0.00  0.00     0.039 C 
HETATM    2  C   UNK N   1       3.827  -0.588  -0.354  0.00  0.00     0.121 C 
HETATM    3  N   UNK N   1       2.397  -0.741  -0.196  0.00  0.00    -0.385 N 
HETATM    4  C   UNK N   1       1.509   0.365  -0.132  0.00  0.00     0.114 A 
HETATM    5  C   UNK N   1       1.710   1.687  -0.011  0.00  0.00     0.116 A 
HETATM    6  C   UNK N   1       0.268   1.947   0.098  0.00  0.00     0.252 A 
HETATM    7  O   UNK N   1      -0.442   2.924   0.268  0.00  0.00    -0.281 OA
HETATM    8  C   UNK N   1       0.056   0.515  -0.032  0.00  0.00     0.252 A 
HETATM    9  O   UNK N   1      -0.903  -0.238   0.014  0.00  0.00    -0.281 OA
HETATM   10  N   UNK N   1       2.907   2.452   0.089  0.00  0.00    -0.375 N 
HETATM   11  C   UNK N   1       4.188   1.861  -0.226  0.00  0.00     0.125 C 
HETATM   12  H   UNK N   1       2.024  -1.649  -0.129  0.00  0.00     0.159 HD
ENDROOT
BRANCH  10  13
HETATM   13  C   UNK N   1       2.882   3.784   0.637  0.00  0.00     0.135 C 
BRANCH  13  14
HETATM   14  C   UNK N   1       2.171   4.772  -0.276  0.00  0.00     0.144 C 
BRANCH  14  15
HETATM   15  P   UNK N   1       2.071   6.422   0.591  0.00  0.00     0.237 P 
HETATM   16  O   UNK N   1       1.788   7.669  -0.288  0.00  0.00    -0.653 OA
BRANCH  15  17
HETATM   17  O   UNK N   1       3.474   6.345  -0.431  0.00  0.00    -0.329 OA
HETATM   18  H   UNK N   1       3.829   5.645  -1.001  0.00  0.00     0.220 HD
ENDBRANCH  15  17
BRANCH  15  19
HETATM   19  O   UNK N   1       0.647   5.900  -0.252  0.00  0.00    -0.329 OA
HETATM   20  H   UNK N   1      -0.004   6.444  -0.724  0.00  0.00     0.220 HD
ENDBRANCH  15  19
ENDBRANCH  14  15
ENDBRANCH  13  14
ENDBRANCH  10  13
TORSDOF 5
