REMARK  10 active torsions:
REMARK  status: ('A' for Active; 'I' for Inactive)
REMARK    1  A    between atoms: C_2  and  C_3 
REMARK    2  A    between atoms: C_3  and  N_4 
REMARK    3  A    between atoms: N_7  and  C_26 
REMARK    4  A    between atoms: C_11  and  C_12 
REMARK    5  A    between atoms: C_15  and  O_19 
REMARK    6  A    between atoms: O_19  and  C_20 
REMARK    7  A    between atoms: C_20  and  C_21 
REMARK    8  A    between atoms: C_21  and  C_22 
REMARK    9  A    between atoms: C_21  and  O_24 
REMARK   10  A    between atoms: C_22  and  O_23 
ROOT
HETATM    1  N   UNK N   1      -6.315  -6.410   0.727  0.00  0.00    -0.370 N 
ATOM      2  HN  UNK N   1      -7.317  -6.475   0.552  1.00  0.00     0.161 HD
HETATM    3  C   UNK N   1      -5.735  -5.263   0.620  0.00  0.00     0.155 C 
HETATM    4  N   UNK N   1      -6.422  -4.082   0.195  0.00  0.00    -0.257 N 
HETATM    5  C   UNK N   1      -5.543  -3.092  -0.119  0.00  0.00     0.271 C 
HETATM    6  O   UNK N   1      -5.870  -2.045  -0.657  0.00  0.00    -0.266 OA
HETATM    7  C   UNK N   1      -4.148  -3.485   0.059  0.00  0.00     0.077 C 
HETATM    8  C   UNK N   1      -3.079  -2.855  -0.476  0.00  0.00     0.036 C 
HETATM    9  S   UNK N   1      -3.989  -5.062   0.932  0.00  0.00    -0.048 SA
ENDROOT
BRANCH   8  10
HETATM   10  C   UNK N   1      -1.790  -3.564  -0.407  0.00  0.00    -0.033 A 
HETATM   11  C   UNK N   1      -0.823  -3.179   0.517  0.00  0.00     0.014 A 
HETATM   12  C   UNK N   1       0.195  -4.073   0.861  0.00  0.00     0.039 A 
HETATM   13  C   UNK N   1       0.237  -5.370   0.324  0.00  0.00     0.090 A 
HETATM   14  C   UNK N   1      -0.727  -5.738  -0.657  0.00  0.00     0.068 A 
HETATM   15  C   UNK N   1      -1.720  -4.830  -0.999  0.00  0.00     0.038 A 
HETATM   16 Cl   UNK N   1      -0.840  -7.323  -1.416  0.00  0.00    -0.081 Cl
BRANCH  13  17
HETATM   17  O   UNK N   1       1.186  -6.211   0.811  0.00  0.00    -0.347 OA
BRANCH  17  18
HETATM   18  C   UNK N   1       1.375  -7.521   0.441  0.00  0.00     0.209 C 
BRANCH  18  19
HETATM   19  C   UNK N   1       2.848  -7.806   0.205  0.00  0.00     0.166 C 
BRANCH  19  20
HETATM   20  C   UNK N   1       3.444  -6.872  -0.838  0.00  0.00     0.198 C 
BRANCH  20  21
HETATM   21  O   UNK N   1       3.567  -5.582  -0.317  0.00  0.00    -0.398 OA
HETATM   22  H   UNK N   1       4.385  -5.208   0.045  0.00  0.00     0.209 HD
ENDBRANCH  20  21
ENDBRANCH  19  20
BRANCH  19  23
HETATM   23  O   UNK N   1       2.985  -9.124  -0.229  0.00  0.00    -0.391 OA
HETATM   24  H   UNK N   1       2.238  -9.665  -0.530  0.00  0.00     0.210 HD
ENDBRANCH  19  23
ENDBRANCH  18  19
ENDBRANCH  17  18
ENDBRANCH  13  17
ENDBRANCH   8  10
BRANCH   4  25
HETATM   25  C   UNK N   1      -7.850  -4.049  -0.020  0.00  0.00     0.050 A 
HETATM   26  C   UNK N   1      -8.500  -5.239  -0.401  0.00  0.00     0.031 A 
HETATM   27  C   UNK N   1      -9.873  -5.289  -0.617  0.00  0.00     0.002 A 
HETATM   28  C   UNK N   1     -10.640  -4.143  -0.446  0.00  0.00     0.001 A 
HETATM   29  C   UNK N   1     -10.034  -2.953  -0.045  0.00  0.00     0.009 A 
HETATM   30  C   UNK N   1      -8.652  -2.886   0.168  0.00  0.00    -0.035 A 
HETATM   31  C   UNK N   1      -8.112  -1.596   0.682  0.00  0.00     0.050 C 
ENDBRANCH   4  25
BRANCH   1  32
HETATM   32  C   UNK N   1      -5.589  -7.606   1.085  0.00  0.00     0.121 C 
BRANCH  32  33
HETATM   33  C   UNK N   1      -5.677  -8.607  -0.051  0.00  0.00     0.015 C 
HETATM   34  C   UNK N   1      -4.798  -9.804   0.247  0.00  0.00     0.006 C 
ENDBRANCH  32  33
ENDBRANCH   1  32
TORSDOF 10
