REMARK  1 active torsions:
REMARK  status: ('A' for Active; 'I' for Inactive)
REMARK    1  A    between atoms: C_16  and  C_15 
REMARK       I    between atoms: N_30  and  C_17 
REMARK       I    between atoms: N_31  and  C_18 
REMARK       I    between atoms: N_32  and  C_19 
ROOT
HETATM    1  C   UNK N   1       5.004  -0.155   0.184  0.00  0.00     0.002 A 
HETATM    2  C   UNK N   1       4.937   1.251   0.314  0.00  0.00     0.002 A 
HETATM    3  C   UNK N   1       3.825  -0.920   0.073  0.00  0.00     0.032 A 
HETATM    4  C   UNK N   1       3.692   1.902   0.329  0.00  0.00     0.033 A 
HETATM    5  C   UNK N   1       3.614   5.752  -0.230  0.00  0.00     0.167 C 
HETATM    6  C   UNK N   1       1.841   7.571   0.016  0.00  0.00     0.167 C 
HETATM    7  C   UNK N   1      -2.914   5.990   0.258  0.00  0.00     0.167 C 
HETATM    8  C   UNK N   1      -3.310   3.587   0.707  0.00  0.00     0.167 C 
HETATM    9  C   UNK N   1       4.553   6.924  -0.480  0.00  0.00     0.188 C 
HETATM   10  C   UNK N   1       3.031   8.503  -0.245  0.00  0.00     0.188 C 
HETATM   11  C   UNK N   1      -3.961   5.839  -0.854  0.00  0.00     0.188 C 
HETATM   12  C   UNK N   1      -4.314   3.633  -0.443  0.00  0.00     0.188 C 
HETATM   13  C   UNK N   1       2.611  -0.240   0.096  0.00  0.00     0.061 A 
HETATM   14  C   UNK N   1       2.545   1.113   0.214  0.00  0.00     0.085 A 
HETATM   15  C   UNK N   1       0.553   0.332   0.069  0.00  0.00     0.171 A 
HETATM   16  C   UNK N   1       1.248   5.146   0.131  0.00  0.00     0.709 A 
HETATM   17  C   UNK N   1      -0.982   4.411   0.401  0.00  0.00     0.709 A 
HETATM   18  C   UNK N   1       0.775   2.845   0.269  0.00  0.00     0.720 A 
HETATM   19  N   UNK N   1       1.370  -0.754   0.003  0.00  0.00    -0.339 N 
ATOM     20  HN  UNK N   1       1.104  -1.734  -0.095  1.00  0.00     0.167 HD
HETATM   21  N   UNK N   1      -0.082   5.431   0.257  0.00  0.00    -0.021 N 
ATOM     22  HN  UNK N   1      -0.402   6.400   0.244  1.00  0.00     0.203 HD
HETATM   23  N   UNK N   1       1.652   3.859   0.142  0.00  0.00    -0.021 N 
ATOM     24  HN  UNK N   1       2.646   3.649   0.052  1.00  0.00     0.203 HD
HETATM   25  N   UNK N   1      -0.545   3.122   0.402  0.00  0.00    -0.021 N 
ATOM     26  HN  UNK N   1      -1.215   2.360   0.503  1.00  0.00     0.203 HD
HETATM   27  N   UNK N   1       2.224   6.167  -0.043  0.00  0.00    -0.213 N 
HETATM   28  N   UNK N   1      -2.375   4.675   0.518  0.00  0.00    -0.213 N 
HETATM   29  N   UNK N   1       1.253   1.492   0.200  0.00  0.00    -0.127 N 
HETATM   30  O   UNK N   1       4.188   7.986   0.349  0.00  0.00    -0.388 OA
HETATM   31  O   UNK N   1      -4.938   4.896  -0.467  0.00  0.00    -0.388 OA
ENDROOT
BRANCH  15  32
HETATM   32  C   UNK N   1      -0.940   0.239  -0.039  0.00  0.00     0.421 C 
HETATM   33  F   UNK N   1      -1.374   0.947  -1.145  0.00  0.00    -0.206 F 
HETATM   34  F   UNK N   1      -1.331  -1.081  -0.175  0.00  0.00    -0.206 F 
ENDBRANCH  15  32
TORSDOF 1
