REMARK  7 active torsions:
REMARK  status: ('A' for Active; 'I' for Inactive)
REMARK    1  A    between atoms: C_10  and  N_11 
REMARK    2  A    between atoms: N_14  and  C_17 
REMARK    3  A    between atoms: C_17  and  C_18 
REMARK    4  A    between atoms: C_18  and  C_19 
REMARK    5  A    between atoms: C_19  and  C_20 
REMARK    6  A    between atoms: C_20  and  O_21 
REMARK    7  A    between atoms: O_21  and  C_22 
ROOT
HETATM    1  C   UNK N   1      -4.662   1.735   0.064  0.00  0.00     0.272 C 
ENDROOT
BRANCH   1   2
HETATM    2  N   UNK N   1      -5.502   0.904   0.912  0.00  0.00     0.091 N 
HETATM    3  C   UNK N   1      -6.927   1.250   0.782  0.00  0.00     0.292 C 
HETATM    4  C   UNK N   1      -7.590   0.619  -0.444  0.00  0.00     0.153 C 
HETATM    5  N   UNK N   1      -7.265  -0.786  -0.466  0.00  0.00    -0.377 N 
HETATM    6  C   UNK N   1      -5.862  -1.102  -0.527  0.00  0.00     0.153 C 
HETATM    7  C   UNK N   1      -5.194  -0.523   0.718  0.00  0.00     0.292 C 
BRANCH   5   8
HETATM    8  C   UNK N   1      -8.295  -1.779  -0.283  0.00  0.00     0.041 A 
HETATM    9  C   UNK N   1      -9.633  -1.348  -0.201  0.00  0.00     0.030 A 
HETATM   10  C   UNK N   1     -10.679  -2.247   0.001  0.00  0.00     0.003 A 
HETATM   11  C   UNK N   1     -10.418  -3.606   0.134  0.00  0.00     0.012 A 
HETATM   12  C   UNK N   1      -9.110  -4.079   0.062  0.00  0.00    -0.024 A 
HETATM   13  C   UNK N   1      -8.029  -3.179  -0.149  0.00  0.00     0.001 A 
HETATM   14  C   UNK N   1      -8.872  -5.449   0.208  0.00  0.00     0.012 A 
HETATM   15  C   UNK N   1      -6.729  -3.708  -0.206  0.00  0.00     0.014 A 
HETATM   16  C   UNK N   1      -6.500  -5.078  -0.060  0.00  0.00     0.001 A 
HETATM   17  C   UNK N   1      -7.570  -5.947   0.147  0.00  0.00     0.001 A 
ENDBRANCH   5   8
ENDBRANCH   1   2
BRANCH   1  18
HETATM   18  C   UNK N   1      -3.379   2.026   0.827  0.00  0.00     0.032 C 
BRANCH  18  19
HETATM   19  C   UNK N   1      -2.206   2.320  -0.092  0.00  0.00     0.028 C 
BRANCH  19  20
HETATM   20  C   UNK N   1      -1.881   1.160  -1.027  0.00  0.00     0.177 C 
BRANCH  20  21
HETATM   21  O   UNK N   1      -1.778  -0.043  -0.360  0.00  0.00    -0.336 OA
BRANCH  21  22
HETATM   22  C   UNK N   1      -0.587  -0.656  -0.174  0.00  0.00     0.143 A 
HETATM   23  C   UNK N   1      -0.551  -2.026   0.097  0.00  0.00     0.057 A 
HETATM   24  C   UNK N   1       0.683  -2.662   0.240  0.00  0.00     0.015 A 
HETATM   25  C   UNK N   1       1.864  -1.927   0.132  0.00  0.00    -0.013 A 
HETATM   26  C   UNK N   1       1.791  -0.548  -0.109  0.00  0.00     0.116 A 
HETATM   27  C   UNK N   1       3.180  -2.629   0.283  0.00  0.00     0.051 A 
HETATM   28  N   UNK N   1       0.576   0.047  -0.265  0.00  0.00    -0.323 N 
HETATM   29  N   UNK N   1       2.961   0.239  -0.190  0.00  0.00    -0.313 N 
ATOM     30  HN  UNK N   1       0.536   1.048  -0.456  1.00  0.00     0.169 HD
HETATM   31  C   UNK N   1       4.205  -0.281  -0.066  0.00  0.00     0.223 A 
HETATM   32  H   UNK N   1       2.868   1.207  -0.343  0.00  0.00     0.170 HD
HETATM   33  O   UNK N   1       5.170   0.461  -0.133  0.00  0.00    -0.273 OA
HETATM   34  C   UNK N   1       4.432  -1.754   0.146  0.00  0.00     0.108 A 
ENDBRANCH  21  22
ENDBRANCH  20  21
ENDBRANCH  19  20
ENDBRANCH  18  19
ENDBRANCH   1  18
TORSDOF 7
