REMARK  17 active torsions:
REMARK  status: ('A' for Active; 'I' for Inactive)
REMARK    1  A    between atoms: C_2  and  O_3 
REMARK    2  A    between atoms: O_3  and  C_4 
REMARK    3  A    between atoms: C_4  and  C_6 
REMARK    4  A    between atoms: C_6  and  C_7 
REMARK    5  A    between atoms: C_6  and  C_42 
REMARK    6  A    between atoms: C_6  and  C_48 
REMARK    7  A    between atoms: C_7  and  O_8 
REMARK    8  A    between atoms: O_8  and  C_9 
REMARK    9  A    between atoms: C_9  and  C_11 
REMARK   10  A    between atoms: C_11  and  C_12 
REMARK   11  A    between atoms: C_15  and  N_23 
REMARK   12  A    between atoms: C_16  and  C_18 
REMARK       I    between atoms: C_18  and  N_20 
REMARK       I    between atoms: N_23  and  C_24 
REMARK   13  A    between atoms: C_24  and  C_26 
REMARK   14  A    between atoms: C_31  and  C_32 
REMARK   15  A    between atoms: C_35  and  C_38 
REMARK   16  A    between atoms: C_48  and  O_50 
REMARK   17  A    between atoms: O_50  and  C_51 
ROOT
HETATM    1  C   UNK N   1      -3.720  -1.945   0.999  0.00  0.00    -0.048 C 
HETATM    2  C   UNK N   1      -2.557  -2.620   1.335  0.00  0.00     0.010 C 
HETATM    3  C   UNK N   1      -2.430  -3.950   0.942  0.00  0.00     0.031 C 
HETATM    4  C   UNK N   1      -3.466  -4.602   0.227  0.00  0.00     0.050 C 
HETATM    5  C   UNK N   1      -4.693  -3.960   0.060  0.00  0.00     0.059 C 
HETATM    6  C   UNK N   1      -4.772  -2.645   0.410  0.00  0.00     0.027 C 
ENDROOT
BRANCH   1   7
HETATM    7  C   UNK N   1      -3.836  -0.460   1.138  0.00  0.00     0.149 C 
BRANCH   7   8
HETATM    8  C   UNK N   1      -5.175  -0.050   0.583  0.00  0.00     0.263 C 
HETATM    9  O   UNK N   1      -6.183  -0.409   1.172  0.00  0.00    -0.265 OA
BRANCH   8  10
HETATM   10  O   UNK N   1      -5.301   0.505  -0.650  0.00  0.00    -0.319 OA
BRANCH  10  11
HETATM   11  C   UNK N   1      -4.641   1.649  -1.056  0.00  0.00     0.214 C 
BRANCH  11  12
HETATM   12  C   UNK N   1      -4.842   2.783  -0.022  0.00  0.00     0.184 C 
BRANCH  12  13
HETATM   13  C   UNK N   1      -4.794   4.154  -0.668  0.00  0.00     0.284 C 
HETATM   14  O   UNK N   1      -4.011   5.005  -0.264  0.00  0.00    -0.263 OA
BRANCH  13  15
HETATM   15  O   UNK N   1      -5.706   4.468  -1.621  0.00  0.00    -0.321 OA
BRANCH  15  16
HETATM   16  C   UNK N   1      -6.055   5.768  -1.904  0.00  0.00     0.174 C 
HETATM   17  C   UNK N   1      -7.032   6.261  -0.847  0.00  0.00     0.034 C 
ENDBRANCH  15  16
ENDBRANCH  13  15
ENDBRANCH  12  13
BRANCH  12  18
HETATM   18  C   UNK N   1      -6.274   2.629   0.559  0.00  0.00    -0.028 A 
HETATM   19  C   UNK N   1      -6.518   2.382   1.922  0.00  0.00     0.009 A 
HETATM   20  C   UNK N   1      -7.806   2.084   2.376  0.00  0.00     0.001 A 
HETATM   21  C   UNK N   1      -8.872   2.026   1.476  0.00  0.00     0.000 A 
HETATM   22  C   UNK N   1      -8.656   2.288   0.123  0.00  0.00     0.001 A 
HETATM   23  C   UNK N   1      -7.370   2.580  -0.331  0.00  0.00     0.009 A 
ENDBRANCH  12  18
BRANCH  12  24
HETATM   24  C   UNK N   1      -3.658   2.629   0.962  0.00  0.00     0.284 C 
HETATM   25  O   UNK N   1      -3.862   2.435   2.149  0.00  0.00    -0.263 OA
BRANCH  24  26
HETATM   26  O   UNK N   1      -2.361   2.650   0.533  0.00  0.00    -0.321 OA
BRANCH  26  27
HETATM   27  C   UNK N   1      -1.969   2.834  -0.776  0.00  0.00     0.174 C 
HETATM   28  C   UNK N   1      -0.478   2.599  -0.907  0.00  0.00     0.034 C 
ENDBRANCH  26  27
ENDBRANCH  24  26
ENDBRANCH  12  24
ENDBRANCH  11  12
ENDBRANCH  10  11
ENDBRANCH   8  10
ENDBRANCH   7   8
ENDBRANCH   1   7
BRANCH   5  29
HETATM   29  C   UNK N   1      -5.897  -4.525  -0.612  0.00  0.00     0.255 C 
HETATM   30  O   UNK N   1      -6.570  -3.783  -1.306  0.00  0.00    -0.267 OA
HETATM   31  N   UNK N   1      -6.330  -5.800  -0.366  0.00  0.00    -0.357 N 
HETATM   32  C   UNK N   1      -5.690  -6.653   0.598  0.00  0.00     0.152 C 
HETATM   33  C   UNK N   1      -7.572  -6.252  -0.949  0.00  0.00     0.152 C 
ENDBRANCH   5  29
BRANCH   4  34
HETATM   34  N   UNK N   1      -3.187  -5.721  -0.599  0.00  0.00    -0.322 N 
HETATM   35  C   UNK N   1      -2.032  -5.810  -1.324  0.00  0.00     0.257 C 
HETATM   36  O   UNK N   1      -1.856  -6.776  -2.047  0.00  0.00    -0.267 OA
HETATM   37  H   UNK N   1      -3.843  -6.454  -0.651  0.00  0.00     0.169 HD
BRANCH  35  38
HETATM   38  C   UNK N   1      -0.925  -4.814  -1.155  0.00  0.00     0.043 A 
HETATM   39  C   UNK N   1      -0.982  -3.572  -1.801  0.00  0.00     0.018 A 
HETATM   40  C   UNK N   1       0.037  -2.634  -1.604  0.00  0.00     0.001 A 
HETATM   41  C   UNK N   1       1.116  -2.933  -0.764  0.00  0.00     0.001 A 
HETATM   42  C   UNK N   1       1.182  -4.169  -0.110  0.00  0.00     0.013 A 
HETATM   43  C   UNK N   1       0.153  -5.100  -0.278  0.00  0.00    -0.010 A 
BRANCH  43  44
HETATM   44  C   UNK N   1       0.179  -6.417   0.371  0.00  0.00    -0.025 A 
HETATM   45  C   UNK N   1       1.013  -7.371  -0.210  0.00  0.00     0.013 A 
HETATM   46  C   UNK N   1       0.677  -8.721  -0.144  0.00  0.00     0.017 A 
HETATM   47  C   UNK N   1      -0.509  -9.124   0.484  0.00  0.00     0.048 A 
HETATM   48  C   UNK N   1      -1.294  -8.183   1.155  0.00  0.00     0.017 A 
HETATM   49  C   UNK N   1      -0.958  -6.836   1.085  0.00  0.00     0.013 A 
BRANCH  47  50
HETATM   50  C   UNK N   1      -0.990 -10.528   0.311  0.00  0.00     0.417 C 
HETATM   51  F   UNK N   1      -1.152 -10.765  -1.044  0.00  0.00    -0.166 F 
HETATM   52  F   UNK N   1      -2.212 -10.721   0.934  0.00  0.00    -0.166 F 
HETATM   53  F   UNK N   1      -0.066 -11.415   0.823  0.00  0.00    -0.166 F 
ENDBRANCH  47  50
ENDBRANCH  43  44
ENDBRANCH  35  38
ENDBRANCH   4  34
TORSDOF 17
