REMARK  7 active torsions:
REMARK  status: ('A' for Active; 'I' for Inactive)
REMARK    1  A    between atoms: C_4  and  C_9 
REMARK    2  A    between atoms: C_5  and  O_8 
REMARK       I    between atoms: C_9  and  N_11 
REMARK    3  A    between atoms: C_12  and  N_11 
REMARK    4  A    between atoms: C_15  and  N_18 
REMARK       I    between atoms: N_18  and  C_19 
REMARK    5  A    between atoms: C_19  and  C_21 
REMARK    6  A    between atoms: C_22  and  O_29 
REMARK    7  A    between atoms: O_29  and  C_30 
ROOT
HETATM    1  N   UNK N   1       1.373  -9.643   0.900  0.00  0.00    -0.352 N 
HETATM    2  C   UNK N   1       2.280  -9.525  -0.098  0.00  0.00     0.256 C 
HETATM    3  O   UNK N   1       2.103  -8.756  -1.031  0.00  0.00    -0.267 OA
HETATM    4  H   UNK N   1       1.604 -10.237   1.650  0.00  0.00     0.163 HD
ENDROOT
BRANCH   1   5
HETATM    5  C   UNK N   1       0.095  -8.970   0.958  0.00  0.00     0.084 C 
HETATM    6  C   UNK N   1       0.156  -7.428   0.899  0.00  0.00     0.027 C 
HETATM    7  C   UNK N   1       0.194  -6.876  -0.532  0.00  0.00     0.027 C 
HETATM    8  C   UNK N   1      -0.884  -7.503  -1.419  0.00  0.00     0.084 C 
HETATM    9  C   UNK N   1      -0.732  -9.030  -1.421  0.00  0.00     0.027 C 
HETATM   10  C   UNK N   1      -0.897  -9.588  -0.009  0.00  0.00     0.027 C 
BRANCH   8  11
HETATM   11  N   UNK N   1      -2.198  -7.007  -1.026  0.00  0.00    -0.352 N 
HETATM   12  C   UNK N   1      -3.335  -7.727  -0.812  0.00  0.00     0.254 C 
HETATM   13  O   UNK N   1      -3.363  -8.935  -1.009  0.00  0.00    -0.268 OA
HETATM   14  H   UNK N   1      -2.273  -6.033  -0.900  0.00  0.00     0.163 HD
BRANCH  12  15
HETATM   15  C   UNK N   1      -4.560  -7.038  -0.354  0.00  0.00     0.065 A 
HETATM   16  C   UNK N   1      -4.546  -5.639  -0.240  0.00  0.00     0.026 A 
HETATM   17  C   UNK N   1      -5.685  -4.950   0.175  0.00  0.00    -0.061 A 
HETATM   18  C   UNK N   1      -5.657  -3.468   0.274  0.00  0.00     0.048 C 
HETATM   19  C   UNK N   1      -6.850  -5.651   0.488  0.00  0.00     0.009 A 
HETATM   20  C   UNK N   1      -6.877  -7.043   0.389  0.00  0.00     0.038 A 
HETATM   21  C   UNK N   1      -5.742  -7.741  -0.030  0.00  0.00     0.081 A 
BRANCH  21  22
HETATM   22  O   UNK N   1      -5.797  -9.084  -0.111  0.00  0.00    -0.360 OA
HETATM   23  H   UNK N   1      -6.626  -9.518  -0.167  0.00  0.00     0.217 HD
ENDBRANCH  21  22
ENDBRANCH  12  15
ENDBRANCH   8  11
ENDBRANCH   1   5
BRANCH   2  24
HETATM   24  C   UNK N   1       3.571 -10.178   0.046  0.00  0.00     0.086 A 
HETATM   25  C   UNK N   1       4.713  -9.385   0.146  0.00  0.00     0.164 A 
HETATM   26  N   UNK N   1       5.934  -9.968   0.304  0.00  0.00    -0.343 N 
HETATM   27  C   UNK N   1       6.063 -11.325   0.363  0.00  0.00     0.132 A 
ATOM     28  HN  UNK N   1       6.765  -9.381   0.380  1.00  0.00     0.167 HD
HETATM   29  C   UNK N   1       4.931 -12.146   0.280  0.00  0.00     0.132 A 
HETATM   30  C   UNK N   1       3.675 -11.565   0.133  0.00  0.00     0.065 A 
HETATM   31  F   UNK N   1       5.052 -13.494   0.336  0.00  0.00    -0.205 F 
BRANCH  25  32
HETATM   32  O   UNK N   1       4.544  -8.037   0.170  0.00  0.00    -0.293 OA
BRANCH  32  33
HETATM   33  C   UNK N   1       5.451  -7.049   0.058  0.00  0.00     0.081 A 
HETATM   34  C   UNK N   1       5.047  -5.751   0.387  0.00  0.00     0.082 A 
HETATM   35  C   UNK N   1       5.925  -4.679   0.240  0.00  0.00     0.157 A 
HETATM   36  C   UNK N   1       7.215  -4.900  -0.254  0.00  0.00     0.154 A 
HETATM   37  F   UNK N   1       5.521  -3.427   0.568  0.00  0.00    -0.203 F 
HETATM   38  C   UNK N   1       7.626  -6.197  -0.582  0.00  0.00     0.048 A 
HETATM   39  F   UNK N   1       8.067  -3.861  -0.418  0.00  0.00    -0.203 F 
HETATM   40  C   UNK N   1       6.747  -7.273  -0.424  0.00  0.00     0.040 A 
ENDBRANCH  32  33
ENDBRANCH  25  32
ENDBRANCH   2  24
TORSDOF 7
