REMARK  5 active torsions:
REMARK  status: ('A' for Active; 'I' for Inactive)
REMARK    1  A    between atoms: C_6  and  C_3 
REMARK    2  A    between atoms: O_14  and  C_3 
REMARK    3  A    between atoms: C_5  and  O_15 
REMARK    4  A    between atoms: C_7  and  N_13 
REMARK    5  A    between atoms: O_16  and  C_8 
ROOT
HETATM    1  C   UNK N   1      -0.848  -1.104  -0.100  0.00  0.00     0.122 A 
HETATM    2  C   UNK N   1      -0.245  -2.350   0.084  0.00  0.00     0.077 A 
HETATM    3  C   UNK N   1       1.137  -2.410   0.265  0.00  0.00     0.163 A 
HETATM    4  C   UNK N   1       1.268  -0.046   0.107  0.00  0.00     0.330 A 
HETATM    5 Br   UNK N   1      -1.307  -3.938   0.059  0.00  0.00    -0.045 Br
HETATM    6  N   UNK N   1       1.864  -1.267   0.281  0.00  0.00    -0.288 N 
ATOM      7  HN  UNK N   1       2.873  -1.317   0.425  1.00  0.00     0.172 HD
HETATM    8  N   UNK N   1      -0.101   0.037  -0.093  0.00  0.00    -0.281 N 
HETATM    9  O   UNK N   1       1.958   0.958   0.101  0.00  0.00    -0.246 OA
ENDROOT
BRANCH   8  10
HETATM   10  C   UNK N   1      -0.724   1.342  -0.387  0.00  0.00     0.235 C 
HETATM   11  C   UNK N   1      -0.620   2.326   0.766  0.00  0.00     0.088 C 
HETATM   12  C   UNK N   1      -1.532   3.373   0.212  0.00  0.00     0.153 C 
HETATM   13  C   UNK N   1      -2.660   2.510  -0.370  0.00  0.00     0.176 C 
HETATM   14  O   UNK N   1      -2.098   1.249  -0.705  0.00  0.00    -0.356 OA
BRANCH  12  15
HETATM   15  O   UNK N   1      -1.947   4.300   1.172  0.00  0.00    -0.393 OA
HETATM   16  H   UNK N   1      -1.533   4.871   1.838  0.00  0.00     0.210 HD
ENDBRANCH  12  15
BRANCH  13  17
HETATM   17  C   UNK N   1      -3.810   2.287   0.611  0.00  0.00     0.198 C 
BRANCH  17  18
HETATM   18  O   UNK N   1      -4.558   3.462   0.747  0.00  0.00    -0.398 OA
HETATM   19  H   UNK N   1      -4.111   4.318   0.841  0.00  0.00     0.209 HD
ENDBRANCH  17  18
ENDBRANCH  13  17
ENDBRANCH   8  10
BRANCH   3  20
HETATM   20  O   UNK N   1       1.756  -3.594   0.416  0.00  0.00    -0.345 OA
HETATM   21  H   UNK N   1       1.257  -4.380   0.521  0.00  0.00     0.219 HD
ENDBRANCH   3  20
TORSDOF 5
