REMARK  6 active torsions:
REMARK  status: ('A' for Active; 'I' for Inactive)
REMARK    1  A    between atoms: C_2  and  C_3 
REMARK       I    between atoms: C_7  and  N_11 
REMARK    2  A    between atoms: C_14  and  C_17 
REMARK    3  A    between atoms: C_20  and  C_23 
REMARK    4  A    between atoms: C_23  and  O_24 
REMARK    5  A    between atoms: O_24  and  C_25 
REMARK    6  A    between atoms: C_28  and  N_31 
ROOT
HETATM    1  C   UNK N   1      -0.099  -2.516  -0.262  0.00  0.00     0.055 A 
HETATM    2  N   UNK N   1       0.473  -3.325  -1.171  0.00  0.00    -0.355 N 
ATOM      3  HN  UNK N   1       0.943  -2.991  -2.012  1.00  0.00     0.166 HD
HETATM    4  C   UNK N   1       0.355  -4.649  -0.840  0.00  0.00     0.041 A 
HETATM    5  C   UNK N   1      -0.332  -4.929   0.355  0.00  0.00     0.078 A 
HETATM    6  S   UNK N   1      -0.765  -3.435   0.940  0.00  0.00    -0.086 SA
ENDROOT
BRANCH   1   7
HETATM    7  C   UNK N   1      -0.027  -1.038  -0.387  0.00  0.00     0.046 C 
HETATM    8  C   UNK N   1       1.446  -0.622  -0.617  0.00  0.00     0.032 C 
HETATM    9  C   UNK N   1       2.194  -0.418   0.701  0.00  0.00     0.142 C 
HETATM   10  N   UNK N   1       1.410   0.530   1.442  0.00  0.00    -0.218 N 
HETATM   11  C   UNK N   1       1.464   1.886   1.004  0.00  0.00     0.679 A 
HETATM   12  C   UNK N   1       0.160   0.014   1.943  0.00  0.00     0.142 C 
HETATM   13  N   UNK N   1       2.548   2.333   0.307  0.00  0.00    -0.201 N 
HETATM   14  N   UNK N   1       0.368   2.685   1.131  0.00  0.00    -0.201 N 
HETATM   15  C   UNK N   1       2.549   3.560  -0.273  0.00  0.00     0.114 A 
ATOM     16  HN  UNK N   1       3.370   1.736   0.221  1.00  0.00     0.183 HD
HETATM   17  C   UNK N   1       1.422   4.371  -0.178  0.00  0.00    -0.027 A 
HETATM   18  C   UNK N   1       0.326   3.910   0.549  0.00  0.00     0.114 A 
ATOM     19  HN  UNK N   1      -0.433   2.358   1.671  1.00  0.00     0.183 HD
HETATM   20  C   UNK N   1      -0.747  -0.262   0.739  0.00  0.00     0.032 C 
BRANCH  17  21
HETATM   21  C   UNK N   1       1.372   5.677  -0.895  0.00  0.00     0.037 C 
HETATM   22  C   UNK N   1       1.091   6.818   0.063  0.00  0.00     0.010 C 
ENDBRANCH  17  21
ENDBRANCH   1   7
BRANCH   4  23
HETATM   23  C   UNK N   1       1.054  -5.671  -1.638  0.00  0.00     0.233 C 
BRANCH  23  24
HETATM   24  O   UNK N   1       2.374  -5.280  -1.707  0.00  0.00    -0.345 OA
BRANCH  24  25
HETATM   25  C   UNK N   1       3.373  -5.942  -1.090  0.00  0.00     0.069 A 
HETATM   26  C   UNK N   1       4.685  -5.482  -1.231  0.00  0.00     0.039 A 
HETATM   27  C   UNK N   1       5.745  -6.208  -0.682  0.00  0.00     0.034 A 
HETATM   28  C   UNK N   1       5.493  -7.396   0.018  0.00  0.00     0.055 A 
HETATM   29  C   UNK N   1       4.174  -7.823   0.209  0.00  0.00     0.034 A 
HETATM   30  C   UNK N   1       3.119  -7.099  -0.338  0.00  0.00     0.039 A 
BRANCH  28  31
HETATM   31  N   UNK N   1       6.574  -8.236   0.433  0.00  0.00    -0.236 N 
HETATM   32  C   UNK N   1       7.889  -8.042   0.237  0.00  0.00     0.218 A 
HETATM   33  N   UNK N   1       8.552  -9.126   0.687  0.00  0.00    -0.280 N 
HETATM   34  N   UNK N   1       7.630  -9.964   1.143  0.00  0.00    -0.007 NA
ATOM     35  HN  UNK N   1       9.561  -9.273   0.678  1.00  0.00     0.184 HD
HETATM   36  N   UNK N   1       6.432  -9.427   0.987  0.00  0.00    -0.000 NA
ENDBRANCH  28  31
ENDBRANCH  24  25
ENDBRANCH  23  24
ENDBRANCH   4  23
TORSDOF 6
