REMARK  3 active torsions:
REMARK  status: ('A' for Active; 'I' for Inactive)
REMARK    1  A    between atoms: C_2  and  C_3 
REMARK    2  A    between atoms: C_2  and  N_13 
REMARK    3  A    between atoms: C_19  and  C_22 
ROOT
HETATM    1  N   UNK N   1      -0.174  -1.185   0.170  0.00  0.00    -0.248 N 
HETATM    2  C   UNK N   1       0.992  -0.615  -0.046  0.00  0.00     0.168 A 
HETATM    3  C   UNK N   1       0.900   0.697   0.175  0.00  0.00     0.164 A 
HETATM    4  N   UNK N   1       1.981   1.513   0.106  0.00  0.00    -0.346 N 
ATOM      5  HN  UNK N   1       1.895   2.521   0.239  1.00  0.00     0.167 HD
HETATM    6  C   UNK N   1       3.204   0.923  -0.151  0.00  0.00     0.120 A 
HETATM    7  C   UNK N   1       3.269  -0.491  -0.370  0.00  0.00     0.062 A 
HETATM    8  N   UNK N   1       2.136  -1.222  -0.333  0.00  0.00    -0.336 N 
ATOM      9  HN  UNK N   1       2.158  -2.224  -0.521  1.00  0.00     0.168 HD
HETATM   10  N   UNK N   1      -0.366   0.972   0.542  0.00  0.00    -0.266 N 
ATOM     11  HN  UNK N   1      -0.756   1.887   0.769  1.00  0.00     0.186 HD
HETATM   12  N   UNK N   1      -1.004  -0.203   0.548  0.00  0.00    -0.016 NA
ENDROOT
BRANCH   1  13
HETATM   13  C   UNK N   1      -0.451  -2.634   0.152  0.00  0.00     0.138 C 
HETATM   14  C   UNK N   1       0.461  -3.481  -0.731  0.00  0.00     0.039 C 
BRANCH  13  15
HETATM   15  C   UNK N   1      -1.887  -2.941   0.003  0.00  0.00    -0.018 A 
HETATM   16  C   UNK N   1      -2.457  -3.986   0.756  0.00  0.00     0.014 A 
HETATM   17  C   UNK N   1      -3.852  -4.092   0.857  0.00  0.00     0.050 A 
HETATM   18  C   UNK N   1      -4.613  -3.108   0.229  0.00  0.00     0.111 A 
HETATM   19  N   UNK N   1      -5.945  -2.972   0.287  0.00  0.00    -0.351 N 
HETATM   20  N   UNK N   1      -4.042  -2.143  -0.494  0.00  0.00    -0.317 N 
HETATM   21  C   UNK N   1      -6.209  -1.854  -0.439  0.00  0.00     0.107 A 
ATOM     22  HN  UNK N   1      -6.612  -3.574   0.770  1.00  0.00     0.166 HD
HETATM   23  C   UNK N   1      -5.015  -1.339  -0.929  0.00  0.00     0.115 A 
HETATM   24  C   UNK N   1      -2.715  -2.020  -0.647  0.00  0.00     0.107 A 
ENDBRANCH  13  15
ENDBRANCH   1  13
BRANCH   7  25
HETATM   25  C   UNK N   1       4.490  -1.279  -0.393  0.00  0.00     0.026 A 
HETATM   26  C   UNK N   1       5.791  -0.924  -0.109  0.00  0.00     0.122 A 
HETATM   27  N   UNK N   1       6.511  -2.067  -0.033  0.00  0.00    -0.310 N 
HETATM   28  N   UNK N   1       5.699  -3.089  -0.253  0.00  0.00    -0.307 N 
ATOM     29  HN  UNK N   1       7.510  -2.130   0.162  1.00  0.00     0.186 HD
HETATM   30  C   UNK N   1       4.461  -2.655  -0.471  0.00  0.00     0.124 A 
HETATM   31  C   UNK N   1       6.081  -4.487  -0.192  0.00  0.00     0.177 C 
ENDBRANCH   7  25
TORSDOF 3
