REMARK  2 active torsions:
REMARK  status: ('A' for Active; 'I' for Inactive)
REMARK    1  A    between atoms: C_3  and  O_4 
REMARK    2  A    between atoms: C_5  and  O_4 
ROOT
HETATM    1  C   UNK N   1      -3.860  -2.937  -0.311  0.00  0.00     0.014 C 
HETATM    2  C   UNK N   1      -2.676  -2.737  -0.186  0.00  0.00    -0.091 C 
HETATM    3  C   UNK N   1      -1.240  -2.509  -0.030  0.00  0.00     0.261 C 
ENDROOT
BRANCH   3   4
HETATM    4  O   UNK N   1      -0.862  -1.329  -0.680  0.00  0.00    -0.372 OA
BRANCH   4   5
HETATM    5  C   UNK N   1      -0.293  -0.523   0.315  0.00  0.00     0.155 C 
HETATM    6  C   UNK N   1      -0.622   0.963   0.043  0.00  0.00     0.304 C 
HETATM    7  N   UNK N   1       0.607   1.776  -0.063  0.00  0.00     0.090 N 
HETATM    8  C   UNK N   1       1.425   1.270  -1.178  0.00  0.00     0.273 C 
HETATM    9  C   UNK N   1       1.377   1.660   1.190  0.00  0.00     0.273 C 
HETATM   10  C   UNK N   1       1.824  -0.207  -0.963  0.00  0.00     0.037 C 
HETATM   11  C   UNK N   1       1.233  -0.709   0.362  0.00  0.00     0.020 C 
HETATM   12  C   UNK N   1       1.771   0.194   1.477  0.00  0.00     0.037 C 
ENDBRANCH   4   5
ENDBRANCH   3   4
TORSDOF 2
