REMARK  4 active torsions:
REMARK  status: ('A' for Active; 'I' for Inactive)
REMARK    1  A    between atoms: C_5  and  C_18 
REMARK    2  A    between atoms: C_6  and  C_8 
REMARK    3  A    between atoms: C_11  and  S_14 
REMARK    4  A    between atoms: S_14  and  N_17 
ROOT
HETATM    1  C   UNK N   1       0.506   1.027  -1.636  0.00  0.00     0.055 C 
HETATM    2  C   UNK N   1       0.734   0.333  -0.306  0.00  0.00     0.125 A 
HETATM    3  C   UNK N   1       1.960  -0.516  -0.333  0.00  0.00     0.197 A 
HETATM    4  O   UNK N   1       3.096  -0.109  -0.536  0.00  0.00    -0.289 OA
HETATM    5  C   UNK N   1       1.580  -1.900  -0.123  0.00  0.00     0.058 A 
HETATM    6  C   UNK N   1       0.245  -1.878   0.047  0.00  0.00     0.095 A 
HETATM    7  O   UNK N   1      -0.253  -0.621  -0.079  0.00  0.00    -0.331 OA
HETATM    8  C   UNK N   1       0.780   1.345   0.824  0.00  0.00     0.055 C 
ENDROOT
BRANCH   6   9
HETATM    9  C   UNK N   1      -0.644  -3.033   0.319  0.00  0.00    -0.002 A 
HETATM   10  C   UNK N   1      -0.237  -4.073   1.161  0.00  0.00     0.016 A 
HETATM   11  C   UNK N   1      -1.030  -5.202   1.343  0.00  0.00     0.026 A 
HETATM   12  C   UNK N   1      -2.258  -5.330   0.683  0.00  0.00     0.079 A 
HETATM   13  C   UNK N   1      -2.699  -4.238  -0.123  0.00  0.00     0.026 A 
HETATM   14  C   UNK N   1      -1.907  -3.095  -0.278  0.00  0.00     0.016 A 
BRANCH  12  15
HETATM   15  S   UNK N   1      -3.113  -6.963   0.879  0.00  0.00     0.256 S 
HETATM   16  O   UNK N   1      -4.018  -7.679  -0.133  0.00  0.00    -0.201 OA
HETATM   17  O   UNK N   1      -2.379  -6.865  -0.470  0.00  0.00    -0.201 OA
BRANCH  15  18
HETATM   18  N   UNK N   1      -4.501  -5.873   0.773  0.00  0.00    -0.324 N 
HETATM   19  H   UNK N   1      -4.357  -4.865   0.711  0.00  0.00     0.169 HD
HETATM   20  H   UNK N   1      -5.448  -6.253   0.773  0.00  0.00     0.169 HD
ENDBRANCH  15  18
ENDBRANCH  12  15
ENDBRANCH   6   9
BRANCH   5  21
HETATM   21  C   UNK N   1       2.518  -3.069  -0.201  0.00  0.00    -0.017 A 
HETATM   22  C   UNK N   1       3.906  -2.862  -0.237  0.00  0.00     0.012 A 
HETATM   23  C   UNK N   1       4.785  -3.945  -0.364  0.00  0.00     0.004 A 
HETATM   24  C   UNK N   1       4.285  -5.246  -0.472  0.00  0.00     0.042 A 
HETATM   25  C   UNK N   1       2.908  -5.462  -0.460  0.00  0.00     0.117 A 
HETATM   26  C   UNK N   1       2.041  -4.380  -0.335  0.00  0.00     0.054 A 
HETATM   27  F   UNK N   1       2.409  -6.717  -0.572  0.00  0.00    -0.206 F 
ENDBRANCH   5  21
TORSDOF 4
