REMARK  6 active torsions:
REMARK  status: ('A' for Active; 'I' for Inactive)
REMARK    1  A    between atoms: C_4  and  C_2 
REMARK    2  A    between atoms: N_8  and  C_2 
REMARK    3  A    between atoms: O_14  and  C_4 
REMARK    4  A    between atoms: C_6  and  C_5 
REMARK    5  A    between atoms: N_12  and  C_5 
REMARK    6  A    between atoms: O_15  and  C_6 
REMARK       I    between atoms: N_13  and  C_7 
ROOT
HETATM    1  C   UNK N   1       0.283   2.482  -0.000  0.00  0.00     0.215 C 
ENDROOT
BRANCH   1   2
HETATM    2  C   UNK N   1       1.610   3.210   0.000  0.00  0.00     0.130 C 
HETATM    3  N   UNK N   1       2.711   2.549   0.000  0.00  0.00    -0.371 N 
ATOM      4  HN  UNK N   1       2.651   1.531   0.000  1.00  0.00     0.161 HD
BRANCH   3   5
HETATM    5  C   UNK N   1       4.018   3.139   0.000  0.00  0.00     0.147 C 
BRANCH   5   6
HETATM    6  C   UNK N   1       5.014   1.995   0.000  0.00  0.00     0.183 C 
BRANCH   6   7
HETATM    7  O   UNK N   1       6.316   2.487  -0.000  0.00  0.00    -0.399 OA
HETATM    8  H   UNK N   1       7.067   1.873  -0.000  0.00  0.00     0.209 HD
ENDBRANCH   6   7
ENDBRANCH   5   6
ENDBRANCH   3   5
BRANCH   2   9
HETATM    9  O   UNK N   1       1.619   4.560   0.000  0.00  0.00    -0.348 OA
HETATM   10  H   UNK N   1       2.434   5.022   0.000  0.00  0.00     0.219 HD
ENDBRANCH   2   9
ENDBRANCH   1   2
BRANCH   1  11
HETATM   11  N   UNK N   1       0.344   1.006  -0.000  0.00  0.00    -0.315 N 
HETATM   12  C   UNK N   1       1.438   0.215   0.000  0.00  0.00     0.112 A 
HETATM   13  C   UNK N   1       1.024  -1.103   0.000  0.00  0.00     0.108 A 
HETATM   14  N   UNK N   1      -0.323  -1.130   0.000  0.00  0.00    -0.332 N 
HETATM   15  C   UNK N   1      -0.708   0.160  -0.000  0.00  0.00     0.252 A 
ATOM     16  HN  UNK N   1      -0.924  -1.955   0.000  1.00  0.00     0.168 HD
HETATM   17  N   UNK N   1      -2.074   0.555  -0.000  0.00  0.00    -0.079 N 
HETATM   18  O   UNK N   1      -2.930  -0.278  -0.000  0.00  0.00    -0.529 OA
HETATM   19  O   UNK N   1      -2.376   1.708  -0.000  0.00  0.00    -0.529 OA
ENDBRANCH   1  11
TORSDOF 6
