REMARK  10 active torsions:
REMARK  status: ('A' for Active; 'I' for Inactive)
REMARK    1  A    between atoms: O_2  and  C_3 
REMARK    2  A    between atoms: C_6  and  C_14 
REMARK    3  A    between atoms: C_8  and  O_9 
REMARK    4  A    between atoms: O_9  and  P_10 
REMARK    5  A    between atoms: P_10  and  O_12 
REMARK    6  A    between atoms: P_10  and  O_13 
REMARK    7  A    between atoms: C_15  and  C_16 
REMARK    8  A    between atoms: C_18  and  O_26 
REMARK    9  A    between atoms: C_19  and  O_24 
REMARK   10  A    between atoms: C_20  and  O_22 
ROOT
HETATM    1  C   UNK N   1       3.504   0.567  -0.704  0.00  0.00     0.102 A 
HETATM    2  C   UNK N   1       2.672  -0.267  -1.464  0.00  0.00     0.040 A 
HETATM    3  C   UNK N   1       2.765  -1.646  -1.350  0.00  0.00     0.014 A 
HETATM    4  C   UNK N   1       3.663  -2.224  -0.444  0.00  0.00    -0.033 A 
HETATM    5  C   UNK N   1       4.553  -1.408   0.257  0.00  0.00     0.051 A 
HETATM    6  C   UNK N   1       4.504  -0.012   0.120  0.00  0.00     0.115 A 
ENDROOT
BRANCH   4   7
HETATM    7  C   UNK N   1       3.570  -3.665  -0.117  0.00  0.00     0.012 C 
HETATM    8  C   UNK N   1       2.390  -4.317   0.036  0.00  0.00     0.012 C 
BRANCH   8   9
HETATM    9  C   UNK N   1       1.060  -3.652   0.154  0.00  0.00    -0.031 A 
HETATM   10  C   UNK N   1      -0.083  -4.314  -0.279  0.00  0.00     0.051 A 
HETATM   11  C   UNK N   1      -1.335  -3.679  -0.281  0.00  0.00     0.105 A 
HETATM   12  C   UNK N   1      -1.440  -2.325   0.160  0.00  0.00     0.135 A 
HETATM   13  C   UNK N   1      -0.266  -1.659   0.613  0.00  0.00     0.105 A 
HETATM   14  C   UNK N   1       0.944  -2.344   0.630  0.00  0.00     0.051 A 
BRANCH  11  15
HETATM   15  O   UNK N   1      -2.392  -4.408  -0.724  0.00  0.00    -0.353 OA
HETATM   16  C   UNK N   1      -3.694  -3.970  -0.816  0.00  0.00     0.210 C 
ENDBRANCH  11  15
BRANCH  12  17
HETATM   17  O   UNK N   1      -2.664  -1.723   0.142  0.00  0.00    -0.351 OA
HETATM   18  C   UNK N   1      -3.001  -0.538   0.752  0.00  0.00     0.210 C 
ENDBRANCH  12  17
BRANCH  13  19
HETATM   19  O   UNK N   1      -0.249  -0.364   0.994  0.00  0.00    -0.353 OA
HETATM   20  C   UNK N   1      -0.446   0.649   0.081  0.00  0.00     0.210 C 
ENDBRANCH  13  19
ENDBRANCH   8   9
ENDBRANCH   4   7
BRANCH   6  21
HETATM   21  O   UNK N   1       5.378   0.728   0.847  0.00  0.00    -0.252 OA
BRANCH  21  22
HETATM   22  P   UNK N   1       6.003   2.274   0.400  0.00  0.00     0.396 P 
HETATM   23  O   UNK N   1       7.540   2.196   0.591  0.00  0.00    -0.631 OA
BRANCH  22  24
HETATM   24  O   UNK N   1       5.429   3.518   1.466  0.00  0.00    -0.307 OA
HETATM   25  H   UNK N   1       5.870   4.143   2.061  0.00  0.00     0.222 HD
ENDBRANCH  22  24
BRANCH  22  26
HETATM   26  O   UNK N   1       5.744   2.670  -1.272  0.00  0.00    -0.307 OA
HETATM   27  H   UNK N   1       5.863   2.906  -2.205  0.00  0.00     0.222 HD
ENDBRANCH  22  26
ENDBRANCH  21  22
ENDBRANCH   6  21
BRANCH   1  28
HETATM   28  O   UNK N   1       3.317   1.909  -0.720  0.00  0.00    -0.353 OA
HETATM   29  C   UNK N   1       2.250   2.520  -1.339  0.00  0.00     0.210 C 
ENDBRANCH   1  28
TORSDOF 10
