REMARK  4 active torsions:
REMARK  status: ('A' for Active; 'I' for Inactive)
REMARK       I    between atoms: N_2  and  C_3 
REMARK       I    between atoms: C_3  and  N_16 
REMARK    1  A    between atoms: N_4  and  S_6 
REMARK    2  A    between atoms: S_6  and  C_9 
REMARK    3  A    between atoms: C_18  and  C_29 
REMARK    4  A    between atoms: C_19  and  C_22 
ROOT
HETATM    1  C   UNK N   1       3.829  -0.946  -1.897  0.00  0.00     0.165 C 
HETATM    2  N   UNK N   1       2.806   0.064  -1.870  0.00  0.00    -0.228 N 
HETATM    3  C   UNK N   1       1.648   0.018  -1.040  0.00  0.00     0.704 C 
HETATM    4  N   UNK N   1       0.767   0.942  -1.208  0.00  0.00    -0.111 N 
ATOM      5  HN  UNK N   1       0.903   1.543  -2.021  1.00  0.00     0.197 HD
HETATM    6  N   UNK N   1       1.477  -1.013  -0.063  0.00  0.00    -0.122 N 
HETATM    7  C   UNK N   1       2.576  -1.690   0.571  0.00  0.00     0.183 A 
HETATM    8  C   UNK N   1       1.971  -3.062   0.977  0.00  0.00     0.091 A 
HETATM    9  C   UNK N   1       0.545  -2.914   0.459  0.00  0.00     0.047 A 
HETATM   10  N   UNK N   1       0.353  -1.773  -0.071  0.00  0.00    -0.287 N 
ATOM     11  HN  UNK N   1      -0.541  -1.467  -0.456  1.00  0.00     0.187 HD
HETATM   12  H   UNK N   1       2.912   0.841  -2.466  0.00  0.00     0.177 HD
ENDROOT
BRANCH   4  13
HETATM   13  S   UNK N   1      -0.645   1.302  -0.215  0.00  0.00     0.276 S 
HETATM   14  O   UNK N   1      -1.842   0.628  -0.904  0.00  0.00    -0.200 OA
HETATM   15  O   UNK N   1      -0.463   0.553   1.114  0.00  0.00    -0.200 OA
BRANCH  13  16
HETATM   16  C   UNK N   1      -0.736   3.072  -0.007  0.00  0.00     0.080 A 
HETATM   17  C   UNK N   1      -1.749   3.677   0.743  0.00  0.00     0.027 A 
HETATM   18  C   UNK N   1      -1.741   5.068   0.923  0.00  0.00     0.025 A 
HETATM   19  C   UNK N   1      -0.718   5.843   0.360  0.00  0.00     0.034 A 
HETATM   20  C   UNK N   1       0.289   5.234  -0.388  0.00  0.00     0.025 A 
HETATM   21 Cl   UNK N   1      -0.687   7.576   0.596  0.00  0.00    -0.084 Cl
HETATM   22  C   UNK N   1       0.280   3.853  -0.567  0.00  0.00     0.027 A 
ENDBRANCH  13  16
ENDBRANCH   4  13
BRANCH   8  23
HETATM   23  C   UNK N   1       2.776  -4.211   0.407  0.00  0.00    -0.046 A 
HETATM   24  C   UNK N   1       3.751  -4.003  -0.585  0.00  0.00     0.008 A 
HETATM   25  C   UNK N   1       4.538  -5.064  -1.042  0.00  0.00     0.001 A 
HETATM   26  C   UNK N   1       4.371  -6.339  -0.500  0.00  0.00     0.000 A 
HETATM   27  C   UNK N   1       3.420  -6.553   0.501  0.00  0.00     0.001 A 
HETATM   28  C   UNK N   1       2.634  -5.492   0.957  0.00  0.00     0.008 A 
ENDBRANCH   8  23
BRANCH   9  29
HETATM   29  C   UNK N   1      -0.536  -3.930   0.477  0.00  0.00    -0.011 A 
HETATM   30  C   UNK N   1      -0.294  -5.249   0.879  0.00  0.00     0.015 A 
HETATM   31  C   UNK N   1      -1.304  -6.213   0.797  0.00  0.00     0.024 A 
HETATM   32  C   UNK N   1      -2.570  -5.859   0.324  0.00  0.00     0.034 A 
HETATM   33  C   UNK N   1      -2.830  -4.542  -0.057  0.00  0.00     0.024 A 
HETATM   34 Cl   UNK N   1      -3.827  -7.070   0.190  0.00  0.00    -0.084 Cl
HETATM   35  C   UNK N   1      -1.815  -3.584   0.012  0.00  0.00     0.015 A 
ENDBRANCH   9  29
TORSDOF 4
