REMARK  10 active torsions:
REMARK  status: ('A' for Active; 'I' for Inactive)
REMARK    1  A    between atoms: C_5  and  C_8 
REMARK    2  A    between atoms: C_8  and  N_9 
REMARK    3  A    between atoms: C_13  and  C_16 
REMARK    4  A    between atoms: C_16  and  C_17 
REMARK    5  A    between atoms: C_17  and  C_18 
REMARK    6  A    between atoms: C_18  and  C_19 
REMARK    7  A    between atoms: C_22  and  O_25 
REMARK    8  A    between atoms: O_25  and  C_26 
REMARK    9  A    between atoms: C_26  and  C_29 
REMARK   10  A    between atoms: C_29  and  O_31 
ROOT
HETATM    1  C   UNK N   1      -2.567  -4.176   0.087  0.00  0.00     0.078 C 
ENDROOT
BRANCH   1   2
HETATM    2  C   UNK N   1      -1.560  -3.132  -0.274  0.00  0.00     0.100 A 
HETATM    3  N   UNK N   1      -0.439  -3.389  -0.986  0.00  0.00    -0.296 N 
HETATM    4  C   UNK N   1       0.155  -2.176  -1.053  0.00  0.00     0.342 A 
HETATM    5  H   UNK N   1      -0.133  -4.246  -1.362  0.00  0.00     0.172 HD
HETATM    6  N   UNK N   1      -0.574  -1.234  -0.402  0.00  0.00    -0.237 N 
HETATM    7  O   UNK N   1       1.208  -1.968  -1.627  0.00  0.00    -0.245 OA
HETATM    8  N   UNK N   1      -1.649  -1.830   0.081  0.00  0.00    -0.282 N 
ATOM      9  HN  UNK N   1      -2.400  -1.394   0.617  1.00  0.00     0.188 HD
BRANCH   6  10
HETATM   10  C   UNK N   1      -0.308   0.197  -0.258  0.00  0.00     0.192 C 
BRANCH  10  11
HETATM   11  C   UNK N   1       1.152   0.495  -0.134  0.00  0.00    -0.038 A 
HETATM   12  C   UNK N   1       1.899  -0.001   0.943  0.00  0.00     0.009 A 
HETATM   13  C   UNK N   1       3.271   0.262   1.020  0.00  0.00     0.007 A 
HETATM   14  C   UNK N   1       3.896   1.019   0.022  0.00  0.00    -0.062 A 
HETATM   15  C   UNK N   1       5.354   1.293   0.098  0.00  0.00     0.048 C 
HETATM   16  C   UNK N   1       3.148   1.518  -1.048  0.00  0.00     0.007 A 
HETATM   17  C   UNK N   1       1.779   1.256  -1.126  0.00  0.00     0.009 A 
ENDBRANCH  10  11
ENDBRANCH   6  10
ENDBRANCH   1   2
BRANCH   1  18
HETATM   18  C   UNK N   1      -2.112  -5.120   1.207  0.00  0.00     0.012 C 
BRANCH  18  19
HETATM   19  C   UNK N   1      -0.600  -5.154   1.444  0.00  0.00     0.039 C 
BRANCH  19  20
HETATM   20  C   UNK N   1       0.146  -6.214   0.695  0.00  0.00    -0.058 A 
HETATM   21  C   UNK N   1       1.523  -6.314   0.902  0.00  0.00     0.010 A 
HETATM   22  C   UNK N   1       2.249  -7.350   0.318  0.00  0.00     0.037 A 
HETATM   23  C   UNK N   1       1.602  -8.303  -0.474  0.00  0.00     0.070 A 
HETATM   24  C   UNK N   1       0.232  -8.176  -0.734  0.00  0.00     0.037 A 
HETATM   25  C   UNK N   1      -0.497  -7.137  -0.147  0.00  0.00     0.010 A 
BRANCH  23  26
HETATM   26  O   UNK N   1       2.306  -9.367  -0.926  0.00  0.00    -0.330 OA
BRANCH  26  27
HETATM   27  C   UNK N   1       2.356 -10.588  -0.257  0.00  0.00     0.145 C 
HETATM   28  C   UNK N   1       2.656 -10.386   1.226  0.00  0.00     0.058 C 
HETATM   29  C   UNK N   1       3.519 -11.381  -0.833  0.00  0.00     0.058 C 
BRANCH  27  30
HETATM   30  C   UNK N   1       1.058 -11.364  -0.398  0.00  0.00     0.175 C 
HETATM   31  O   UNK N   1       1.045 -12.465  -0.929  0.00  0.00    -0.648 OA
BRANCH  30  32
HETATM   32  O   UNK N   1      -0.092 -10.861   0.091  0.00  0.00    -0.774 OA
HETATM   33  H   UNK N   1      -0.188  -9.993   0.431  0.00  0.00     0.167 HD
ENDBRANCH  30  32
ENDBRANCH  27  30
ENDBRANCH  26  27
ENDBRANCH  23  26
ENDBRANCH  19  20
ENDBRANCH  18  19
ENDBRANCH   1  18
TORSDOF 10
