REMARK  7 active torsions:
REMARK  status: ('A' for Active; 'I' for Inactive)
REMARK    1  A    between atoms: C_2  and  O_4 
REMARK    2  A    between atoms: O_4  and  C_5 
REMARK    3  A    between atoms: C_8  and  C_13 
REMARK    4  A    between atoms: C_28  and  N_29 
REMARK    5  A    between atoms: N_29  and  C_30 
REMARK    6  A    between atoms: C_30  and  C_31 
REMARK    7  A    between atoms: C_31  and  O_32 
ROOT
HETATM    1  C   UNK N   1       6.064   6.947   0.070  0.00  0.00     0.090 A 
HETATM    2  C   UNK N   1       6.616   5.671   0.196  0.00  0.00     0.039 A 
HETATM    3  C   UNK N   1       5.799   4.567   0.373  0.00  0.00     0.018 A 
HETATM    4  C   UNK N   1       4.415   4.746   0.441  0.00  0.00     0.019 A 
HETATM    5  C   UNK N   1       3.856   6.009   0.407  0.00  0.00     0.041 A 
HETATM    6  C   UNK N   1       4.664   7.122   0.219  0.00  0.00     0.079 A 
HETATM    7  C   UNK N   1       3.994   8.376   0.042  0.00  0.00     0.102 C 
HETATM    8  N   UNK N   1       3.380   9.348  -0.088  0.00  0.00    -0.191 NA
ENDROOT
BRANCH   1   9
HETATM    9  O   UNK N   1       6.907   7.937  -0.292  0.00  0.00    -0.345 OA
BRANCH   9  10
HETATM   10  C   UNK N   1       6.973   9.201   0.228  0.00  0.00     0.120 C 
HETATM   11  C   UNK N   1       8.437   9.588   0.217  0.00  0.00     0.040 C 
HETATM   12  C   UNK N   1       6.244  10.185  -0.658  0.00  0.00     0.040 C 
ENDBRANCH   9  10
ENDBRANCH   1   9
BRANCH   4  13
HETATM   13  C   UNK N   1       3.544   3.633   0.219  0.00  0.00     0.182 A 
HETATM   14  N   UNK N   1       3.990   2.422  -0.099  0.00  0.00    -0.319 N 
HETATM   15  C   UNK N   1       2.865   1.764  -0.390  0.00  0.00     0.138 A 
ATOM     16  HN  UNK N   1       4.951   2.081  -0.116  1.00  0.00     0.169 HD
HETATM   17  N   UNK N   1       1.779   2.546  -0.248  0.00  0.00    -0.242 N 
HETATM   18  C   UNK N   1       2.864   0.332  -0.476  0.00  0.00     0.017 A 
HETATM   19  O   UNK N   1       2.240   3.704   0.101  0.00  0.00    -0.217 OA
ATOM     20  HN  UNK N   1       0.804   2.283  -0.387  1.00  0.00     0.196 HD
HETATM   21  C   UNK N   1       4.102  -0.325  -0.576  0.00  0.00     0.016 A 
HETATM   22  C   UNK N   1       1.714  -0.392  -0.166  0.00  0.00    -0.036 A 
HETATM   23  C   UNK N   1       4.190  -1.686  -0.313  0.00  0.00     0.002 A 
HETATM   24  C   UNK N   1       3.053  -2.362   0.112  0.00  0.00     0.010 A 
HETATM   25  C   UNK N   1       1.821  -1.702   0.151  0.00  0.00    -0.029 A 
HETATM   26  C   UNK N   1       0.549  -2.280   0.641  0.00  0.00     0.110 A 
HETATM   27  C   UNK N   1      -0.402  -1.065   0.646  0.00  0.00     0.034 A 
HETATM   28  C   UNK N   1       0.341   0.127   0.024  0.00  0.00     0.042 A 
BRANCH  26  29
HETATM   29  N   UNK N   1       0.007  -3.318  -0.243  0.00  0.00    -0.411 N 
HETATM   30  H   UNK N   1      -0.984  -3.397  -0.470  0.00  0.00     0.154 HD
BRANCH  29  31
HETATM   31  C   UNK N   1       1.027  -4.232  -0.770  0.00  0.00     0.140 C 
BRANCH  31  32
HETATM   32  C   UNK N   1       1.738  -5.001   0.336  0.00  0.00     0.183 C 
BRANCH  32  33
HETATM   33  O   UNK N   1       3.085  -5.167  -0.002  0.00  0.00    -0.399 OA
HETATM   34  H   UNK N   1       3.453  -6.033  -0.236  0.00  0.00     0.209 HD
ENDBRANCH  32  33
ENDBRANCH  31  32
ENDBRANCH  29  31
ENDBRANCH  26  29
ENDBRANCH   4  13
TORSDOF 7
