REMARK  3 active torsions:
REMARK  status: ('A' for Active; 'I' for Inactive)
REMARK    1  A    between atoms: C_3  and  C_2 
REMARK    2  A    between atoms: C_3  and  O_28 
REMARK    3  A    between atoms: C_23  and  O_27 
ROOT
HETATM    1  C   UNK N   1       6.846  -1.317  -0.297  0.00  0.00     0.173 A 
HETATM    2  C   UNK N   1       5.996  -0.089  -0.123  0.00  0.00     0.002 A 
HETATM    3  C   UNK N   1       4.605  -0.238  -0.183  0.00  0.00     0.043 A 
HETATM    4  C   UNK N   1       3.809   0.874   0.002  0.00  0.00     0.065 A 
HETATM    5  N   UNK N   1       4.324   2.096   0.223  0.00  0.00    -0.307 N 
HETATM    6  C   UNK N   1       5.682   2.299   0.280  0.00  0.00     0.257 A 
HETATM    7  O   UNK N   1       6.128   3.415   0.487  0.00  0.00    -0.267 OA
HETATM    8  C   UNK N   1       6.549   1.191   0.112  0.00  0.00     0.044 A 
HETATM    9  C   UNK N   1       8.036   1.388   0.195  0.00  0.00     0.224 A 
HETATM   10  O   UNK N   1       8.791   0.237   0.050  0.00  0.00    -0.314 OA
HETATM   11  C   UNK N   1       8.324  -1.017  -0.177  0.00  0.00     0.298 A 
HETATM   12  O   UNK N   1       9.129  -1.928  -0.299  0.00  0.00    -0.261 OA
HETATM   13  C   UNK N   1       3.249   3.097   0.408  0.00  0.00     0.173 A 
HETATM   14  C   UNK N   1       2.023   2.213   0.279  0.00  0.00    -0.010 A 
HETATM   15  C   UNK N   1       2.398   0.923   0.033  0.00  0.00     0.068 A 
HETATM   16  N   UNK N   1       1.517  -0.096  -0.104  0.00  0.00    -0.353 N 
ATOM     17  HN  UNK N   1       1.847  -1.043  -0.288  1.00  0.00     0.166 HD
HETATM   18  C   UNK N   1       0.187   0.163   0.006  0.00  0.00     0.043 A 
HETATM   19  C   UNK N   1      -0.735  -0.876  -0.122  0.00  0.00     0.033 A 
HETATM   20  C   UNK N   1      -2.100  -0.616   0.004  0.00  0.00     0.039 A 
HETATM   21  C   UNK N   1      -2.551   0.684   0.259  0.00  0.00     0.066 A 
HETATM   22  C   UNK N   1      -1.636   1.737   0.388  0.00  0.00     0.050 A 
HETATM   23  C   UNK N   1      -0.267   1.490   0.264  0.00  0.00    -0.006 A 
HETATM   24  C   UNK N   1       0.671   2.534   0.401  0.00  0.00     0.025 A 
ENDROOT
BRANCH   1  25
HETATM   25  C   UNK N   1       6.419  -2.333   0.776  0.00  0.00     0.049 C 
HETATM   26  C   UNK N   1       6.947  -3.739   0.531  0.00  0.00     0.009 C 
ENDBRANCH   1  25
BRANCH   1  27
HETATM   27  O   UNK N   1       6.595  -1.844  -1.569  0.00  0.00    -0.375 OA
HETATM   28  H   UNK N   1       6.191  -1.876  -2.450  0.00  0.00     0.211 HD
ENDBRANCH   1  27
BRANCH  21  29
HETATM   29  O   UNK N   1      -3.866   0.920   0.381  0.00  0.00    -0.361 OA
HETATM   30  H   UNK N   1      -4.183   1.797   0.467  0.00  0.00     0.217 HD
ENDBRANCH  21  29
TORSDOF 3
