REMARK  4 active torsions:
REMARK  status: ('A' for Active; 'I' for Inactive)
REMARK    1  A    between atoms: O_23  and  C_11 
REMARK    2  A    between atoms: C_19  and  C_14 
REMARK    3  A    between atoms: N_21  and  C_17 
REMARK    4  A    between atoms: O_26  and  C_19 
ROOT
HETATM    1  C   UNK N   1       4.985  -1.550  -0.358  0.00  0.00     0.033 C 
HETATM    2  C   UNK N   1       2.537  -1.721  -0.249  0.00  0.00     0.030 C 
HETATM    3  C   UNK N   1       1.296  -1.168   0.409  0.00  0.00     0.045 C 
HETATM    4  C   UNK N   1       1.022   3.089  -0.207  0.00  0.00     0.062 A 
HETATM    5  C   UNK N   1       4.732   1.235   0.066  0.00  0.00     0.114 A 
HETATM    6  C   UNK N   1       3.737  -0.982   0.309  0.00  0.00     0.086 C 
HETATM    7  C   UNK N   1       1.161   0.313   0.180  0.00  0.00    -0.001 A 
HETATM    8  C   UNK N   1       2.268   2.475  -0.134  0.00  0.00     0.046 A 
HETATM    9  C   UNK N   1       4.690   2.619  -0.096  0.00  0.00     0.104 A 
HETATM   10  C   UNK N   1      -0.152   2.362  -0.075  0.00  0.00     0.144 A 
HETATM   11  C   UNK N   1       2.354   1.079   0.048  0.00  0.00     0.057 A 
HETATM   12  C   UNK N   1      -0.125   0.957   0.137  0.00  0.00     0.078 A 
HETATM   13  C   UNK N   1       3.438   3.247  -0.215  0.00  0.00     0.202 A 
HETATM   14  F   UNK N   1      -1.314   3.058  -0.138  0.00  0.00    -0.204 F 
HETATM   15  N   UNK N   1       3.598   0.477   0.116  0.00  0.00    -0.350 N 
HETATM   16  O   UNK N   1       3.363   4.456  -0.364  0.00  0.00    -0.286 OA
ENDROOT
BRANCH  12  17
HETATM   17  N   UNK N   1      -1.371   0.227   0.317  0.00  0.00    -0.378 N 
HETATM   18  C   UNK N   1      -1.423  -1.198   0.562  0.00  0.00     0.125 C 
HETATM   19  C   UNK N   1      -2.243  -1.874  -0.535  0.00  0.00     0.051 C 
HETATM   20  C   UNK N   1      -3.630  -1.236  -0.642  0.00  0.00     0.121 C 
HETATM   21  C   UNK N   1      -3.516   0.280  -0.827  0.00  0.00     0.051 C 
HETATM   22  C   UNK N   1      -2.655   0.898   0.274  0.00  0.00     0.125 C 
BRANCH  20  23
HETATM   23  O   UNK N   1      -4.386  -1.530   0.495  0.00  0.00    -0.395 OA
HETATM   24  H   UNK N   1      -4.826  -1.177   1.284  0.00  0.00     0.210 HD
ENDBRANCH  20  23
ENDBRANCH  12  17
BRANCH   9  25
HETATM   25  C   UNK N   1       5.971   3.374  -0.110  0.00  0.00     0.181 C 
HETATM   26  O   UNK N   1       5.983   4.588  -0.231  0.00  0.00    -0.646 OA
BRANCH  25  27
HETATM   27  O   UNK N   1       7.139   2.717   0.040  0.00  0.00    -0.772 OA
HETATM   28  H   UNK N   1       7.149   1.786   0.144  0.00  0.00     0.167 HD
ENDBRANCH  25  27
ENDBRANCH   9  25
TORSDOF 4
