REMARK  7 active torsions:
REMARK  status: ('A' for Active; 'I' for Inactive)
REMARK    1  A    between atoms: C_2  and  C_5 
REMARK    2  A    between atoms: C_12  and  C_10 
REMARK    3  A    between atoms: C_13  and  O_39 
REMARK    4  A    between atoms: C_14  and  O_38 
REMARK    5  A    between atoms: C_15  and  N_17 
REMARK    6  A    between atoms: C_28  and  N_29 
REMARK    7  A    between atoms: N_29  and  C_30 
ROOT
HETATM    1  N   UNK N   1       0.027   0.062  -0.514  0.00  0.00    -0.297 N 
HETATM    2  C   UNK N   1      -0.506  -1.024  -1.116  0.00  0.00     0.188 A 
HETATM    3  N   UNK N   1       0.277  -2.111  -0.933  0.00  0.00    -0.346 N 
ATOM      4  HN  UNK N   1       0.120  -3.058  -1.279  1.00  0.00     0.167 HD
HETATM    5  C   UNK N   1       1.311  -1.663  -0.191  0.00  0.00     0.122 A 
HETATM    6  C   UNK N   1       1.179  -0.352   0.029  0.00  0.00     0.142 A 
HETATM    7  N   UNK N   1       2.063   0.350   0.781  0.00  0.00    -0.336 N 
ATOM      8  HN  UNK N   1       1.934   1.347   0.953  1.00  0.00     0.168 HD
HETATM    9  C   UNK N   1       3.138  -0.326   1.304  0.00  0.00     0.183 A 
HETATM   10  N   UNK N   1       3.260  -1.690   1.139  0.00  0.00    -0.337 N 
ATOM     11  HN  UNK N   1       4.043  -2.184   1.566  1.00  0.00     0.168 HD
HETATM   12  C   UNK N   1       2.336  -2.383   0.408  0.00  0.00     0.138 A 
ENDROOT
BRANCH   1  13
HETATM   13  C   UNK N   1      -0.667   1.321  -0.366  0.00  0.00     0.262 C 
HETATM   14  C   UNK N   1       0.026   2.542  -0.960  0.00  0.00     0.199 C 
HETATM   15  C   UNK N   1       0.264   3.369   0.264  0.00  0.00     0.188 C 
HETATM   16  C   UNK N   1      -0.883   2.938   1.162  0.00  0.00     0.231 C 
HETATM   17  O   UNK N   1      -0.927   1.547   1.007  0.00  0.00    -0.347 OA
BRANCH  14  18
HETATM   18  O   UNK N   1       1.220   2.241  -1.618  0.00  0.00    -0.388 OA
HETATM   19  H   UNK N   1       1.454   1.418  -2.076  0.00  0.00     0.210 HD
ENDBRANCH  14  18
BRANCH  15  20
HETATM   20  O   UNK N   1       0.265   4.735  -0.015  0.00  0.00    -0.390 OA
HETATM   21  H   UNK N   1       1.089   5.209  -0.209  0.00  0.00     0.210 HD
ENDBRANCH  15  20
BRANCH  16  22
HETATM   22  C   UNK N   1      -2.233   3.482   0.768  0.00  0.00     0.172 A 
HETATM   23  N   UNK N   1      -2.602   4.775   0.794  0.00  0.00    -0.279 N 
HETATM   24  N   UNK N   1      -3.849   4.817   0.345  0.00  0.00    -0.281 N 
ATOM     25  HN  UNK N   1      -2.035   5.566   1.099  1.00  0.00     0.189 HD
HETATM   26  C   UNK N   1      -4.199   3.546   0.057  0.00  0.00     0.148 A 
ATOM     27  HN  UNK N   1      -4.430   5.648   0.239  1.00  0.00     0.189 HD
HETATM   28  O   UNK N   1      -3.211   2.734   0.321  0.00  0.00    -0.279 OA
BRANCH  26  29
HETATM   29  C   UNK N   1      -5.521   3.120  -0.512  0.00  0.00     0.016 C 
HETATM   30  C   UNK N   1      -6.635   3.481   0.449  0.00  0.00     0.023 C 
HETATM   31  C   UNK N   1      -5.547   1.618  -0.745  0.00  0.00     0.023 C 
HETATM   32  C   UNK N   1      -5.753   3.816  -1.838  0.00  0.00     0.023 C 
ENDBRANCH  26  29
ENDBRANCH  16  22
ENDBRANCH   1  13
BRANCH  12  33
HETATM   33  N   UNK N   1       2.301  -3.806   0.404  0.00  0.00    -0.338 N 
HETATM   34  H   UNK N   1       3.125  -4.342   0.348  0.00  0.00     0.167 HD
BRANCH  33  35
HETATM   35  C   UNK N   1       1.016  -4.420   0.486  0.00  0.00     0.072 A 
HETATM   36  C   UNK N   1       0.057  -3.888   1.373  0.00  0.00     0.034 A 
HETATM   37  C   UNK N   1      -1.269  -4.303   1.321  0.00  0.00     0.026 A 
HETATM   38  C   UNK N   1      -1.657  -5.253   0.380  0.00  0.00     0.037 A 
HETATM   39  C   UNK N   1      -0.707  -5.820  -0.480  0.00  0.00     0.068 A 
HETATM   40 Cl   UNK N   1      -3.347  -5.680   0.240  0.00  0.00    -0.084 Cl
HETATM   41  C   UNK N   1       0.634  -5.412  -0.423  0.00  0.00     0.144 A 
HETATM   42  F   UNK N   1       1.527  -5.906  -1.314  0.00  0.00    -0.204 F 
ENDBRANCH  33  35
ENDBRANCH  12  33
TORSDOF 7
