REMARK  10 active torsions:
REMARK  status: ('A' for Active; 'I' for Inactive)
REMARK    1  A    between atoms: O_2  and  C_3 
REMARK    2  A    between atoms: C_3  and  C_4 
REMARK    3  A    between atoms: C_4  and  C_5 
REMARK    4  A    between atoms: C_4  and  O_34 
REMARK    5  A    between atoms: C_5  and  N_6 
REMARK    6  A    between atoms: N_12  and  C_15 
REMARK    7  A    between atoms: C_19  and  C_21 
REMARK       I    between atoms: C_21  and  N_23 
REMARK    8  A    between atoms: N_23  and  C_24 
REMARK    9  A    between atoms: C_24  and  C_25 
REMARK   10  A    between atoms: C_25  and  O_32 
ROOT
HETATM    1  C   UNK N   1       8.525  -6.475  -0.599  0.00  0.00     0.062 A 
HETATM    2  C   UNK N   1       9.705  -5.735  -0.778  0.00  0.00     0.033 A 
HETATM    3  C   UNK N   1      10.928  -6.252  -0.304  0.00  0.00     0.027 A 
HETATM    4  C   UNK N   1      10.967  -7.472   0.399  0.00  0.00     0.049 A 
HETATM    5  C   UNK N   1       9.768  -8.191   0.587  0.00  0.00     0.056 A 
HETATM    6  C   UNK N   1       8.611  -7.675   0.075  0.00  0.00     0.050 A 
HETATM    7 Cl   UNK N   1      12.509  -8.025   1.036  0.00  0.00    -0.083 Cl
ENDROOT
BRANCH   1   8
HETATM    8  N   UNK N   1       7.212  -5.882  -0.710  0.00  0.00    -0.206 N 
HETATM    9  N   UNK N   1       7.120  -4.554  -0.728  0.00  0.00    -0.295 N 
HETATM   10  C   UNK N   1       5.963  -3.924  -0.408  0.00  0.00     0.182 C 
ATOM     11  HN  UNK N   1       7.936  -4.000  -0.987  1.00  0.00     0.187 HD
HETATM   12  C   UNK N   1       4.868  -4.676   0.006  0.00  0.00     0.268 C 
HETATM   13  N   UNK N   1       4.926  -6.049  -0.039  0.00  0.00    -0.261 N 
HETATM   14  O   UNK N   1       3.882  -4.105   0.434  0.00  0.00    -0.266 OA
HETATM   15  C   UNK N   1       6.080  -6.657  -0.453  0.00  0.00     0.351 C 
HETATM   16  O   UNK N   1       6.130  -7.878  -0.498  0.00  0.00    -0.244 OA
BRANCH  13  17
HETATM   17  C   UNK N   1       3.879  -6.917   0.524  0.00  0.00     0.171 C 
BRANCH  17  18
HETATM   18  C   UNK N   1       2.504  -6.799  -0.081  0.00  0.00     0.160 C 
BRANCH  18  19
HETATM   19  C   UNK N   1       1.804  -8.115   0.221  0.00  0.00     0.200 C 
BRANCH  19  20
HETATM   20  O   UNK N   1       0.462  -8.059  -0.154  0.00  0.00    -0.393 OA
HETATM   21  C   UNK N   1       0.378  -8.855  -1.295  0.00  0.00     0.201 C 
ENDBRANCH  19  20
ENDBRANCH  18  19
BRANCH  18  22
HETATM   22  O   UNK N   1       1.821  -5.775   0.574  0.00  0.00    -0.392 OA
HETATM   23  H   UNK N   1       2.201  -5.007   1.029  0.00  0.00     0.210 HD
ENDBRANCH  18  22
ENDBRANCH  17  18
ENDBRANCH  13  17
ENDBRANCH   1   8
BRANCH   5  24
HETATM   24  C   UNK N   1       9.610  -9.492   1.258  0.00  0.00     0.253 C 
HETATM   25  O   UNK N   1       8.490  -9.995   1.326  0.00  0.00    -0.268 OA
HETATM   26  N   UNK N   1      10.685 -10.219   1.610  0.00  0.00    -0.354 N 
HETATM   27  H   UNK N   1      11.551  -9.788   1.792  0.00  0.00     0.162 HD
BRANCH  26  28
HETATM   28  C   UNK N   1      10.533 -11.642   1.714  0.00  0.00     0.160 C 
BRANCH  28  29
HETATM   29  C   UNK N   1      10.696 -12.224   0.301  0.00  0.00     0.074 C 
HETATM   30  C   UNK N   1      12.192 -12.384   0.026  0.00  0.00     0.039 C 
HETATM   31  C   UNK N   1      12.772 -13.638   0.654  0.00  0.00     0.003 C 
HETATM   32  C   UNK N   1      12.711 -14.758  -0.378  0.00  0.00     0.000 C 
HETATM   33  C   UNK N   1      11.314 -15.362  -0.547  0.00  0.00     0.000 C 
HETATM   34  C   UNK N   1      10.267 -14.348  -0.988  0.00  0.00     0.003 C 
HETATM   35  C   UNK N   1       9.893 -13.517   0.224  0.00  0.00     0.039 C 
BRANCH  29  36
HETATM   36  O   UNK N   1      10.183 -11.360  -0.676  0.00  0.00    -0.388 OA
HETATM   37  H   UNK N   1      10.523 -10.754  -1.352  0.00  0.00     0.210 HD
ENDBRANCH  29  36
ENDBRANCH  28  29
ENDBRANCH  26  28
ENDBRANCH   5  24
TORSDOF 10
