REMARK  7 active torsions:
REMARK  status: ('A' for Active; 'I' for Inactive)
REMARK    1  A    between atoms: C_5  and  C_4 
REMARK    2  A    between atoms: C_6  and  C_4 
REMARK    3  A    between atoms: C_7  and  C_5 
REMARK    4  A    between atoms: N_10  and  C_6 
REMARK    5  A    between atoms: O_13  and  C_7 
REMARK    6  A    between atoms: C_9  and  C_8 
REMARK    7  A    between atoms: O_14  and  C_8 
ROOT
HETATM    1  C   UNK N   1       4.303  -0.509   0.273  0.00  0.00     0.118 C 
HETATM    2  N   UNK N   1       3.010  -0.622   0.251  0.00  0.00    -0.374 N 
ATOM      3  HN  UNK N   1       2.623  -1.525   0.527  1.00  0.00     0.161 HD
ENDROOT
BRANCH   2   4
HETATM    4  C   UNK N   1       2.068   0.403  -0.124  0.00  0.00     0.122 C 
BRANCH   4   5
HETATM    5  C   UNK N   1       0.827  -0.233  -0.724  0.00  0.00     0.030 C 
BRANCH   5   6
HETATM    6  C   UNK N   1      -0.249  -0.398   0.336  0.00  0.00     0.111 C 
BRANCH   6   7
HETATM    7  C   UNK N   1      -1.356   0.581   0.110  0.00  0.00     0.139 C 
HETATM    8  O   UNK N   1      -2.491   0.181  -0.087  0.00  0.00    -0.650 OA
BRANCH   7   9
HETATM    9  O   UNK N   1      -1.105   1.904   0.132  0.00  0.00    -0.776 OA
HETATM   10  H   UNK N   1      -0.221   2.213   0.147  0.00  0.00     0.167 HD
ENDBRANCH   7   9
ENDBRANCH   6   7
ENDBRANCH   5   6
ENDBRANCH   4   5
ENDBRANCH   2   4
BRANCH   1  11
HETATM   11  C   UNK N   1       5.092   0.748  -0.116  0.00  0.00     0.013 C 
HETATM   12  C   UNK N   1       5.832   1.247   1.110  0.00  0.00     0.023 C 
HETATM   13  C   UNK N   1       4.306   1.920  -0.678  0.00  0.00     0.023 C 
HETATM   14  C   UNK N   1       6.122   0.371  -1.164  0.00  0.00     0.023 C 
ENDBRANCH   1  11
BRANCH   1  15
HETATM   15  O   UNK N   1       5.016  -1.579   0.681  0.00  0.00    -0.349 OA
HETATM   16  H   UNK N   1       4.621  -2.380   0.965  0.00  0.00     0.219 HD
ENDBRANCH   1  15
TORSDOF 7
