REMARK  4 active torsions:
REMARK  status: ('A' for Active; 'I' for Inactive)
REMARK    1  A    between atoms: C_3  and  As_19 
REMARK    2  A    between atoms: C_6  and  N_7 
REMARK       I    between atoms: N_7  and  C_8 
REMARK       I    between atoms: C_11  and  N_18 
REMARK       I    between atoms: C_14  and  N_17 
REMARK    3  A    between atoms: C_22  and  C_24 
REMARK    4  A    between atoms: C_24  and  O_25 
ROOT
HETATM    1  N   UNK N   1      -2.299   1.848  -0.338  0.00  0.00    -0.191 N 
HETATM    2  C   UNK N   1      -3.621   2.365  -0.289  0.00  0.00     0.711 A 
HETATM    3  N   UNK N   1      -4.682   1.515  -0.335  0.00  0.00    -0.021 N 
ATOM      4  HN  UNK N   1      -4.522   0.510  -0.406  1.00  0.00     0.203 HD
HETATM    5  C   UNK N   1      -5.947   1.989  -0.288  0.00  0.00     0.705 A 
HETATM    6  N   UNK N   1      -6.162   3.324  -0.182  0.00  0.00    -0.022 N 
ATOM      7  HN  UNK N   1      -7.115   3.685  -0.137  1.00  0.00     0.203 HD
HETATM    8  C   UNK N   1      -5.108   4.179  -0.137  0.00  0.00     0.705 A 
HETATM    9  N   UNK N   1      -3.836   3.702  -0.200  0.00  0.00    -0.021 N 
ATOM     10  HN  UNK N   1      -3.046   4.347  -0.182  1.00  0.00     0.203 HD
HETATM   11  N   UNK N   1      -5.335   5.563  -0.014  0.00  0.00    -0.234 N 
HETATM   12  N   UNK N   1      -7.035   1.098  -0.346  0.00  0.00    -0.234 N 
HETATM   13  H   UNK N   1      -1.559   2.412  -0.660  0.00  0.00     0.184 HD
HETATM   14  H   UNK N   1      -4.577   6.185   0.071  0.00  0.00     0.174 HD
HETATM   15  H   UNK N   1      -6.256   5.911  -0.014  0.00  0.00     0.174 HD
HETATM   16  H   UNK N   1      -7.956   1.445  -0.386  0.00  0.00     0.174 HD
HETATM   17  H   UNK N   1      -6.876   0.126  -0.346  0.00  0.00     0.174 HD
ENDROOT
BRANCH   1  18
HETATM   18  C   UNK N   1      -2.047   0.516   0.079  0.00  0.00     0.049 A 
HETATM   19  C   UNK N   1      -2.774  -0.020   1.149  0.00  0.00     0.031 A 
HETATM   20  C   UNK N   1      -2.631  -1.351   1.501  0.00  0.00     0.014 A 
HETATM   21  C   UNK N   1      -1.764  -2.175   0.787  0.00  0.00    -0.026 A 
HETATM   22  C   UNK N   1      -1.002  -1.646  -0.265  0.00  0.00     0.014 A 
HETATM   23  C   UNK N   1      -1.137  -0.293  -0.614  0.00  0.00     0.031 A 
BRANCH  21  24
HETATM   24 As   UNK N   1      -1.774  -4.061   1.237  0.00  0.00     0.000 As
HETATM   25  S   UNK N   1      -0.973  -4.857  -0.698  0.00  0.00    -0.096 SA
HETATM   26  C   UNK N   1      -2.069  -6.275  -0.398  0.00  0.00     0.104 C 
HETATM   27  C   UNK N   1      -3.545  -5.867  -0.385  0.00  0.00     0.092 C 
HETATM   28  S   UNK N   1      -3.807  -4.183   0.257  0.00  0.00    -0.089 SA
BRANCH  27  29
HETATM   29  C   UNK N   1      -4.338  -6.807   0.507  0.00  0.00     0.180 C 
BRANCH  29  30
HETATM   30  O   UNK N   1      -4.298  -8.111   0.018  0.00  0.00    -0.400 OA
HETATM   31  H   UNK N   1      -5.070  -8.589  -0.323  0.00  0.00     0.209 HD
ENDBRANCH  29  30
ENDBRANCH  27  29
ENDBRANCH  21  24
ENDBRANCH   1  18
TORSDOF 4
