REMARK  10 active torsions:
REMARK  status: ('A' for Active; 'I' for Inactive)
REMARK    1  A    between atoms: C_2  and  C_5 
REMARK    2  A    between atoms: C_5  and  O_7 
REMARK    3  A    between atoms: O_7  and  C_8 
REMARK    4  A    between atoms: C_11  and  S_14 
REMARK    5  A    between atoms: S_14  and  N_17 
REMARK    6  A    between atoms: N_17  and  C_18 
REMARK    7  A    between atoms: C_23  and  C_24 
REMARK       I    between atoms: C_24  and  N_26 
REMARK    8  A    between atoms: N_26  and  C_27 
REMARK    9  A    between atoms: C_27  and  C_28 
REMARK   10  A    between atoms: C_28  and  O_30 
ROOT
HETATM    1  N   UNK N   1       1.452   0.631   0.622  0.00  0.00    -0.280 N 
HETATM    2  H   UNK N   1       1.669   0.131   1.442  0.00  0.00     0.179 HD
ENDROOT
BRANCH   1   3
HETATM    3  S   UNK N   1      -0.117   0.514  -0.086  0.00  0.00     0.263 S 
HETATM    4  O   UNK N   1      -0.648  -0.871   0.312  0.00  0.00    -0.200 OA
HETATM    5  O   UNK N   1       0.138   0.358  -1.595  0.00  0.00    -0.200 OA
BRANCH   3   6
HETATM    6  C   UNK N   1      -1.179   1.854   0.298  0.00  0.00     0.080 A 
HETATM    7  C   UNK N   1      -1.215   2.960  -0.550  0.00  0.00     0.028 A 
HETATM    8  C   UNK N   1      -2.187   3.932  -0.362  0.00  0.00     0.039 A 
HETATM    9  C   UNK N   1      -3.111   3.789   0.676  0.00  0.00     0.079 A 
HETATM   10  C   UNK N   1      -3.011   2.726   1.579  0.00  0.00     0.039 A 
HETATM   11  C   UNK N   1      -2.037   1.756   1.390  0.00  0.00     0.028 A 
BRANCH   9  12
HETATM   12  O   UNK N   1      -4.254   4.487   0.620  0.00  0.00    -0.278 OA
BRANCH  12  13
HETATM   13  C   UNK N   1      -5.287   3.940  -0.088  0.00  0.00     0.271 C 
HETATM   14  O   UNK N   1      -5.162   2.828  -0.599  0.00  0.00    -0.264 OA
BRANCH  13  15
HETATM   15  C   UNK N   1      -6.567   4.693  -0.268  0.00  0.00     0.037 C 
HETATM   16  C   UNK N   1      -7.185   4.962   1.087  0.00  0.00     0.025 C 
HETATM   17  C   UNK N   1      -7.560   3.902  -1.109  0.00  0.00     0.025 C 
HETATM   18  C   UNK N   1      -6.278   6.004  -0.969  0.00  0.00     0.025 C 
ENDBRANCH  13  15
ENDBRANCH  12  13
ENDBRANCH   9  12
ENDBRANCH   3   6
ENDBRANCH   1   3
BRANCH   1  19
HETATM   19  C   UNK N   1       2.416   1.451   0.011  0.00  0.00     0.058 A 
HETATM   20  C   UNK N   1       2.282   2.844   0.020  0.00  0.00     0.031 A 
HETATM   21  C   UNK N   1       3.266   3.638  -0.576  0.00  0.00     0.002 A 
HETATM   22  C   UNK N   1       4.380   3.038  -1.171  0.00  0.00     0.001 A 
HETATM   23  C   UNK N   1       4.505   1.643  -1.181  0.00  0.00     0.019 A 
HETATM   24  C   UNK N   1       3.514   0.846  -0.593  0.00  0.00     0.059 A 
BRANCH  24  25
HETATM   25  C   UNK N   1       3.576  -0.631  -0.654  0.00  0.00     0.254 C 
HETATM   26  O   UNK N   1       2.700  -1.233  -1.266  0.00  0.00    -0.268 OA
HETATM   27  N   UNK N   1       4.484  -1.344   0.048  0.00  0.00    -0.347 N 
HETATM   28  H   UNK N   1       4.506  -2.322  -0.068  0.00  0.00     0.163 HD
BRANCH  27  29
HETATM   29  C   UNK N   1       5.421  -0.737   0.960  0.00  0.00     0.232 C 
BRANCH  29  30
HETATM   30  C   UNK N   1       6.631  -0.294   0.224  0.00  0.00     0.158 C 
HETATM   31  O   UNK N   1       6.991   0.869   0.289  0.00  0.00    -0.649 OA
BRANCH  30  32
HETATM   32  O   UNK N   1       7.327  -1.175  -0.517  0.00  0.00    -0.775 OA
HETATM   33  H   UNK N   1       7.038  -1.901  -1.033  0.00  0.00     0.167 HD
ENDBRANCH  30  32
ENDBRANCH  29  30
ENDBRANCH  27  29
ENDBRANCH  24  25
ENDBRANCH   1  19
TORSDOF 10
