REMARK  5 active torsions:
REMARK  status: ('A' for Active; 'I' for Inactive)
REMARK    1  A    between atoms: C_9  and  C_3 
REMARK    2  A    between atoms: C_12  and  O_22 
REMARK    3  A    between atoms: C_20  and  N_21 
REMARK    4  A    between atoms: O_22  and  C_23 
REMARK       I    between atoms: C_23  and  N_25 
REMARK    5  A    between atoms: C_28  and  N_31 
ROOT
HETATM    1  C   UNK N   1      -4.157  13.478   0.387  0.00  0.00     0.049 C 
HETATM    2  C   UNK N   1      -3.702  13.055   1.791  0.00  0.00     0.015 C 
HETATM    3  C   UNK N   1      -3.825  11.557   2.077  0.00  0.00     0.040 C 
HETATM    4  C   UNK N   1      -3.817  10.695   0.821  0.00  0.00     0.184 C 
HETATM    5  C   UNK N   1      -5.205  10.581   0.252  0.00  0.00     0.047 A 
HETATM    6  C   UNK N   1      -6.026  11.706  -0.066  0.00  0.00    -0.010 A 
HETATM    7  C   UNK N   1      -7.324  11.460  -0.534  0.00  0.00     0.012 A 
HETATM    8  C   UNK N   1      -7.797  10.161  -0.685  0.00  0.00     0.018 A 
HETATM    9  C   UNK N   1      -6.969   9.094  -0.358  0.00  0.00     0.088 A 
HETATM   10  N   UNK N   1      -5.711   9.324   0.100  0.00  0.00    -0.367 N 
ATOM     11  HN  UNK N   1      -5.122   8.526   0.339  1.00  0.00     0.165 HD
HETATM   12  C   UNK N   1      -5.637  13.166   0.107  0.00  0.00     0.118 C 
ENDROOT
BRANCH   4  13
HETATM   13  O   UNK N   1      -2.902  11.174  -0.093  0.00  0.00    -0.292 OA
BRANCH  13  14
HETATM   14  C   UNK N   1      -1.706  10.624  -0.440  0.00  0.00     0.363 C 
HETATM   15  O   UNK N   1      -0.985  11.263  -1.193  0.00  0.00    -0.238 OA
HETATM   16  N   UNK N   1      -1.302   9.384  -0.022  0.00  0.00    -0.328 N 
HETATM   17  C   UNK N   1      -0.108   8.801  -0.572  0.00  0.00     0.130 C 
HETATM   18  C   UNK N   1      -2.139   8.504   0.749  0.00  0.00     0.130 C 
HETATM   19  C   UNK N   1      -0.556   7.788  -1.621  0.00  0.00     0.046 C 
HETATM   20  C   UNK N   1      -1.632   6.816  -1.086  0.00  0.00     0.098 C 
HETATM   21  C   UNK N   1      -2.719   7.485  -0.220  0.00  0.00     0.046 C 
BRANCH  20  22
HETATM   22  N   UNK N   1      -1.105   5.604  -0.454  0.00  0.00    -0.291 N 
HETATM   23  C   UNK N   1       0.161   5.249  -0.153  0.00  0.00     0.083 A 
HETATM   24  C   UNK N   1       1.354   5.944  -0.325  0.00  0.00     0.035 A 
HETATM   25  C   UNK N   1       0.151   3.994   0.380  0.00  0.00     0.136 A 
HETATM   26  C   UNK N   1       2.538   5.300   0.074  0.00  0.00     0.019 A 
HETATM   27  C   UNK N   1       2.481   3.995   0.619  0.00  0.00     0.090 A 
HETATM   28  N   UNK N   1       1.281   3.355   0.765  0.00  0.00    -0.350 N 
ATOM     29  HN  UNK N   1       1.239   2.414   1.157  1.00  0.00     0.166 HD
HETATM   30  N   UNK N   1      -1.103   3.509   0.442  0.00  0.00    -0.292 N 
HETATM   31  C   UNK N   1      -1.854   4.523  -0.079  0.00  0.00     0.329 A 
HETATM   32  H   UNK N   1      -1.405   2.635   0.782  0.00  0.00     0.172 HD
HETATM   33  O   UNK N   1      -3.065   4.459  -0.210  0.00  0.00    -0.246 OA
ENDBRANCH  20  22
ENDBRANCH  13  14
ENDBRANCH   4  13
BRANCH   1  34
HETATM   34  C   UNK N   1      -3.615  14.856   0.071  0.00  0.00    -0.010 A 
HETATM   35  C   UNK N   1      -2.219  14.986  -0.009  0.00  0.00     0.011 A 
HETATM   36  C   UNK N   1      -1.627  16.223  -0.266  0.00  0.00     0.004 A 
HETATM   37  C   UNK N   1      -2.423  17.354  -0.434  0.00  0.00     0.045 A 
HETATM   38  C   UNK N   1      -3.813  17.247  -0.364  0.00  0.00     0.155 A 
HETATM   39  C   UNK N   1      -4.417  16.006  -0.123  0.00  0.00     0.161 A 
HETATM   40  F   UNK N   1      -4.578  18.355  -0.517  0.00  0.00    -0.203 F 
HETATM   41  F   UNK N   1      -5.768  15.950  -0.066  0.00  0.00    -0.202 F 
ENDBRANCH   1  34
BRANCH  12  42
HETATM   42  N   UNK N   1      -6.487  13.762   1.128  0.00  0.00    -0.421 N 
HETATM   43  H   UNK N   1      -6.423  14.486   1.844  0.00  0.00     0.150 HD
HETATM   44  H   UNK N   1      -7.411  13.331   1.128  0.00  0.00     0.150 HD
ENDBRANCH  12  42
TORSDOF 5
