REMARK  5 active torsions:
REMARK  status: ('A' for Active; 'I' for Inactive)
REMARK    1  A    between atoms: C_6  and  N_7 
REMARK    2  A    between atoms: N_7  and  C_8 
REMARK    3  A    between atoms: C_9  and  C_8 
REMARK    4  A    between atoms: N_11  and  C_15 
REMARK    5  A    between atoms: C_18  and  N_23 
ROOT
HETATM    1  C   UNK N   1      -1.847  -2.727  -0.044  0.00  0.00     0.084 A 
HETATM    2  C   UNK N   1      -3.208  -3.044  -0.010  0.00  0.00     0.077 A 
HETATM    3  C   UNK N   1      -4.198  -2.074   0.002  0.00  0.00     0.148 A 
HETATM    4  C   UNK N   1      -3.857  -0.701   0.010  0.00  0.00     0.115 A 
HETATM    5  C   UNK N   1      -2.477  -0.362  -0.055  0.00  0.00     0.187 A 
HETATM    6  C   UNK N   1      -1.485  -1.358  -0.085  0.00  0.00     0.184 A 
HETATM    7  F   UNK N   1      -0.195  -0.952  -0.078  0.00  0.00    -0.200 F 
HETATM    8  F   UNK N   1      -2.070   0.933  -0.051  0.00  0.00    -0.200 F 
HETATM    9  F   UNK N   1      -5.483  -2.501   0.044  0.00  0.00    -0.203 F 
ENDROOT
BRANCH   1  10
HETATM   10  N   UNK N   1      -0.915  -3.818   0.093  0.00  0.00    -0.288 N 
HETATM   11  C   UNK N   1      -1.359  -5.106   0.566  0.00  0.00     0.169 C 
HETATM   12  C   UNK N   1      -0.027  -5.733   0.981  0.00  0.00     0.169 C 
HETATM   13  O   UNK N   1       0.961  -5.011   0.344  0.00  0.00    -0.295 OA
HETATM   14  C   UNK N   1       0.425  -3.852  -0.059  0.00  0.00     0.368 C 
HETATM   15  O   UNK N   1       1.100  -2.938  -0.498  0.00  0.00    -0.238 OA
BRANCH  12  16
HETATM   16  C   UNK N   1       0.097  -7.239   1.110  0.00  0.00     0.155 C 
BRANCH  16  17
HETATM   17  N   UNK N   1       0.423  -7.916  -0.116  0.00  0.00    -0.372 N 
HETATM   18  H   UNK N   1       0.911  -7.450  -0.832  0.00  0.00     0.161 HD
BRANCH  17  19
HETATM   19  C   UNK N   1       0.028  -9.265  -0.274  0.00  0.00     0.123 A 
HETATM   20  N   UNK N   1      -0.960  -9.848   0.422  0.00  0.00    -0.246 N 
HETATM   21  O   UNK N   1      -0.992 -11.094   0.058  0.00  0.00    -0.248 OA
ATOM     22  HN  UNK N   1      -1.568  -9.398   1.106  1.00  0.00     0.196 HD
HETATM   23  C   UNK N   1      -0.061 -11.358  -0.836  0.00  0.00     0.171 A 
HETATM   24  C   UNK N   1       0.637 -10.187  -1.090  0.00  0.00     0.076 A 
ENDBRANCH  17  19
ENDBRANCH  16  17
ENDBRANCH  12  16
ENDBRANCH   1  10
BRANCH   4  25
HETATM   25  N   UNK N   1      -4.883   0.314   0.107  0.00  0.00    -0.351 N 
HETATM   26  C   UNK N   1      -6.286  -0.055   0.247  0.00  0.00     0.136 C 
HETATM   27  C   UNK N   1      -7.168   0.847  -0.604  0.00  0.00     0.103 C 
HETATM   28  C   UNK N   1      -6.869   2.270  -0.243  0.00  0.00     0.152 C 
HETATM   29  O   UNK N   1      -7.755   3.108  -0.262  0.00  0.00    -0.293 OA
HETATM   30  C   UNK N   1      -5.487   2.652   0.105  0.00  0.00     0.067 C 
HETATM   31  C   UNK N   1      -4.546   1.702   0.216  0.00  0.00     0.095 C 
ENDBRANCH   4  25
TORSDOF 5
