REMARK  4 active torsions:
REMARK  status: ('A' for Active; 'I' for Inactive)
REMARK    1  A    between atoms: O_32  and  C_14 
REMARK    2  A    between atoms: C_23  and  C_15 
REMARK    3  A    between atoms: C_24  and  C_17 
REMARK       I    between atoms: N_29  and  C_23 
REMARK    4  A    between atoms: O_32  and  C_24 
ROOT
HETATM    1  C   UNK N   1       1.554   2.398   1.638  0.00  0.00     0.021 C 
HETATM    2  C   UNK N   1       2.735   3.518  -0.201  0.00  0.00     0.021 C 
HETATM    3  C   UNK N   1       6.681   1.835   0.104  0.00  0.00     0.001 A 
HETATM    4  C   UNK N   1       7.113   0.492   0.055  0.00  0.00     0.002 A 
HETATM    5  C   UNK N   1       5.308   2.140   0.129  0.00  0.00     0.014 A 
HETATM    6  C   UNK N   1       6.174  -0.553   0.033  0.00  0.00     0.030 A 
HETATM    7  C   UNK N   1       0.125  -0.282  -0.021  0.00  0.00     0.114 C 
HETATM    8  C   UNK N   1       0.938   1.990  -0.758  0.00  0.00     0.145 C 
HETATM    9  C   UNK N   1       4.396   1.081   0.103  0.00  0.00    -0.000 A 
HETATM   10  C   UNK N   1       1.299  -0.956   0.114  0.00  0.00     0.082 C 
HETATM   11  C   UNK N   1       4.825  -0.213   0.059  0.00  0.00     0.043 A 
HETATM   12  C   UNK N   1       3.007   1.048   0.139  0.00  0.00    -0.008 A 
HETATM   13  C   UNK N   1       2.662  -0.312   0.109  0.00  0.00     0.058 A 
HETATM   14  C   UNK N   1      -1.397   1.635  -0.252  0.00  0.00     0.257 C 
HETATM   15  C   UNK N   1       2.067   2.217   0.218  0.00  0.00    -0.001 C 
HETATM   16  N   UNK N   1       3.792  -1.065   0.061  0.00  0.00    -0.354 N 
HETATM   17  N   UNK N   1      -0.117   1.111  -0.275  0.00  0.00    -0.322 N 
HETATM   18  O   UNK N   1      -1.554   2.819  -0.520  0.00  0.00    -0.267 OA
HETATM   19  H   UNK N   1       3.842  -2.047   0.032  0.00  0.00     0.166 HD
ENDROOT
BRANCH  14  20
HETATM   20  C   UNK N   1      -2.641   0.826   0.001  0.00  0.00     0.035 A 
HETATM   21  C   UNK N   1      -2.617  -0.498   0.452  0.00  0.00     0.020 A 
HETATM   22  C   UNK N   1      -3.794  -1.247   0.550  0.00  0.00     0.046 A 
HETATM   23  C   UNK N   1      -5.015  -0.682   0.187  0.00  0.00     0.154 A 
HETATM   24  C   UNK N   1      -5.064   0.647  -0.238  0.00  0.00     0.155 A 
HETATM   25  F   UNK N   1      -6.146  -1.426   0.242  0.00  0.00    -0.203 F 
HETATM   26  C   UNK N   1      -3.886   1.396  -0.326  0.00  0.00     0.062 A 
HETATM   27  F   UNK N   1      -6.246   1.206  -0.593  0.00  0.00    -0.203 F 
ENDBRANCH  14  20
BRANCH  10  28
HETATM   28  C   UNK N   1       1.248  -2.464   0.314  0.00  0.00     0.297 C 
HETATM   29  O   UNK N   1       2.273  -3.049   0.623  0.00  0.00    -0.259 OA
BRANCH  28  30
HETATM   30  O   UNK N   1       0.122  -3.224   0.199  0.00  0.00    -0.313 OA
BRANCH  30  31
HETATM   31  C   UNK N   1      -1.075  -2.882  -0.381  0.00  0.00     0.124 C 
HETATM   32  C   UNK N   1      -2.073  -3.993  -0.126  0.00  0.00     0.040 C 
HETATM   33  C   UNK N   1      -0.914  -2.708  -1.880  0.00  0.00     0.040 C 
ENDBRANCH  30  31
ENDBRANCH  28  30
ENDBRANCH  10  28
TORSDOF 4
