REMARK  8 active torsions:
REMARK  status: ('A' for Active; 'I' for Inactive)
REMARK    1  A    between atoms: C_2  and  C_3 
REMARK    2  A    between atoms: C_2  and  N_35 
REMARK       I    between atoms: C_3  and  N_5 
REMARK    3  A    between atoms: C_6  and  N_5 
REMARK    4  A    between atoms: C_6  and  C_7 
REMARK    5  A    between atoms: C_6  and  C_13 
REMARK       I    between atoms: C_13  and  N_15 
REMARK    6  A    between atoms: C_19  and  C_20 
REMARK       I    between atoms: C_20  and  N_22 
REMARK    7  A    between atoms: N_22  and  C_23 
REMARK    8  A    between atoms: C_24  and  C_29 
ROOT
HETATM    1  C   UNK N   1      -4.185  -3.563   0.863  0.00  0.00     0.243 C 
HETATM    2  O   UNK N   1      -4.413  -2.667   1.669  0.00  0.00    -0.271 OA
HETATM    3  N   UNK N   1      -5.189  -3.951   0.003  0.00  0.00    -0.337 N 
HETATM    4  C   UNK N   1      -5.068  -5.002  -0.972  0.00  0.00     0.127 C 
HETATM    5  C   UNK N   1      -6.489  -5.442  -1.267  0.00  0.00     0.022 C 
HETATM    6  C   UNK N   1      -7.384  -4.314  -0.786  0.00  0.00     0.037 C 
HETATM    7  C   UNK N   1      -6.517  -3.420   0.096  0.00  0.00     0.179 C 
ENDROOT
BRANCH   1   8
HETATM    8  C   UNK N   1      -2.801  -4.205   0.931  0.00  0.00     0.181 C 
BRANCH   8   9
HETATM    9  N   UNK N   1      -1.773  -3.191   0.705  0.00  0.00    -0.346 N 
HETATM   10  C   UNK N   1      -0.851  -3.106  -0.293  0.00  0.00     0.240 C 
HETATM   11  O   UNK N   1      -0.772  -3.964  -1.157  0.00  0.00    -0.271 OA
HETATM   12  H   UNK N   1      -1.743  -2.466   1.370  0.00  0.00     0.163 HD
BRANCH  10  13
HETATM   13  C   UNK N   1       0.059  -1.910  -0.363  0.00  0.00     0.165 C 
HETATM   14  C   UNK N   1      -0.759  -0.629  -0.374  0.00  0.00     0.042 C 
BRANCH  13  15
HETATM   15  N   UNK N   1       0.991  -1.884   0.753  0.00  0.00    -0.414 N 
HETATM   16  C   UNK N   1       2.167  -2.635   0.341  0.00  0.00     0.140 C 
HETATM   17  H   UNK N   1       0.848  -1.427   1.653  0.00  0.00     0.153 HD
ENDBRANCH  13  15
ENDBRANCH  10  13
ENDBRANCH   8   9
BRANCH   8  18
HETATM   18  C   UNK N   1      -2.641  -5.599   0.289  0.00  0.00     0.018 C 
HETATM   19  C   UNK N   1      -1.255  -6.222   0.410  0.00  0.00     0.007 C 
HETATM   20  C   UNK N   1      -1.241  -7.525  -0.395  0.00  0.00     0.000 C 
HETATM   21  C   UNK N   1      -2.282  -8.509   0.144  0.00  0.00     0.000 C 
HETATM   22  C   UNK N   1      -3.669  -7.874   0.178  0.00  0.00     0.000 C 
HETATM   23  C   UNK N   1      -3.620  -6.570   0.963  0.00  0.00     0.007 C 
ENDBRANCH   8  18
ENDBRANCH   1   8
BRANCH   7  24
HETATM   24  C   UNK N   1      -6.609  -1.985  -0.352  0.00  0.00     0.245 C 
HETATM   25  O   UNK N   1      -7.043  -1.724  -1.469  0.00  0.00    -0.271 OA
HETATM   26  N   UNK N   1      -6.432  -0.993   0.557  0.00  0.00    -0.317 N 
HETATM   27  H   UNK N   1      -5.896  -1.164   1.365  0.00  0.00     0.169 HD
BRANCH  26  28
HETATM   28  C   UNK N   1      -7.008   0.286   0.357  0.00  0.00     0.119 A 
HETATM   29  C   UNK N   1      -8.363   0.584   0.085  0.00  0.00     0.090 A 
HETATM   30  N   UNK N   1      -8.604   1.939  -0.109  0.00  0.00    -0.289 N 
HETATM   31  N   UNK N   1      -7.523   2.719   0.021  0.00  0.00    -0.059 NA
ATOM     32  HN  UNK N   1      -9.528   2.309  -0.331  1.00  0.00     0.183 HD
HETATM   33  S   UNK N   1      -6.258   1.733   0.370  0.00  0.00     0.020 SA
BRANCH  29  34
HETATM   34  C   UNK N   1      -9.463  -0.420   0.050  0.00  0.00    -0.006 A 
HETATM   35  C   UNK N   1      -9.282  -1.709   0.579  0.00  0.00     0.014 A 
HETATM   36  C   UNK N   1     -10.305  -2.655   0.546  0.00  0.00     0.001 A 
HETATM   37  C   UNK N   1     -11.536  -2.320  -0.015  0.00  0.00     0.000 A 
HETATM   38  C   UNK N   1     -11.742  -1.034  -0.525  0.00  0.00     0.001 A 
HETATM   39  C   UNK N   1     -10.713  -0.085  -0.486  0.00  0.00     0.014 A 
ENDBRANCH  29  34
ENDBRANCH  26  28
ENDBRANCH   7  24
TORSDOF 8
