REMARK  7 active torsions:
REMARK  status: ('A' for Active; 'I' for Inactive)
REMARK    1  A    between atoms: N_24  and  C_15 
REMARK    2  A    between atoms: S_35  and  C_16 
REMARK    3  A    between atoms: C_21  and  C_17 
REMARK    4  A    between atoms: N_25  and  C_18 
REMARK    5  A    between atoms: S_34  and  C_20 
REMARK       I    between atoms: N_24  and  C_21 
REMARK    6  A    between atoms: S_34  and  N_25 
REMARK    7  A    between atoms: S_35  and  N_26 
ROOT
HETATM    1  C   UNK N   1      -8.094   6.443  -1.949  0.00  0.00     0.258 C 
HETATM    2  N   UNK N   1      -6.774   6.188  -2.058  0.00  0.00    -0.323 N 
HETATM    3  O   UNK N   1      -8.623   7.128  -2.818  0.00  0.00    -0.267 OA
HETATM    4  H   UNK N   1      -6.417   6.106  -2.972  0.00  0.00     0.169 HD
ENDROOT
BRANCH   1   5
HETATM    5  C   UNK N   1      -8.953   5.874  -0.880  0.00  0.00     0.061 A 
HETATM    6  C   UNK N   1     -10.148   6.530  -0.573  0.00  0.00     0.043 A 
HETATM    7  C   UNK N   1     -11.025   6.008   0.371  0.00  0.00     0.035 A 
HETATM    8  C   UNK N   1     -10.720   4.808   1.019  0.00  0.00     0.026 A 
HETATM    9 Cl   UNK N   1     -12.517   6.852   0.721  0.00  0.00    -0.084 Cl
HETATM   10  C   UNK N   1      -9.544   4.119   0.705  0.00  0.00     0.033 A 
HETATM   11  C   UNK N   1      -8.657   4.634  -0.249  0.00  0.00     0.058 A 
BRANCH  11  12
HETATM   12  N   UNK N   1      -7.537   3.879  -0.674  0.00  0.00    -0.279 N 
HETATM   13  H   UNK N   1      -7.095   4.175  -1.502  0.00  0.00     0.179 HD
BRANCH  12  14
HETATM   14  S   UNK N   1      -6.854   2.471   0.121  0.00  0.00     0.269 S 
HETATM   15  O   UNK N   1      -5.340   2.691   0.003  0.00  0.00    -0.200 OA
HETATM   16  O   UNK N   1      -6.824   2.012  -1.347  0.00  0.00    -0.200 OA
BRANCH  14  17
HETATM   17  C   UNK N   1      -7.151   0.702   0.222  0.00  0.00     0.121 A 
HETATM   18  C   UNK N   1      -6.158  -0.283   0.106  0.00  0.00     0.035 A 
HETATM   19  C   UNK N   1      -6.650  -1.600   0.319  0.00  0.00     0.033 A 
HETATM   20  C   UNK N   1      -8.013  -1.626   0.616  0.00  0.00     0.075 A 
HETATM   21 Cl   UNK N   1      -8.956  -3.059   0.961  0.00  0.00    -0.076 Cl
HETATM   22  S   UNK N   1      -8.566  -0.062   0.609  0.00  0.00    -0.064 SA
ENDBRANCH  14  17
ENDBRANCH  12  14
ENDBRANCH  11  12
ENDBRANCH   1   5
BRANCH   2  23
HETATM   23  C   UNK N   1      -5.841   6.026  -0.996  0.00  0.00     0.034 C 
HETATM   24  C   UNK N   1      -4.700   5.274  -1.249  0.00  0.00     0.027 C 
HETATM   25  C   UNK N   1      -3.541   5.497  -0.524  0.00  0.00     0.001 C 
HETATM   26  C   UNK N   1      -3.481   6.540   0.398  0.00  0.00     0.170 C 
HETATM   27  C   UNK N   1      -4.671   7.178   0.781  0.00  0.00     0.001 C 
HETATM   28  C   UNK N   1      -5.857   6.920   0.085  0.00  0.00     0.027 C 
BRANCH  26  29
HETATM   29  S   UNK N   1      -2.138   7.656   0.015  0.00  0.00     0.222 S 
HETATM   30  O   UNK N   1      -1.399   7.129  -1.230  0.00  0.00    -0.210 OA
HETATM   31  O   UNK N   1      -2.876   8.806  -0.699  0.00  0.00    -0.210 OA
BRANCH  29  32
HETATM   32  N   UNK N   1      -0.889   8.500   0.959  0.00  0.00    -0.206 NA
HETATM   33  C   UNK N   1       0.297   7.628   0.920  0.00  0.00     0.133 C 
HETATM   34  C   UNK N   1       1.587   8.410   1.174  0.00  0.00     0.183 C 
HETATM   35  O   UNK N   1       1.703   9.428   0.217  0.00  0.00    -0.389 OA
HETATM   36  C   UNK N   1       0.724  10.364   0.566  0.00  0.00     0.183 C 
HETATM   37  C   UNK N   1      -0.644   9.775   0.253  0.00  0.00     0.133 C 
ENDBRANCH  29  32
ENDBRANCH  26  29
ENDBRANCH   2  23
TORSDOF 7
