REMARK  14 active torsions:
REMARK  status: ('A' for Active; 'I' for Inactive)
REMARK    1  A    between atoms: C_2  and  C_5 
REMARK    2  A    between atoms: C_5  and  C_6 
REMARK    3  A    between atoms: C_5  and  C_15 
REMARK    4  A    between atoms: C_6  and  C_7 
REMARK       I    between atoms: C_7  and  N_9 
REMARK       I    between atoms: C_15  and  N_17 
REMARK    5  A    between atoms: C_19  and  O_39 
REMARK    6  A    between atoms: C_21  and  C_22 
REMARK       I    between atoms: C_22  and  N_24 
REMARK    7  A    between atoms: C_25  and  N_24 
REMARK    8  A    between atoms: C_25  and  C_30 
REMARK    9  A    between atoms: C_27  and  C_28 
REMARK       I    between atoms: C_30  and  N_32 
REMARK   10  A    between atoms: N_32  and  S_33 
REMARK   11  A    between atoms: S_33  and  C_36 
REMARK   12  A    between atoms: O_39  and  C_40 
REMARK   13  A    between atoms: C_42  and  C_53 
REMARK   14  A    between atoms: C_49  and  O_51 
ROOT
HETATM    1  C   UNK N   1      -2.025   4.395   0.668  0.00  0.00     0.226 C 
HETATM    2  O   UNK N   1      -3.217   4.661   0.708  0.00  0.00    -0.273 OA
HETATM    3  N   UNK N   1      -1.644   3.121   0.932  0.00  0.00    -0.336 N 
HETATM    4  C   UNK N   1      -0.284   2.753   1.163  0.00  0.00     0.159 C 
HETATM    5  C   UNK N   1      -0.277   1.258   1.246  0.00  0.00     0.149 C 
HETATM    6  C   UNK N   1      -1.753   0.806   1.191  0.00  0.00     0.069 C 
HETATM    7  C   UNK N   1      -2.577   2.033   0.856  0.00  0.00     0.181 C 
ENDROOT
BRANCH   5   8
HETATM    8  O   UNK N   1       0.525   0.805   0.214  0.00  0.00    -0.343 OA
BRANCH   8   9
HETATM    9  C   UNK N   1       0.672  -0.499  -0.085  0.00  0.00     0.084 A 
HETATM   10  C   UNK N   1      -0.444  -1.305  -0.198  0.00  0.00     0.068 A 
HETATM   11  C   UNK N   1      -0.323  -2.663  -0.443  0.00  0.00     0.045 A 
HETATM   12  N   UNK N   1       0.919  -3.217  -0.579  0.00  0.00    -0.355 N 
HETATM   13  C   UNK N   1       2.046  -2.453  -0.472  0.00  0.00     0.048 A 
ATOM     14  HN  UNK N   1       1.005  -4.216  -0.762  1.00  0.00     0.166 HD
HETATM   15  C   UNK N   1       1.940  -1.064  -0.224  0.00  0.00     0.024 A 
HETATM   16  C   UNK N   1       3.311  -3.047  -0.535  0.00  0.00     0.067 A 
HETATM   17  C   UNK N   1       3.093  -0.291  -0.062  0.00  0.00     0.019 A 
HETATM   18  C   UNK N   1       4.349  -0.892  -0.118  0.00  0.00     0.038 A 
HETATM   19  C   UNK N   1       4.467  -2.275  -0.345  0.00  0.00     0.070 A 
BRANCH  11  20
HETATM   20  C   UNK N   1      -1.546  -3.481  -0.406  0.00  0.00    -0.009 A 
HETATM   21  C   UNK N   1      -1.496  -4.870  -0.572  0.00  0.00     0.013 A 
HETATM   22  C   UNK N   1      -2.661  -5.632  -0.436  0.00  0.00     0.001 A 
HETATM   23  C   UNK N   1      -3.873  -5.012  -0.119  0.00  0.00     0.000 A 
HETATM   24  C   UNK N   1      -3.927  -3.628   0.046  0.00  0.00     0.001 A 
HETATM   25  C   UNK N   1      -2.774  -2.868  -0.098  0.00  0.00     0.013 A 
ENDBRANCH  11  20
BRANCH  19  26
HETATM   26  O   UNK N   1       5.675  -2.885  -0.360  0.00  0.00    -0.356 OA
HETATM   27  C   UNK N   1       6.854  -2.225  -0.095  0.00  0.00     0.210 C 
ENDBRANCH  19  26
ENDBRANCH   8   9
ENDBRANCH   5   8
BRANCH   7  28
HETATM   28  C   UNK N   1      -3.059   1.966  -0.591  0.00  0.00     0.241 C 
HETATM   29  O   UNK N   1      -2.239   1.789  -1.481  0.00  0.00    -0.271 OA
HETATM   30  N   UNK N   1      -4.352   2.204  -0.933  0.00  0.00    -0.341 N 
HETATM   31  H   UNK N   1      -4.568   2.325  -1.886  0.00  0.00     0.163 HD
BRANCH  30  32
HETATM   32  C   UNK N   1      -5.427   2.288   0.026  0.00  0.00     0.122 A 
HETATM   33  C   UNK N   1      -6.690   2.693  -0.722  0.00  0.00     0.053 A 
HETATM   34  C   UNK N   1      -6.171   3.600   0.355  0.00  0.00     0.048 A 
BRANCH  34  35
HETATM   35  C   UNK N   1      -5.704   4.838  -0.334  0.00  0.00    -0.029 C 
HETATM   36  C   UNK N   1      -6.219   6.018   0.008  0.00  0.00     0.007 C 
ENDBRANCH  34  35
BRANCH  32  37
HETATM   37  C   UNK N   1      -5.750   1.011   0.727  0.00  0.00     0.260 C 
HETATM   38  O   UNK N   1      -5.664   0.954   1.943  0.00  0.00    -0.270 OA
HETATM   39  N   UNK N   1      -6.159  -0.067   0.002  0.00  0.00    -0.252 N 
HETATM   40  H   UNK N   1      -6.121  -0.018  -0.980  0.00  0.00     0.181 HD
BRANCH  39  41
HETATM   41  S   UNK N   1      -6.752  -1.545   0.749  0.00  0.00     0.237 S 
HETATM   42  O   UNK N   1      -8.040  -0.970   0.144  0.00  0.00    -0.205 OA
HETATM   43  O   UNK N   1      -7.345  -1.112   2.096  0.00  0.00    -0.205 OA
BRANCH  41  44
HETATM   44  C   UNK N   1      -7.719  -2.909   0.031  0.00  0.00     0.130 A 
HETATM   45  C   UNK N   1      -7.286  -4.196   0.706  0.00  0.00     0.023 A 
HETATM   46  C   UNK N   1      -6.857  -3.901  -0.714  0.00  0.00     0.023 A 
ENDBRANCH  41  44
ENDBRANCH  39  41
ENDBRANCH  32  37
ENDBRANCH  30  32
ENDBRANCH   7  28
BRANCH   1  47
HETATM   47  C   UNK N   1      -1.044   5.449   0.160  0.00  0.00     0.094 C 
BRANCH  47  48
HETATM   48  C   UNK N   1      -1.748   6.780  -0.263  0.00  0.00    -0.039 C 
HETATM   49  C   UNK N   1      -2.300   7.504   0.955  0.00  0.00     0.015 C 
HETATM   50  C   UNK N   1      -0.821   7.717  -1.003  0.00  0.00     0.015 C 
HETATM   51  C   UNK N   1      -2.889   6.518  -1.239  0.00  0.00     0.015 C 
ENDBRANCH  47  48
BRANCH  47  52
HETATM   52  C   UNK N   1       0.212   5.617   1.036  0.00  0.00     0.117 C 
BRANCH  52  53
HETATM   53  C   UNK N   1       1.416   6.029   0.212  0.00  0.00     0.220 C 
HETATM   54  O   UNK N   1       1.662   7.221   0.107  0.00  0.00    -0.273 OA
HETATM   55  N   UNK N   1       2.236   5.117  -0.395  0.00  0.00    -0.352 N 
HETATM   56  C   UNK N   1       3.363   5.559  -1.190  0.00  0.00     0.125 C 
HETATM   57  C   UNK N   1       2.057   3.694  -0.235  0.00  0.00     0.125 C 
HETATM   58  C   UNK N   1       4.651   4.992  -0.600  0.00  0.00     0.020 C 
HETATM   59  C   UNK N   1       4.542   3.473  -0.455  0.00  0.00     0.003 C 
HETATM   60  C   UNK N   1       3.321   3.099   0.386  0.00  0.00     0.020 C 
ENDBRANCH  52  53
ENDBRANCH  47  52
ENDBRANCH   1  47
TORSDOF 14
