REMARK  2 active torsions:
REMARK  status: ('A' for Active; 'I' for Inactive)
REMARK    1  A    between atoms: N_10  and  C_7 
REMARK    2  A    between atoms: N_11  and  C_7 
ROOT
HETATM    1  C   UNK N   1       0.791  -1.086   0.404  0.00  0.00     0.547 C 
ENDROOT
BRANCH   1   2
HETATM    2  N   UNK N   1      -0.100  -1.976  -0.333  0.00  0.00     0.135 N 
HETATM    3  C   UNK N   1      -1.486  -1.551  -0.105  0.00  0.00     0.293 C 
HETATM    4  C   UNK N   1      -2.454  -2.654  -0.545  0.00  0.00     0.193 C 
HETATM    5  S   UNK N   1      -2.407  -4.016   0.686  0.00  0.00     0.229 S 
HETATM    6  N   UNK N   1      -0.967  -4.191  -0.347  0.00  0.00    -0.292 N 
HETATM    7  O   UNK N   1      -3.602  -4.065  -0.279  0.00  0.00    -0.206 OA
HETATM    8  O   UNK N   1      -2.443  -5.504   0.303  0.00  0.00    -0.206 OA
HETATM    9  C   UNK N   1       0.083  -3.326   0.196  0.00  0.00     0.407 C 
HETATM   10  H   UNK N   1      -0.888  -4.787  -1.170  0.00  0.00     0.173 HD
ENDBRANCH   1   2
BRANCH   1  11
HETATM   11  N   UNK N   1       0.972   0.170  -0.315  0.00  0.00     0.135 N 
HETATM   12  C   UNK N   1       2.327   0.650  -0.040  0.00  0.00     0.293 C 
HETATM   13  C   UNK N   1       2.458   2.119  -0.464  0.00  0.00     0.193 C 
HETATM   14  S   UNK N   1       1.568   3.179   0.747  0.00  0.00     0.229 S 
HETATM   15  N   UNK N   1       0.340   2.463  -0.324  0.00  0.00    -0.292 N 
HETATM   16  O   UNK N   1       2.524   3.938  -0.186  0.00  0.00    -0.206 OA
HETATM   17  O   UNK N   1       0.718   4.394   0.346  0.00  0.00    -0.206 OA
HETATM   18  C   UNK N   1       0.004   1.139   0.201  0.00  0.00     0.407 C 
HETATM   19  H   UNK N   1      -0.058   2.898  -1.157  0.00  0.00     0.173 HD
ENDBRANCH   1  11
TORSDOF 2
