REMARK  0 active torsions:
REMARK  status: ('A' for Active; 'I' for Inactive)
ROOT
HETATM    1  C   UNK N   1       1.730  -1.096   0.000  0.00  0.00     0.148 C 
HETATM    2  N   UNK N   1       1.071   0.180   0.000  0.00  0.00    -0.373 N 
ATOM      3  HN  UNK N   1       1.620   1.039   0.000  1.00  0.00     0.161 HD
HETATM    4  C   UNK N   1      -0.184   0.232   0.000  0.00  0.00     0.348 C 
HETATM    5  O   UNK N   1      -1.380   0.277   0.000  0.00  0.00    -0.284 OA
ENDROOT
TORSDOF 0
