REMARK  8 active torsions:
REMARK  status: ('A' for Active; 'I' for Inactive)
REMARK    1  A    between atoms: C_3  and  C_31 
REMARK    2  A    between atoms: C_5  and  C_7 
REMARK       I    between atoms: C_7  and  N_9 
REMARK    3  A    between atoms: N_9  and  C_10 
REMARK    4  A    between atoms: C_10  and  C_11 
REMARK       I    between atoms: C_11  and  N_13 
REMARK    5  A    between atoms: N_13  and  C_14 
REMARK    6  A    between atoms: C_18  and  N_16 
REMARK    7  A    between atoms: C_21  and  O_24 
REMARK    8  A    between atoms: C_21  and  C_25 
ROOT
HETATM    1  C   UNK N   1       4.900  -6.218   1.695  0.00  0.00     0.235 C 
HETATM    2  O   UNK N   1       4.975  -7.041   2.593  0.00  0.00    -0.272 OA
HETATM    3  N   UNK N   1       5.931  -5.345   1.526  0.00  0.00    -0.352 N 
HETATM    4  H   UNK N   1       6.674  -5.397   2.170  0.00  0.00     0.163 HD
ENDROOT
BRANCH   3   5
HETATM    5  C   UNK N   1       6.032  -4.348   0.480  0.00  0.00     0.141 C 
HETATM    6  C   UNK N   1       7.498  -4.079   0.225  0.00  0.00     0.299 C 
HETATM    7  N   UNK N   1       7.528  -4.875  -1.000  0.00  0.00     0.097 N 
HETATM    8  C   UNK N   1       6.084  -5.029  -0.869  0.00  0.00     0.299 C 
BRANCH   7   9
HETATM    9  C   UNK N   1       8.174  -6.142  -0.645  0.00  0.00     0.223 C 
HETATM   10  C   UNK N   1       9.691  -6.049  -0.843  0.00  0.00     0.039 C 
HETATM   11  C   UNK N   1      10.393  -7.415  -0.714  0.00  0.00     0.045 C 
HETATM   12  C   UNK N   1       9.505  -8.493  -0.069  0.00  0.00     0.093 C 
HETATM   13  C   UNK N   1       8.218  -8.661  -0.897  0.00  0.00     0.045 C 
HETATM   14  C   UNK N   1       7.622  -7.344  -1.417  0.00  0.00     0.039 C 
BRANCH  12  15
HETATM   15  O   UNK N   1       9.182  -8.095   1.232  0.00  0.00    -0.384 OA
HETATM   16  H   UNK N   1       9.309  -7.762   2.134  0.00  0.00     0.211 HD
ENDBRANCH  12  15
BRANCH  12  17
HETATM   17  C   UNK N   1      10.205  -9.821   0.000  0.00  0.00     0.033 A 
HETATM   18  S   UNK N   1      11.710 -10.211  -0.564  0.00  0.00    -0.085 SA
HETATM   19  C   UNK N   1      11.722 -11.803  -0.116  0.00  0.00     0.138 A 
HETATM   20  N   UNK N   1      10.538 -12.079   0.496  0.00  0.00    -0.368 N 
HETATM   21  C   UNK N   1       9.689 -10.994   0.566  0.00  0.00     0.105 A 
ATOM     22  HN  UNK N   1      10.301 -12.999   0.866  1.00  0.00     0.165 HD
ENDBRANCH  12  17
ENDBRANCH   7   9
ENDBRANCH   3   5
BRANCH   1  23
HETATM   23  C   UNK N   1       3.688  -6.269   0.796  0.00  0.00     0.225 C 
BRANCH  23  24
HETATM   24  N   UNK N   1       3.365  -5.009   0.163  0.00  0.00    -0.348 N 
HETATM   25  C   UNK N   1       2.142  -4.713  -0.344  0.00  0.00     0.252 C 
HETATM   26  O   UNK N   1       1.939  -3.577  -0.756  0.00  0.00    -0.268 OA
HETATM   27  H   UNK N   1       4.072  -4.328   0.096  0.00  0.00     0.163 HD
BRANCH  25  28
HETATM   28  C   UNK N   1       1.017  -5.682  -0.325  0.00  0.00     0.032 A 
HETATM   29  C   UNK N   1      -0.291  -5.206  -0.193  0.00  0.00     0.033 A 
HETATM   30  C   UNK N   1      -1.362  -6.096  -0.048  0.00  0.00     0.048 A 
HETATM   31  C   UNK N   1      -1.126  -7.477  -0.092  0.00  0.00     0.016 A 
HETATM   32  C   UNK N   1       0.171  -7.962  -0.264  0.00  0.00     0.002 A 
HETATM   33  C   UNK N   1       1.239  -7.069  -0.353  0.00  0.00     0.017 A 
BRANCH  30  34
HETATM   34  C   UNK N   1      -2.732  -5.560   0.235  0.00  0.00     0.417 C 
HETATM   35  F   UNK N   1      -3.152  -4.762  -0.811  0.00  0.00    -0.166 F 
HETATM   36  F   UNK N   1      -2.686  -4.805   1.394  0.00  0.00    -0.166 F 
HETATM   37  F   UNK N   1      -3.640  -6.589   0.416  0.00  0.00    -0.166 F 
ENDBRANCH  30  34
ENDBRANCH  25  28
ENDBRANCH  23  24
ENDBRANCH   1  23
TORSDOF 8
