REMARK  5 active torsions:
REMARK  status: ('A' for Active; 'I' for Inactive)
REMARK    1  A    between atoms: C_6  and  C_3 
REMARK    2  A    between atoms: C_3  and  O_18 
REMARK    3  A    between atoms: C_4  and  C_6 
REMARK    4  A    between atoms: C_6  and  O_19 
REMARK    5  A    between atoms: N_10  and  C_7 
REMARK       I    between atoms: N_11  and  C_9 
ROOT
HETATM    1  C   UNK N   1      -1.753   1.556   0.243  0.00  0.00     0.149 C 
HETATM    2  C   UNK N   1      -1.876   0.059  -0.100  0.00  0.00     0.131 C 
HETATM    3  C   UNK N   1       0.572  -0.016   0.155  0.00  0.00     0.118 A 
HETATM    4  C   UNK N   1       1.751  -0.761   0.150  0.00  0.00     0.145 A 
HETATM    5  C   UNK N   1       0.641   1.367  -0.058  0.00  0.00     0.147 A 
HETATM    6  C   UNK N   1       2.992   1.210  -0.267  0.00  0.00     0.679 A 
HETATM    7  N   UNK N   1       4.121   1.780  -0.459  0.00  0.00    -0.234 N 
ATOM      8  HN  UNK N   1       4.179   2.798  -0.459  1.00  0.00     0.174 HD
HETATM    9  N   UNK N   1      -0.426   2.093  -0.039  0.00  0.00    -0.372 N 
ATOM     10  HN  UNK N   1      -0.338   3.090  -0.231  1.00  0.00     0.161 HD
HETATM   11  N   UNK N   1      -0.688  -0.623   0.360  0.00  0.00    -0.375 N 
HETATM   12  N   UNK N   1       2.939  -0.134  -0.062  0.00  0.00    -0.175 N 
HETATM   13  N   UNK N   1       1.852   1.950  -0.267  0.00  0.00    -0.175 N 
HETATM   14  H   UNK N   1       4.936   1.247  -0.607  0.00  0.00     0.174 HD
HETATM   15  H   UNK N   1      -0.755  -1.497   0.809  0.00  0.00     0.160 HD
HETATM   16  H   UNK N   1       3.771  -0.659  -0.068  0.00  0.00     0.186 HD
HETATM   17  H   UNK N   1       1.904   2.922  -0.419  0.00  0.00     0.186 HD
ENDROOT
BRANCH   2  18
HETATM   18  C   UNK N   1      -3.132  -0.562   0.549  0.00  0.00     0.170 C 
BRANCH  18  19
HETATM   19  C   UNK N   1      -4.465  -0.081  -0.063  0.00  0.00     0.145 C 
HETATM   20  C   UNK N   1      -4.628  -0.560  -1.498  0.00  0.00     0.042 C 
BRANCH  19  21
HETATM   21  O   UNK N   1      -4.570   1.310  -0.031  0.00  0.00    -0.393 OA
HETATM   22  H   UNK N   1      -3.769   1.857  -0.008  0.00  0.00     0.210 HD
ENDBRANCH  19  21
ENDBRANCH  18  19
BRANCH  18  23
HETATM   23  O   UNK N   1      -3.075  -1.957   0.450  0.00  0.00    -0.391 OA
HETATM   24  H   UNK N   1      -3.892  -2.475   0.381  0.00  0.00     0.210 HD
ENDBRANCH  18  23
ENDBRANCH   2  18
BRANCH   4  25
HETATM   25  N   UNK N   1       1.719  -2.158   0.339  0.00  0.00    -0.383 N 
HETATM   26  H   UNK N   1       0.864  -2.626   0.471  0.00  0.00     0.157 HD
HETATM   27  H   UNK N   1       2.561  -2.669   0.339  0.00  0.00     0.157 HD
ENDBRANCH   4  25
TORSDOF 5
