REMARK  6 active torsions:
REMARK  status: ('A' for Active; 'I' for Inactive)
REMARK    1  A    between atoms: C_8  and  C_6 
REMARK    2  A    between atoms: N_12  and  C_13 
REMARK    3  A    between atoms: C_13  and  C_14 
REMARK    4  A    between atoms: C_17  and  O_20 
REMARK    5  A    between atoms: O_20  and  C_21 
REMARK    6  A    between atoms: C_24  and  C_28 
REMARK       I    between atoms: C_28  and  N_30 
ROOT
HETATM    1  C   UNK N   1       7.211  -1.659   0.516  0.00  0.00    -0.030 C 
HETATM    2  C   UNK N   1       8.278  -1.627   1.419  0.00  0.00     0.012 C 
HETATM    3  C   UNK N   1       9.482  -2.253   1.086  0.00  0.00     0.038 C 
HETATM    4  C   UNK N   1       9.593  -2.912  -0.144  0.00  0.00     0.076 C 
HETATM    5  C   UNK N   1       8.589  -2.782  -1.111  0.00  0.00     0.038 C 
HETATM    6  C   UNK N   1       7.401  -2.159  -0.780  0.00  0.00     0.012 C 
ENDROOT
BRANCH   1   7
HETATM    7  C   UNK N   1       5.830  -1.391   1.015  0.00  0.00     0.311 C 
BRANCH   7   8
HETATM    8  N   UNK N   1       4.843  -1.837   0.029  0.00  0.00     0.101 N 
HETATM    9  C   UNK N   1       4.431  -3.213   0.259  0.00  0.00     0.273 C 
HETATM   10  C   UNK N   1       3.024  -3.328  -0.323  0.00  0.00     0.033 C 
HETATM   11  C   UNK N   1       2.587  -1.893  -0.585  0.00  0.00     0.042 C 
HETATM   12  C   UNK N   1       3.613  -1.099   0.187  0.00  0.00     0.256 C 
BRANCH  12  13
HETATM   13  C   UNK N   1       3.760   0.348  -0.193  0.00  0.00    -0.024 A 
HETATM   14  C   UNK N   1       5.005   0.854  -0.606  0.00  0.00     0.016 A 
HETATM   15  C   UNK N   1       5.189   2.217  -0.804  0.00  0.00    -0.061 A 
HETATM   16  C   UNK N   1       4.125   3.095  -0.595  0.00  0.00     0.013 A 
HETATM   17  C   UNK N   1       6.531   2.730  -1.185  0.00  0.00     0.048 C 
HETATM   18  C   UNK N   1       2.877   2.599  -0.199  0.00  0.00    -0.061 A 
HETATM   19  C   UNK N   1       1.750   3.534   0.037  0.00  0.00     0.048 C 
HETATM   20  C   UNK N   1       2.697   1.229   0.012  0.00  0.00     0.016 A 
ENDBRANCH  12  13
ENDBRANCH   7   8
ENDBRANCH   1   7
BRANCH   4  21
HETATM   21  O   UNK N   1      10.425  -3.965  -0.244  0.00  0.00    -0.308 OA
BRANCH  21  22
HETATM   22  C   UNK N   1       9.891  -5.229  -0.134  0.00  0.00     0.114 A 
HETATM   23  C   UNK N   1      10.603  -6.324  -0.635  0.00  0.00     0.041 A 
HETATM   24  C   UNK N   1      10.048  -7.614  -0.587  0.00  0.00     0.020 A 
HETATM   25  C   UNK N   1       8.771  -7.820  -0.034  0.00  0.00     0.034 A 
HETATM   26  C   UNK N   1       8.077  -6.745   0.493  0.00  0.00     0.062 A 
HETATM   27  C   UNK N   1       8.608  -5.471   0.462  0.00  0.00     0.151 A 
HETATM   28  F   UNK N   1       7.854  -4.495   1.017  0.00  0.00    -0.203 F 
BRANCH  25  29
HETATM   29  C   UNK N   1       8.143  -9.157  -0.012  0.00  0.00     0.249 C 
HETATM   30  O   UNK N   1       8.734 -10.124  -0.449  0.00  0.00    -0.268 OA
HETATM   31  N   UNK N   1       6.891  -9.307   0.481  0.00  0.00    -0.366 N 
HETATM   32  H   UNK N   1       6.341  -8.573   0.839  0.00  0.00     0.159 HD
HETATM   33  H   UNK N   1       6.504 -10.212   0.481  0.00  0.00     0.159 HD
ENDBRANCH  25  29
ENDBRANCH  21  22
ENDBRANCH   4  21
TORSDOF 6
