REMARK  12 active torsions:
REMARK  status: ('A' for Active; 'I' for Inactive)
REMARK    1  A    between atoms: C_3  and  C_4 
REMARK    2  A    between atoms: C_5  and  C_4 
REMARK    3  A    between atoms: C_6  and  C_9 
REMARK    4  A    between atoms: C_10  and  O_34 
REMARK    5  A    between atoms: C_11  and  O_17 
REMARK    6  A    between atoms: O_17  and  C_18 
REMARK    7  A    between atoms: C_18  and  C_20 
REMARK    8  A    between atoms: C_21  and  C_22 
REMARK    9  A    between atoms: C_25  and  O_28 
REMARK   10  A    between atoms: O_28  and  C_29 
REMARK   11  A    between atoms: C_29  and  C_30 
REMARK   12  A    between atoms: C_30  and  N_31 
ROOT
HETATM    1  C   UNK N   1       0.487   0.390   0.533  0.00  0.00     0.091 C 
HETATM    2  C   UNK N   1       1.565   0.164  -0.552  0.00  0.00     0.160 C 
HETATM    3  C   UNK N   1       2.666  -0.715   0.119  0.00  0.00     0.161 C 
HETATM    4  C   UNK N   1       2.095  -2.115   0.365  0.00  0.00     0.038 C 
HETATM    5  C   UNK N   1       0.882  -2.076   1.299  0.00  0.00     0.043 C 
HETATM    6  C   UNK N   1      -0.101  -0.993   0.869  0.00  0.00     0.091 A 
HETATM    7  C   UNK N   1      -1.544  -1.224   1.096  0.00  0.00     0.207 A 
HETATM    8  O   UNK N   1      -0.942  -1.456  -0.159  0.00  0.00    -0.374 OA
ENDROOT
BRANCH   3   9
HETATM    9  O   UNK N   1       3.889  -0.822  -0.533  0.00  0.00    -0.310 OA
BRANCH   9  10
HETATM   10  C   UNK N   1       4.866   0.128  -0.451  0.00  0.00     0.283 C 
HETATM   11  O   UNK N   1       6.019  -0.154  -0.722  0.00  0.00    -0.260 OA
BRANCH  10  12
HETATM   12  C   UNK N   1       4.494   1.505  -0.115  0.00  0.00     0.083 C 
HETATM   13  C   UNK N   1       5.231   2.599   0.073  0.00  0.00     0.017 C 
BRANCH  13  14
HETATM   14  C   UNK N   1       4.472   3.864   0.189  0.00  0.00    -0.036 A 
HETATM   15  C   UNK N   1       3.185   3.941  -0.372  0.00  0.00     0.014 A 
HETATM   16  C   UNK N   1       2.398   5.070  -0.213  0.00  0.00     0.037 A 
HETATM   17  C   UNK N   1       2.868   6.147   0.526  0.00  0.00     0.068 A 
HETATM   18  C   UNK N   1       4.172   6.102   1.067  0.00  0.00     0.037 A 
HETATM   19  C   UNK N   1       4.976   4.963   0.891  0.00  0.00     0.014 A 
BRANCH  17  20
HETATM   20  O   UNK N   1       2.035   7.190   0.731  0.00  0.00    -0.349 OA
BRANCH  20  21
HETATM   21  C   UNK N   1       2.335   8.249   1.553  0.00  0.00     0.206 C 
BRANCH  21  22
HETATM   22  C   UNK N   1       1.903   9.551   0.897  0.00  0.00     0.297 C 
BRANCH  22  23
HETATM   23  N   UNK N   1       2.580   9.744  -0.378  0.00  0.00     0.082 N 
HETATM   24  C   UNK N   1       1.960  10.894  -1.010  0.00  0.00     0.309 C 
HETATM   25  C   UNK N   1       3.962  10.107  -0.110  0.00  0.00     0.309 C 
ENDBRANCH  22  23
ENDBRANCH  21  22
ENDBRANCH  20  21
ENDBRANCH  17  20
ENDBRANCH  13  14
ENDBRANCH  10  12
ENDBRANCH   9  10
ENDBRANCH   3   9
BRANCH   2  26
HETATM   26  O   UNK N   1       2.048   1.374  -1.037  0.00  0.00    -0.388 OA
HETATM   27  C   UNK N   1       1.931   1.278  -2.425  0.00  0.00     0.202 C 
ENDBRANCH   2  26
BRANCH   1  28
HETATM   28  C   UNK N   1      -0.557   1.533   0.400  0.00  0.00     0.093 A 
HETATM   29  C   UNK N   1      -0.470   2.601  -0.643  0.00  0.00     0.160 A 
HETATM   30  O   UNK N   1      -1.257   1.440  -0.812  0.00  0.00    -0.369 OA
HETATM   31  C   UNK N   1      -1.470   1.794   1.595  0.00  0.00     0.049 C 
BRANCH  29  32
HETATM   32  C   UNK N   1      -1.452   3.765  -0.502  0.00  0.00     0.062 C 
BRANCH  32  33
HETATM   33  C   UNK N   1      -0.912   4.878   0.347  0.00  0.00    -0.022 C 
HETATM   34  C   UNK N   1      -1.635   5.973   0.623  0.00  0.00    -0.091 C 
HETATM   35  C   UNK N   1      -3.027   6.147   0.103  0.00  0.00     0.042 C 
HETATM   36  C   UNK N   1      -1.049   7.045   1.474  0.00  0.00     0.042 C 
ENDBRANCH  32  33
ENDBRANCH  29  32
ENDBRANCH   1  28
TORSDOF 12
