REMARK  6 active torsions:
REMARK  status: ('A' for Active; 'I' for Inactive)
REMARK    1  A    between atoms: C_4  and  C_7 
REMARK    2  A    between atoms: C_7  and  N_8 
REMARK    3  A    between atoms: N_8  and  C_9 
REMARK    4  A    between atoms: C_9  and  C_10 
REMARK    5  A    between atoms: C_10  and  C_11 
REMARK    6  A    between atoms: C_17  and  N_16 
ROOT
HETATM    1  C   UNK N   1      -1.795   0.608  -0.463  0.00  0.00     0.031 A 
HETATM    2  C   UNK N   1      -2.560   1.742  -0.655  0.00  0.00     0.116 A 
HETATM    3  N   UNK N   1      -1.726   2.783  -0.867  0.00  0.00    -0.341 N 
HETATM    4  C   UNK N   1      -0.484   2.267  -0.803  0.00  0.00     0.178 A 
HETATM    5  S   UNK N   1       0.696   3.068  -0.998  0.00  0.00    -0.040 SA
HETATM    6  N   UNK N   1      -0.484   0.934  -0.556  0.00  0.00    -0.319 N 
HETATM    7  H   UNK N   1      -1.974   3.721  -1.034  0.00  0.00     0.167 HD
ENDROOT
BRANCH   6   8
HETATM    8  C   UNK N   1       0.714   0.073  -0.454  0.00  0.00     0.121 C 
HETATM    9  C   UNK N   1       1.637   0.518   0.672  0.00  0.00     0.069 C 
HETATM   10  C   UNK N   1       2.899  -0.260   0.535  0.00  0.00    -0.017 A 
HETATM   11  C   UNK N   1       4.135   0.342   0.771  0.00  0.00     0.052 A 
HETATM   12  C   UNK N   1       2.829  -1.606   0.132  0.00  0.00     0.114 A 
HETATM   13  C   UNK N   1       5.309  -0.399   0.620  0.00  0.00     0.120 A 
HETATM   14  C   UNK N   1       5.246  -1.746   0.244  0.00  0.00     0.087 A 
HETATM   15  F   UNK N   1       6.511   0.190   0.827  0.00  0.00    -0.206 F 
HETATM   16  C   UNK N   1       4.008  -2.352   0.003  0.00  0.00     0.153 A 
HETATM   17  F   UNK N   1       3.957  -3.650  -0.384  0.00  0.00    -0.203 F 
HETATM   18  O   UNK N   1       1.625  -2.168  -0.162  0.00  0.00    -0.345 OA
HETATM   19  C   UNK N   1       0.447  -1.436  -0.290  0.00  0.00     0.201 C 
ENDBRANCH   6   8
BRANCH   1  20
HETATM   20  C   UNK N   1      -2.361  -0.749  -0.208  0.00  0.00     0.078 C 
BRANCH  20  21
HETATM   21  C   UNK N   1      -2.497  -0.974   1.286  0.00  0.00     0.120 C 
BRANCH  21  22
HETATM   22  N   UNK N   1      -1.784  -2.183   1.665  0.00  0.00    -0.417 N 
HETATM   23  H   UNK N   1      -0.772  -2.310   1.667  0.00  0.00     0.153 HD
BRANCH  22  24
HETATM   24  C   UNK N   1      -2.775  -3.179   2.041  0.00  0.00     0.152 C 
BRANCH  24  25
HETATM   25  C   UNK N   1      -3.125  -4.038   0.872  0.00  0.00    -0.041 A 
HETATM   26  C   UNK N   1      -4.435  -4.037   0.383  0.00  0.00     0.009 A 
HETATM   27  C   UNK N   1      -4.777  -4.845  -0.706  0.00  0.00     0.001 A 
HETATM   28  C   UNK N   1      -3.809  -5.657  -1.305  0.00  0.00     0.000 A 
HETATM   29  C   UNK N   1      -2.499  -5.661  -0.816  0.00  0.00     0.001 A 
HETATM   30  C   UNK N   1      -2.156  -4.853   0.273  0.00  0.00     0.009 A 
ENDBRANCH  24  25
ENDBRANCH  22  24
ENDBRANCH  21  22
ENDBRANCH  20  21
ENDBRANCH   1  20
TORSDOF 6
