REMARK  0 active torsions:
REMARK  status: ('A' for Active; 'I' for Inactive)
ROOT
HETATM    1  C   UNK N   1       0.825  -0.825   0.000  0.00  0.00     0.271 A 
HETATM    2  N   UNK N   1       0.825   0.000   0.000  0.00  0.00    -0.077 N 
HETATM    3  C   UNK N   1       0.825   0.825   0.000  0.00  0.00     0.262 A 
HETATM    4  C   UNK N   1       1.540   1.238   0.000  0.00  0.00     0.192 A 
HETATM    5  O   UNK N   1       1.540   2.062   0.000  0.00  0.00    -0.399 OA
HETATM    6  C   UNK N   1       1.650  -0.000   0.000  0.00  0.00     0.271 A 
HETATM    7  C   UNK N   1       0.000   0.000   0.000  0.00  0.00     0.271 A 
HETATM    8  H   UNK N   1       2.380   2.548   0.000  0.00  0.00     0.209 HD
ENDROOT
TORSDOF 0
