REMARK  7 active torsions:
REMARK  status: ('A' for Active; 'I' for Inactive)
REMARK    1  A    between atoms: C_2  and  C_3 
REMARK    2  A    between atoms: C_2  and  N_13 
REMARK    3  A    between atoms: C_14  and  N_13 
REMARK    4  A    between atoms: N_17  and  C_19 
REMARK    5  A    between atoms: C_22  and  C_25 
REMARK    6  A    between atoms: C_25  and  C_26 
REMARK    7  A    between atoms: C_26  and  O_28 
ROOT
HETATM    1  C   UNK N   1      -0.511   2.173   1.068  0.00  0.00     0.096 C 
HETATM    2  C   UNK N   1      -1.668   3.050   0.590  0.00  0.00     0.046 C 
HETATM    3  C   UNK N   1      -1.007   4.141  -0.246  0.00  0.00     0.125 C 
HETATM    4  N   UNK N   1       0.362   3.715  -0.387  0.00  0.00    -0.379 N 
HETATM    5  C   UNK N   1       0.582   2.369   0.041  0.00  0.00     0.147 C 
ENDROOT
BRANCH   1   6
HETATM    6  N   UNK N   1      -0.870   0.767   1.276  0.00  0.00    -0.408 N 
HETATM    7  H   UNK N   1      -0.834   0.290   2.177  0.00  0.00     0.154 HD
BRANCH   6   8
HETATM    8  C   UNK N   1      -1.289   0.137   0.024  0.00  0.00     0.107 C 
HETATM    9  C   UNK N   1      -2.806   0.243  -0.108  0.00  0.00     0.037 C 
BRANCH   8  10
HETATM   10  C   UNK N   1      -0.773  -1.289  -0.057  0.00  0.00    -0.025 A 
HETATM   11  C   UNK N   1      -1.681  -2.357  -0.176  0.00  0.00     0.010 A 
HETATM   12  C   UNK N   1      -1.234  -3.674  -0.270  0.00  0.00     0.002 A 
HETATM   13  C   UNK N   1       0.131  -3.955  -0.250  0.00  0.00     0.012 A 
HETATM   14  C   UNK N   1       1.057  -2.918  -0.134  0.00  0.00    -0.025 A 
HETATM   15  C   UNK N   1       0.616  -1.575  -0.036  0.00  0.00    -0.018 A 
HETATM   16  C   UNK N   1       2.424  -3.212  -0.118  0.00  0.00     0.012 A 
HETATM   17  C   UNK N   1       1.573  -0.555   0.074  0.00  0.00     0.013 A 
HETATM   18  C   UNK N   1       2.937  -0.857   0.092  0.00  0.00     0.001 A 
HETATM   19  C   UNK N   1       3.362  -2.183  -0.004  0.00  0.00     0.001 A 
ENDBRANCH   8  10
ENDBRANCH   6   8
ENDBRANCH   1   6
BRANCH   4  20
HETATM   20  C   UNK N   1       1.427   4.658  -0.352  0.00  0.00     0.030 A 
HETATM   21  C   UNK N   1       1.172   6.033  -0.456  0.00  0.00     0.030 A 
HETATM   22  C   UNK N   1       2.215   6.955  -0.340  0.00  0.00     0.010 A 
HETATM   23  C   UNK N   1       3.526   6.518  -0.123  0.00  0.00    -0.048 A 
HETATM   24  C   UNK N   1       3.782   5.143  -0.031  0.00  0.00     0.010 A 
HETATM   25  C   UNK N   1       2.745   4.222  -0.146  0.00  0.00     0.030 A 
BRANCH  23  26
HETATM   26  C   UNK N   1       4.606   7.555   0.043  0.00  0.00     0.148 C 
BRANCH  26  27
HETATM   27  C   UNK N   1       6.041   7.098   0.140  0.00  0.00     0.143 C 
HETATM   28  O   UNK N   1       6.902   7.916   0.416  0.00  0.00    -0.650 OA
BRANCH  27  29
HETATM   29  O   UNK N   1       6.400   5.823  -0.105  0.00  0.00    -0.776 OA
HETATM   30  H   UNK N   1       5.757   5.163  -0.276  0.00  0.00     0.167 HD
ENDBRANCH  27  29
ENDBRANCH  26  27
ENDBRANCH  23  26
ENDBRANCH   4  20
TORSDOF 7
