REMARK  5 active torsions:
REMARK  status: ('A' for Active; 'I' for Inactive)
REMARK    1  A    between atoms: C_5  and  C_9 
REMARK    2  A    between atoms: C_9  and  N_10 
REMARK    3  A    between atoms: C_17  and  C_22 
REMARK    4  A    between atoms: C_25  and  O_28 
REMARK    5  A    between atoms: O_28  and  C_29 
ROOT
HETATM    1  N   UNK N   1       5.618   2.015  -0.260  0.00  0.00    -0.339 N 
HETATM    2  C   UNK N   1       5.912   0.826  -1.015  0.00  0.00     0.153 C 
HETATM    3  C   UNK N   1       5.957  -0.342  -0.051  0.00  0.00     0.195 C 
HETATM    4  O   UNK N   1       4.719  -0.942   0.012  0.00  0.00    -0.348 OA
HETATM    5  C   UNK N   1       3.530  -0.300   0.170  0.00  0.00     0.084 A 
HETATM    6  C   UNK N   1       2.352  -1.066   0.042  0.00  0.00     0.039 A 
HETATM    7  C   UNK N   1       1.086  -0.454   0.064  0.00  0.00     0.015 A 
HETATM    8  C   UNK N   1       0.999   0.931   0.248  0.00  0.00    -0.025 A 
HETATM    9  C   UNK N   1       2.154   1.651   0.464  0.00  0.00     0.032 A 
HETATM   10  C   UNK N   1       3.411   1.099   0.422  0.00  0.00     0.066 A 
HETATM   11  C   UNK N   1       4.482   2.130   0.477  0.00  0.00     0.257 C 
HETATM   12  O   UNK N   1       4.251   3.177   1.066  0.00  0.00    -0.267 OA
ENDROOT
BRANCH   8  13
HETATM   13  C   UNK N   1      -0.237   1.721   0.096  0.00  0.00    -0.026 A 
HETATM   14  C   UNK N   1      -1.495   1.141  -0.096  0.00  0.00     0.015 A 
HETATM   15  C   UNK N   1      -2.620   1.967  -0.237  0.00  0.00     0.038 A 
HETATM   16  C   UNK N   1      -2.482   3.373  -0.214  0.00  0.00     0.078 A 
HETATM   17  C   UNK N   1      -1.224   3.937  -0.076  0.00  0.00     0.038 A 
HETATM   18  C   UNK N   1      -0.120   3.124   0.082  0.00  0.00     0.015 A 
BRANCH  16  19
HETATM   19  O   UNK N   1      -3.544   4.207  -0.265  0.00  0.00    -0.255 OA
BRANCH  19  20
HETATM   20  C   UNK N   1      -4.854   3.806  -0.151  0.00  0.00     0.530 C 
HETATM   21  F   UNK N   1      -5.025   3.111   1.034  0.00  0.00    -0.144 F 
HETATM   22  F   UNK N   1      -5.660   4.927  -0.131  0.00  0.00    -0.144 F 
HETATM   23  F   UNK N   1      -5.205   3.007  -1.223  0.00  0.00    -0.144 F 
ENDBRANCH  19  20
ENDBRANCH  16  19
ENDBRANCH   8  13
BRANCH   1  24
HETATM   24  C   UNK N   1       6.434   3.195  -0.457  0.00  0.00     0.202 C 
BRANCH  24  25
HETATM   25  C   UNK N   1       7.851   3.003  -0.080  0.00  0.00     0.099 A 
HETATM   26  N   UNK N   1       8.254   1.892   0.592  0.00  0.00    -0.354 N 
HETATM   27  C   UNK N   1       9.561   1.705   0.900  0.00  0.00     0.091 A 
ATOM     28  HN  UNK N   1       7.565   1.192   0.868  1.00  0.00     0.166 HD
HETATM   29  C   UNK N   1      10.505   2.656   0.521  0.00  0.00     0.034 A 
HETATM   30  C   UNK N   1      10.073   3.790  -0.163  0.00  0.00     0.091 A 
HETATM   31  N   UNK N   1       8.757   3.945  -0.450  0.00  0.00    -0.354 N 
ATOM     32  HN  UNK N   1       8.444   4.777  -0.949  1.00  0.00     0.166 HD
ENDBRANCH  24  25
ENDBRANCH   1  24
TORSDOF 5
