REMARK  12 active torsions:
REMARK  status: ('A' for Active; 'I' for Inactive)
REMARK    1  A    between atoms: C_12  and  O_1 
REMARK    2  A    between atoms: O_1  and  C_15 
REMARK    3  A    between atoms: O_2  and  C_16 
REMARK    4  A    between atoms: O_3  and  C_17 
REMARK    5  A    between atoms: O_4  and  C_18 
REMARK    6  A    between atoms: O_5  and  C_19 
REMARK    7  A    between atoms: O_6  and  C_21 
REMARK    8  A    between atoms: O_7  and  C_20 
REMARK    9  A    between atoms: O_8  and  C_23 
REMARK   10  A    between atoms: O_9  and  C_22 
REMARK   11  A    between atoms: C_13  and  C_26 
REMARK   12  A    between atoms: C_15  and  C_27 
ROOT
HETATM    1  O   UNK N   1      26.615 -13.063   0.019  0.00  0.00    -0.338 OA
HETATM    2  C   UNK N   1      25.595 -15.022   1.001  0.00  0.00     0.170 C 
HETATM    3  C   UNK N   1      25.651 -13.482   0.921  0.00  0.00     0.192 C 
HETATM    4  C   UNK N   1      26.994 -15.560   1.336  0.00  0.00     0.080 C 
HETATM    5  C   UNK N   1      29.303 -15.550   0.318  0.00  0.00     0.077 A 
HETATM    6  C   UNK N   1      30.053 -13.687  -1.039  0.00  0.00     0.071 A 
HETATM    7  C   UNK N   1      27.817 -13.672  -0.113  0.00  0.00     0.081 A 
HETATM    8  C   UNK N   1      28.062 -14.918   0.497  0.00  0.00     0.011 A 
HETATM    9  C   UNK N   1      30.294 -14.931  -0.449  0.00  0.00     0.073 A 
HETATM   10  C   UNK N   1      28.814 -13.064  -0.879  0.00  0.00     0.074 A 
ENDROOT
BRANCH   2  11
HETATM   11  O   UNK N   1      25.095 -15.580  -0.165  0.00  0.00    -0.309 OA
BRANCH  11  12
HETATM   12  C   UNK N   1      24.939 -16.921  -0.287  0.00  0.00     0.294 C 
HETATM   13  O   UNK N   1      25.921 -17.654  -0.274  0.00  0.00    -0.259 OA
BRANCH  12  14
HETATM   14  C   UNK N   1      23.588 -17.509  -0.322  0.00  0.00     0.045 A 
HETATM   15  C   UNK N   1      22.458 -16.682  -0.369  0.00  0.00     0.057 A 
HETATM   16  C   UNK N   1      21.176 -17.236  -0.328  0.00  0.00     0.102 A 
HETATM   17  C   UNK N   1      21.015 -18.624  -0.221  0.00  0.00     0.132 A 
HETATM   18  C   UNK N   1      22.144 -19.455  -0.171  0.00  0.00     0.102 A 
HETATM   19  C   UNK N   1      23.423 -18.897  -0.227  0.00  0.00     0.057 A 
BRANCH  16  20
HETATM   20  O   UNK N   1      20.101 -16.432  -0.381  0.00  0.00    -0.358 OA
HETATM   21  H   UNK N   1      20.211 -15.502  -0.418  0.00  0.00     0.217 HD
ENDBRANCH  16  20
BRANCH  17  22
HETATM   22  O   UNK N   1      19.783 -19.159  -0.162  0.00  0.00    -0.356 OA
HETATM   23  H   UNK N   1      19.031 -18.601  -0.122  0.00  0.00     0.218 HD
ENDBRANCH  17  22
BRANCH  18  24
HETATM   24  O   UNK N   1      22.003 -20.786  -0.061  0.00  0.00    -0.358 OA
HETATM   25  H   UNK N   1      21.150 -21.166   0.017  0.00  0.00     0.217 HD
ENDBRANCH  18  24
ENDBRANCH  12  14
ENDBRANCH  11  12
ENDBRANCH   2  11
BRANCH   3  26
HETATM   26  C   UNK N   1      24.344 -12.788   0.625  0.00  0.00    -0.021 A 
HETATM   27  C   UNK N   1      24.330 -11.392   0.515  0.00  0.00     0.049 A 
HETATM   28  C   UNK N   1      23.149 -10.715   0.201  0.00  0.00     0.102 A 
HETATM   29  C   UNK N   1      21.962 -11.432   0.002  0.00  0.00     0.132 A 
HETATM   30  C   UNK N   1      21.964 -12.828   0.124  0.00  0.00     0.102 A 
HETATM   31  C   UNK N   1      23.150 -13.501   0.431  0.00  0.00     0.049 A 
BRANCH  28  32
HETATM   32  O   UNK N   1      23.161  -9.376   0.084  0.00  0.00    -0.358 OA
HETATM   33  H   UNK N   1      23.973  -8.917   0.003  0.00  0.00     0.217 HD
ENDBRANCH  28  32
BRANCH  29  34
HETATM   34  O   UNK N   1      20.825 -10.783  -0.304  0.00  0.00    -0.356 OA
HETATM   35  H   UNK N   1      20.820  -9.871  -0.518  0.00  0.00     0.218 HD
ENDBRANCH  29  34
BRANCH  30  36
HETATM   36  O   UNK N   1      20.830 -13.525  -0.059  0.00  0.00    -0.358 OA
HETATM   37  H   UNK N   1      20.014 -13.084  -0.187  0.00  0.00     0.217 HD
ENDBRANCH  30  36
ENDBRANCH   3  26
BRANCH   5  38
HETATM   38  O   UNK N   1      29.545 -16.750   0.873  0.00  0.00    -0.360 OA
HETATM   39  H   UNK N   1      28.905 -17.315   1.259  0.00  0.00     0.217 HD
ENDBRANCH   5  38
BRANCH   6  40
HETATM   40  O   UNK N   1      31.014 -13.091  -1.763  0.00  0.00    -0.361 OA
HETATM   41  H   UNK N   1      31.710 -13.463  -2.268  0.00  0.00     0.217 HD
ENDBRANCH   6  40
TORSDOF 12
