REMARK  5 active torsions:
REMARK  status: ('A' for Active; 'I' for Inactive)
REMARK    1  A    between atoms: C_3  and  C_14 
REMARK    2  A    between atoms: C_14  and  O_15 
REMARK    3  A    between atoms: O_15  and  C_16 
REMARK    4  A    between atoms: C_19  and  C_22 
REMARK    5  A    between atoms: C_22  and  C_23 
ROOT
HETATM    1  C   UNK N   1      -1.527   0.286  -0.147  0.00  0.00     0.069 A 
HETATM    2  C   UNK N   1      -2.309  -0.023  -1.261  0.00  0.00     0.037 A 
HETATM    3  C   UNK N   1      -3.474   0.693  -1.513  0.00  0.00     0.010 A 
HETATM    4  C   UNK N   1      -3.848   1.729  -0.655  0.00  0.00    -0.056 A 
HETATM    5  C   UNK N   1      -3.033   2.087   0.424  0.00  0.00     0.010 A 
HETATM    6  C   UNK N   1      -1.866   1.373   0.672  0.00  0.00     0.037 A 
ENDROOT
BRANCH   1   7
HETATM    7  O   UNK N   1      -0.480  -0.504   0.135  0.00  0.00    -0.344 OA
BRANCH   7   8
HETATM    8  C   UNK N   1       0.317  -0.359   1.242  0.00  0.00     0.252 C 
BRANCH   8   9
HETATM    9  C   UNK N   1       1.632  -0.910   0.859  0.00  0.00     0.111 A 
HETATM   10  N   UNK N   1       1.786  -2.245   0.581  0.00  0.00    -0.306 N 
HETATM   11  C   UNK N   1       0.669  -3.172   0.761  0.00  0.00     0.161 C 
HETATM   12  C   UNK N   1       2.989  -2.716   0.105  0.00  0.00     0.261 A 
HETATM   13  C   UNK N   1       4.051  -1.825  -0.093  0.00  0.00     0.059 A 
HETATM   14  O   UNK N   1       3.124  -3.902  -0.159  0.00  0.00    -0.267 OA
HETATM   15  C   UNK N   1       5.285  -2.249  -0.602  0.00  0.00     0.019 A 
HETATM   16  C   UNK N   1       3.858  -0.466   0.219  0.00  0.00     0.049 A 
HETATM   17  C   UNK N   1       6.315  -1.324  -0.798  0.00  0.00     0.001 A 
HETATM   18  C   UNK N   1       6.118   0.024  -0.483  0.00  0.00     0.002 A 
HETATM   19  C   UNK N   1       4.890   0.453   0.025  0.00  0.00     0.030 A 
HETATM   20  N   UNK N   1       2.661  -0.046   0.683  0.00  0.00    -0.343 N 
ATOM     21  HN  UNK N   1       2.529   0.941   0.905  1.00  0.00     0.167 HD
ENDBRANCH   8   9
ENDBRANCH   7   8
ENDBRANCH   1   7
BRANCH   4  22
HETATM   22  C   UNK N   1      -5.236   2.241  -0.725  0.00  0.00     0.063 C 
BRANCH  22  23
HETATM   23  C   UNK N   1      -6.023   1.678   0.474  0.00  0.00     0.153 A 
HETATM   24  C   UNK N   1      -6.021   0.162   0.512  0.00  0.00     0.239 A 
HETATM   25  O   UNK N   1      -5.008  -0.497   0.693  0.00  0.00    -0.272 OA
HETATM   26  N   UNK N   1      -7.202  -0.435   0.342  0.00  0.00    -0.287 N 
HETATM   27  C   UNK N   1      -8.208   0.429   0.197  0.00  0.00     0.287 A 
HETATM   28  H   UNK N   1      -7.319  -1.412   0.326  0.00  0.00     0.172 HD
HETATM   29  O   UNK N   1      -9.350   0.047   0.012  0.00  0.00    -0.260 OA
HETATM   30  S   UNK N   1      -7.785   2.165   0.318  0.00  0.00    -0.054 SA
ENDBRANCH  22  23
ENDBRANCH   4  22
TORSDOF 5
