REMARK  11 active torsions:
REMARK  status: ('A' for Active; 'I' for Inactive)
REMARK    1  A    between atoms: C_2  and  C_3 
REMARK    2  A    between atoms: C_5  and  C_16 
REMARK    3  A    between atoms: C_8  and  O_9 
REMARK    4  A    between atoms: O_9  and  C_10 
REMARK    5  A    between atoms: C_10  and  C_11 
REMARK    6  A    between atoms: C_11  and  C_12 
REMARK    7  A    between atoms: C_11  and  O_14 
REMARK    8  A    between atoms: C_12  and  O_13 
REMARK    9  A    between atoms: C_19  and  C_23 
REMARK   10  A    between atoms: C_25  and  C_32 
REMARK   11  A    between atoms: C_28  and  O_30 
ROOT
HETATM    1  C   UNK N   1      -0.365  -1.486   0.306  0.00  0.00     0.138 A 
HETATM    2  N   UNK N   1       0.712  -2.233   0.515  0.00  0.00    -0.319 N 
ATOM      3  HN  UNK N   1       1.653  -1.919   0.755  1.00  0.00     0.169 HD
HETATM    4  C   UNK N   1       0.288  -3.482   0.340  0.00  0.00     0.182 A 
HETATM    5  O   UNK N   1      -0.997  -3.491   0.052  0.00  0.00    -0.217 OA
HETATM    6  N   UNK N   1      -1.441  -2.257   0.023  0.00  0.00    -0.242 N 
ATOM      7  HN  UNK N   1      -2.392  -1.946  -0.171  1.00  0.00     0.196 HD
ENDROOT
BRANCH   1   8
HETATM    8  C   UNK N   1      -0.218  -0.031   0.223  0.00  0.00     0.011 A 
HETATM    9  C   UNK N   1       1.074   0.459   0.407  0.00  0.00     0.025 A 
HETATM   10  C   UNK N   1       1.403   1.784   0.216  0.00  0.00    -0.024 A 
HETATM   11  C   UNK N   1       0.394   2.693  -0.181  0.00  0.00     0.081 A 
HETATM   12  C   UNK N   1      -0.949   2.202  -0.345  0.00  0.00    -0.027 A 
HETATM   13  C   UNK N   1      -1.233   0.840  -0.151  0.00  0.00     0.025 A 
HETATM   14  C   UNK N   1      -2.093   3.076  -0.730  0.00  0.00     0.051 C 
BRANCH  10  15
HETATM   15  C   UNK N   1       2.863   2.121   0.426  0.00  0.00     0.037 C 
HETATM   16  C   UNK N   1       3.346   3.492  -0.010  0.00  0.00     0.010 C 
ENDBRANCH  10  15
BRANCH  11  17
HETATM   17  O   UNK N   1       0.744   3.991  -0.383  0.00  0.00    -0.347 OA
BRANCH  17  18
HETATM   18  C   UNK N   1      -0.037   4.957  -0.964  0.00  0.00     0.209 C 
BRANCH  18  19
HETATM   19  C   UNK N   1      -0.484   5.938   0.093  0.00  0.00     0.166 C 
BRANCH  19  20
HETATM   20  C   UNK N   1      -1.660   6.725  -0.437  0.00  0.00     0.198 C 
BRANCH  20  21
HETATM   21  O   UNK N   1      -2.286   7.392   0.614  0.00  0.00    -0.398 OA
HETATM   22  H   UNK N   1      -2.102   8.001   1.346  0.00  0.00     0.209 HD
ENDBRANCH  20  21
ENDBRANCH  19  20
BRANCH  19  23
HETATM   23  O   UNK N   1       0.566   6.797   0.422  0.00  0.00    -0.391 OA
HETATM   24  H   UNK N   1       1.448   6.464   0.651  0.00  0.00     0.210 HD
ENDBRANCH  19  23
ENDBRANCH  18  19
ENDBRANCH  17  18
ENDBRANCH  11  17
ENDBRANCH   1   8
BRANCH   4  25
HETATM   25  C   UNK N   1       1.277  -4.561   0.304  0.00  0.00     0.023 A 
HETATM   26  C   UNK N   1       2.588  -4.148   0.494  0.00  0.00     0.041 A 
HETATM   27  C   UNK N   1       3.647  -5.004   0.325  0.00  0.00     0.016 A 
HETATM   28  N   UNK N   1       3.408  -6.303  -0.011  0.00  0.00    -0.340 N 
HETATM   29  C   UNK N   1       2.132  -6.774  -0.178  0.00  0.00     0.142 A 
ATOM     30  HN  UNK N   1       4.196  -6.938  -0.142  1.00  0.00     0.167 HD
HETATM   31  C   UNK N   1       1.028  -5.892  -0.038  0.00  0.00     0.072 A 
BRANCH  27  32
HETATM   32  C   UNK N   1       5.025  -4.427   0.490  0.00  0.00     0.036 C 
HETATM   33  C   UNK N   1       5.229  -3.192  -0.365  0.00  0.00     0.011 C 
HETATM   34  C   UNK N   1       6.725  -2.987  -0.364  0.00  0.00     0.001 C 
HETATM   35  C   UNK N   1       7.330  -4.365  -0.124  0.00  0.00     0.001 C 
HETATM   36  C   UNK N   1       6.171  -5.326   0.106  0.00  0.00     0.011 C 
ENDBRANCH  27  32
BRANCH  29  37
HETATM   37  O   UNK N   1       1.955  -8.080  -0.489  0.00  0.00    -0.341 OA
HETATM   38  C   UNK N   1       0.717  -8.657  -0.654  0.00  0.00     0.211 C 
ENDBRANCH  29  37
ENDBRANCH   4  25
TORSDOF 11
