REMARK  1 active torsions:
REMARK  status: ('A' for Active; 'I' for Inactive)
REMARK    1  A    between atoms: C_10  and  O_13 
ROOT
HETATM    1  C   UNK N   1       4.934   1.443   1.945  0.00  0.00     0.020 C 
HETATM    2  C   UNK N   1       4.537   1.240   0.484  0.00  0.00     0.003 C 
HETATM    3  C   UNK N   1       3.425   2.283   0.239  0.00  0.00     0.014 C 
HETATM    4  C   UNK N   1       2.568   2.011  -0.994  0.00  0.00     0.006 C 
HETATM    5  C   UNK N   1       1.904   0.640  -0.893  0.00  0.00    -0.002 C 
HETATM    6  C   UNK N   1       3.009  -0.414  -0.850  0.00  0.00    -0.005 C 
HETATM    7  C   UNK N   1       4.018  -0.215   0.313  0.00  0.00     0.002 C 
HETATM    8  C   UNK N   1       5.257  -0.946  -0.156  0.00  0.00     0.010 C 
HETATM    9  C   UNK N   1       5.800   0.020  -1.201  0.00  0.00     0.052 C 
HETATM   10  C   UNK N   1       5.785   1.342  -0.470  0.00  0.00     0.128 C 
HETATM   11  C   UNK N   1       7.117   1.385   0.172  0.00  0.00    -0.078 C 
HETATM   12  C   UNK N   1       8.237   1.412   0.620  0.00  0.00     0.015 C 
HETATM   13  C   UNK N   1       2.418  -1.834  -0.846  0.00  0.00     0.009 C 
HETATM   14  C   UNK N   1       1.488  -2.043   0.351  0.00  0.00     0.034 C 
HETATM   15  C   UNK N   1       0.473  -0.945   0.369  0.00  0.00    -0.079 C 
HETATM   16  C   UNK N   1      -0.834  -1.249   0.343  0.00  0.00    -0.024 C 
HETATM   17  C   UNK N   1      -1.898  -0.187   0.306  0.00  0.00     0.027 C 
HETATM   18  C   UNK N   1      -1.380   1.076  -0.371  0.00  0.00     0.004 C 
HETATM   19  C   UNK N   1      -0.133   1.545   0.363  0.00  0.00     0.010 C 
HETATM   20  C   UNK N   1       0.980   0.487   0.328  0.00  0.00     0.019 C 
ENDROOT
BRANCH  10  21
HETATM   21  O   UNK N   1       5.682   2.412  -1.363  0.00  0.00    -0.377 OA
HETATM   22  H   UNK N   1       6.290   2.844  -1.983  0.00  0.00     0.211 HD
ENDBRANCH  10  21
TORSDOF 1
