REMARK  7 active torsions:
REMARK  status: ('A' for Active; 'I' for Inactive)
REMARK    1  A    between atoms: C_2  and  C_3 
REMARK    2  A    between atoms: C_2  and  N_11 
REMARK    3  A    between atoms: C_3  and  C_4 
REMARK    4  A    between atoms: C_3  and  O_10 
REMARK    5  A    between atoms: N_11  and  C_12 
REMARK    6  A    between atoms: C_12  and  C_13 
REMARK    7  A    between atoms: C_13  and  N_14 
ROOT
HETATM    1  C   UNK N   1      -1.384  -2.055   0.846  0.00  0.00     0.149 C 
ENDROOT
BRANCH   1   2
HETATM    2  C   UNK N   1      -2.085  -1.234  -0.225  0.00  0.00     0.134 C 
BRANCH   2   3
HETATM    3  N   UNK N   1      -3.240  -0.579   0.384  0.00  0.00    -0.413 N 
HETATM    4  H   UNK N   1      -3.208   0.369   0.758  0.00  0.00     0.153 HD
BRANCH   3   5
HETATM    5  C   UNK N   1      -4.457  -1.411   0.409  0.00  0.00     0.105 C 
HETATM    6  C   UNK N   1      -4.202  -2.924   0.426  0.00  0.00     0.035 C 
BRANCH   5   7
HETATM    7  C   UNK N   1      -5.474  -0.967  -0.650  0.00  0.00     0.173 C 
BRANCH   7   8
HETATM    8  C   UNK N   1      -6.810  -1.629  -0.404  0.00  0.00    -0.028 A 
HETATM    9  C   UNK N   1      -6.958  -3.008  -0.616  0.00  0.00     0.010 A 
HETATM   10  C   UNK N   1      -8.177  -3.638  -0.357  0.00  0.00     0.001 A 
HETATM   11  C   UNK N   1      -9.260  -2.894   0.118  0.00  0.00     0.000 A 
HETATM   12  C   UNK N   1      -9.126  -1.519   0.324  0.00  0.00     0.001 A 
HETATM   13  C   UNK N   1      -7.908  -0.887   0.062  0.00  0.00     0.010 A 
ENDBRANCH   7   8
BRANCH   7  14
HETATM   14  O   UNK N   1      -5.605   0.426  -0.598  0.00  0.00    -0.389 OA
HETATM   15  H   UNK N   1      -4.814   0.987  -0.562  0.00  0.00     0.210 HD
ENDBRANCH   7  14
ENDBRANCH   5   7
ENDBRANCH   3   5
ENDBRANCH   2   3
ENDBRANCH   1   2
BRANCH   1  16
HETATM   16  N   UNK N   1      -0.062  -2.485   0.427  0.00  0.00    -0.334 N 
HETATM   17  C   UNK N   1       0.328  -3.768   0.235  0.00  0.00     0.185 A 
HETATM   18  N   UNK N   1       1.649  -3.838  -0.085  0.00  0.00    -0.336 N 
HETATM   19  C   UNK N   1       2.061  -2.556  -0.074  0.00  0.00     0.145 A 
ATOM     20  HN  UNK N   1       2.201  -4.672  -0.286  1.00  0.00     0.168 HD
HETATM   21  C   UNK N   1       1.033  -1.737   0.228  0.00  0.00     0.149 A 
HETATM   22  N   UNK N   1       3.316  -2.098  -0.303  0.00  0.00    -0.287 N 
HETATM   23  C   UNK N   1       1.222  -0.363   0.309  0.00  0.00     0.282 A 
HETATM   24  O   UNK N   1       0.296   0.383   0.584  0.00  0.00    -0.265 OA
HETATM   25  N   UNK N   1       2.490   0.134   0.072  0.00  0.00    -0.269 N 
HETATM   26  C   UNK N   1       3.540  -0.731  -0.229  0.00  0.00     0.332 A 
HETATM   27  C   UNK N   1       2.730   1.573   0.147  0.00  0.00     0.164 C 
HETATM   28  O   UNK N   1       4.660  -0.287  -0.424  0.00  0.00    -0.246 OA
HETATM   29  C   UNK N   1       4.398  -3.027  -0.606  0.00  0.00     0.163 C 
ENDBRANCH   1  16
TORSDOF 7
