REMARK  3 active torsions:
REMARK  status: ('A' for Active; 'I' for Inactive)
REMARK    1  A    between atoms: C_2  and  C_3 
REMARK    2  A    between atoms: C_2  and  N_14 
REMARK    3  A    between atoms: C_3  and  C_5 
ROOT
HETATM    1  C   UNK N   1       3.527   2.066  -0.000  0.00  0.00     0.015 A 
HETATM    2  C   UNK N   1       3.471   0.650  -0.000  0.00  0.00     0.018 A 
HETATM    3  C   UNK N   1       2.241  -0.025  -0.000  0.00  0.00     0.040 A 
HETATM    4  C   UNK N   1       1.089   0.747  -0.000  0.00  0.00     0.105 A 
HETATM    5  C   UNK N   1       1.119   2.084  -0.000  0.00  0.00     0.105 A 
HETATM    6  C   UNK N   1       2.317   2.801  -0.000  0.00  0.00     0.055 A 
HETATM    7  O   UNK N   1      -0.128   2.550   0.000  0.00  0.00    -0.323 OA
HETATM    8  C   UNK N   1      -1.007   1.460   0.000  0.00  0.00     0.352 A 
HETATM    9  O   UNK N   1      -0.177   0.335   0.000  0.00  0.00    -0.323 OA
ENDROOT
BRANCH   1  10
HETATM   10  C   UNK N   1       4.835   2.777  -0.000  0.00  0.00     0.181 C 
HETATM   11  O   UNK N   1       4.844   3.999  -0.000  0.00  0.00    -0.290 OA
BRANCH  10  12
HETATM   12  C   UNK N   1       6.164   2.050   0.000  0.00  0.00     0.145 C 
HETATM   13  C   UNK N   1       7.485   2.794  -0.000  0.00  0.00     0.040 C 
BRANCH  12  14
HETATM   14  N   UNK N   1       6.231   0.598  -0.000  0.00  0.00    -0.420 N 
HETATM   15  H   UNK N   1       5.372   0.048  -0.000  0.00  0.00     0.150 HD
HETATM   16  H   UNK N   1       7.136   0.129  -0.000  0.00  0.00     0.150 HD
ENDBRANCH  12  14
ENDBRANCH  10  12
ENDBRANCH   1  10
TORSDOF 3
