REMARK  3 active torsions:
REMARK  status: ('A' for Active; 'I' for Inactive)
REMARK    1  A    between atoms: C_2  and  N_3 
REMARK    2  A    between atoms: C_9  and  C_12 
REMARK    3  A    between atoms: C_15  and  C_20 
ROOT
HETATM    1  N   UNK N   1      -1.723  -1.298   0.173  0.00  0.00    -0.300 N 
HETATM    2  C   UNK N   1      -0.462  -0.639   0.085  0.00  0.00     0.155 A 
HETATM    3  C   UNK N   1      -0.392   0.746  -0.065  0.00  0.00     0.146 A 
HETATM    4  N   UNK N   1       0.823   1.354  -0.143  0.00  0.00    -0.347 N 
ATOM      5  HN  UNK N   1       0.871   2.368  -0.240  1.00  0.00     0.167 HD
HETATM    6  C   UNK N   1       1.975   0.629  -0.095  0.00  0.00     0.120 A 
HETATM    7  C   UNK N   1       1.914  -0.766   0.041  0.00  0.00     0.061 A 
HETATM    8  N   UNK N   1       0.692  -1.353   0.135  0.00  0.00    -0.337 N 
ATOM      9  HN  UNK N   1       0.639  -2.365   0.247  1.00  0.00     0.167 HD
HETATM   10  N   UNK N   1      -1.577   1.510  -0.141  0.00  0.00    -0.364 N 
HETATM   11  C   UNK N   1      -2.896   0.913  -0.088  0.00  0.00     0.224 A 
HETATM   12  C   UNK N   1      -2.888  -0.588   0.093  0.00  0.00     0.243 A 
HETATM   13  O   UNK N   1      -3.963  -1.167   0.166  0.00  0.00    -0.271 OA
HETATM   14  H   UNK N   1      -1.504   2.487  -0.234  0.00  0.00     0.161 HD
ENDROOT
BRANCH   7  15
HETATM   15  C   UNK N   1       3.152  -1.603   0.044  0.00  0.00     0.014 A 
HETATM   16  C   UNK N   1       4.408  -0.980  -0.057  0.00  0.00     0.018 A 
HETATM   17  C   UNK N   1       5.579  -1.741  -0.079  0.00  0.00     0.034 A 
HETATM   18  C   UNK N   1       5.493  -3.133  -0.004  0.00  0.00     0.078 A 
HETATM   19  N   UNK N   1       4.278  -3.726   0.094  0.00  0.00    -0.356 N 
HETATM   20  C   UNK N   1       3.119  -3.022   0.122  0.00  0.00     0.018 A 
ATOM     21  HN  UNK N   1       4.233  -4.744   0.149  1.00  0.00     0.166 HD
HETATM   22  C   UNK N   1       1.852  -3.799   0.227  0.00  0.00     0.069 C 
BRANCH  18  23
HETATM   23  C   UNK N   1       6.693  -3.977  -0.027  0.00  0.00     0.148 A 
HETATM   24  N   UNK N   1       7.955  -3.520  -0.104  0.00  0.00    -0.335 N 
HETATM   25  C   UNK N   1       8.701  -4.645  -0.091  0.00  0.00     0.199 A 
HETATM   26  H   UNK N   1       8.263  -2.586  -0.157  0.00  0.00     0.168 HD
HETATM   27  N   UNK N   1       7.912  -5.736  -0.009  0.00  0.00    -0.294 N 
HETATM   28  N   UNK N   1       6.659  -5.318   0.030  0.00  0.00    -0.283 N 
ATOM     29  HN  UNK N   1       8.225  -6.706   0.016  1.00  0.00     0.187 HD
ATOM     30  HN  UNK N   1       5.826  -5.903   0.093  1.00  0.00     0.188 HD
ENDBRANCH  18  23
ENDBRANCH   7  15
BRANCH   1  31
HETATM   31  C   UNK N   1      -1.775  -2.736   0.373  0.00  0.00     0.129 C 
HETATM   32  C   UNK N   1      -1.263  -3.476  -0.851  0.00  0.00     0.027 C 
ENDBRANCH   1  31
TORSDOF 3
