REMARK  5 active torsions:
REMARK  status: ('A' for Active; 'I' for Inactive)
REMARK    1  A    between atoms: C_3  and  N_17 
REMARK    2  A    between atoms: C_9  and  N_8 
REMARK    3  A    between atoms: C_11  and  O_16 
REMARK    4  A    between atoms: C_12  and  C_14 
REMARK    5  A    between atoms: C_14  and  O_15 
ROOT
HETATM    1  C   UNK N   1       1.634   1.417   0.073  0.00  0.00     0.126 A 
HETATM    2  C   UNK N   1       1.495   2.796  -0.067  0.00  0.00     0.093 A 
HETATM    3  C   UNK N   1       2.642   3.589  -0.100  0.00  0.00     0.126 A 
HETATM    4  N   UNK N   1       3.862   3.007   0.002  0.00  0.00    -0.293 N 
ATOM      5  HN  UNK N   1       4.699   3.590  -0.030  1.00  0.00     0.172 HD
HETATM    6  C   UNK N   1       3.993   1.652   0.147  0.00  0.00     0.330 A 
HETATM    7  O   UNK N   1       5.111   1.178   0.272  0.00  0.00    -0.246 OA
HETATM    8  N   UNK N   1       2.868   0.839   0.171  0.00  0.00    -0.281 N 
HETATM    9 Cl   UNK N   1      -0.108   3.505  -0.168  0.00  0.00    -0.079 Cl
ENDROOT
BRANCH   8  10
HETATM   10  C   UNK N   1       2.936  -0.612   0.446  0.00  0.00     0.235 C 
HETATM   11  C   UNK N   1       4.170  -1.327  -0.057  0.00  0.00     0.088 C 
HETATM   12  C   UNK N   1       3.700  -2.714   0.172  0.00  0.00     0.153 C 
HETATM   13  C   UNK N   1       2.282  -2.610  -0.346  0.00  0.00     0.176 C 
HETATM   14  O   UNK N   1       1.808  -1.317  -0.035  0.00  0.00    -0.356 OA
BRANCH  12  15
HETATM   15  O   UNK N   1       4.451  -3.636  -0.554  0.00  0.00    -0.393 OA
HETATM   16  H   UNK N   1       4.156  -4.410  -1.059  0.00  0.00     0.210 HD
ENDBRANCH  12  15
BRANCH  13  17
HETATM   17  C   UNK N   1       1.395  -3.669   0.293  0.00  0.00     0.198 C 
BRANCH  17  18
HETATM   18  O   UNK N   1       1.850  -4.949  -0.031  0.00  0.00    -0.398 OA
HETATM   19  H   UNK N   1       1.239  -5.667  -0.256  0.00  0.00     0.209 HD
ENDBRANCH  17  18
ENDBRANCH  13  17
ENDBRANCH   8  10
BRANCH   3  20
HETATM   20  N   UNK N   1       2.545   4.990  -0.218  0.00  0.00    -0.384 N 
HETATM   21  H   UNK N   1       3.359   5.538  -0.300  0.00  0.00     0.157 HD
HETATM   22  H   UNK N   1       1.661   5.423  -0.218  0.00  0.00     0.157 HD
ENDBRANCH   3  20
TORSDOF 5
