REMARK  1 active torsions:
REMARK  status: ('A' for Active; 'I' for Inactive)
REMARK    1  A    between atoms: C_17  and  C_14 
ROOT
HETATM    1  C   UNK N   1       5.753  -1.635   0.449  0.00  0.00     0.310 C 
HETATM    2  C   UNK N   1       0.649  -0.346   0.087  0.00  0.00     0.001 A 
HETATM    3  C   UNK N   1       0.392   0.989   0.388  0.00  0.00     0.001 A 
HETATM    4  C   UNK N   1       1.929  -0.737  -0.303  0.00  0.00     0.009 A 
HETATM    5  C   UNK N   1       1.416   1.933   0.297  0.00  0.00     0.011 A 
HETATM    6  C   UNK N   1       6.372   0.570  -0.015  0.00  0.00     0.298 C 
HETATM    7  C   UNK N   1       5.971   2.041  -0.101  0.00  0.00     0.199 C 
HETATM    8  C   UNK N   1       4.312  -0.297  -0.824  0.00  0.00     0.311 C 
HETATM    9  C   UNK N   1       2.967   0.200  -0.392  0.00  0.00    -0.021 A 
HETATM   10  C   UNK N   1       2.714   1.567  -0.092  0.00  0.00    -0.017 A 
HETATM   11  C   UNK N   1       3.831   2.612  -0.200  0.00  0.00     0.188 C 
HETATM   12  N   UNK N   1       5.236  -0.287   0.303  0.00  0.00     0.090 N 
HETATM   13  O   UNK N   1       4.857   2.309   0.705  0.00  0.00    -0.375 OA
ENDROOT
BRANCH  11  14
HETATM   14  C   UNK N   1       3.513   4.101  -0.117  0.00  0.00    -0.025 A 
HETATM   15  C   UNK N   1       2.213   4.602   0.054  0.00  0.00     0.010 A 
HETATM   16  C   UNK N   1       1.977   5.977   0.121  0.00  0.00     0.001 A 
HETATM   17  C   UNK N   1       3.043   6.872   0.021  0.00  0.00     0.000 A 
HETATM   18  C   UNK N   1       4.342   6.391  -0.154  0.00  0.00     0.001 A 
HETATM   19  C   UNK N   1       4.574   5.014  -0.228  0.00  0.00     0.010 A 
ENDBRANCH  11  14
TORSDOF 1
