REMARK  5 active torsions:
REMARK  status: ('A' for Active; 'I' for Inactive)
REMARK    1  A    between atoms: C_2  and  C_3 
REMARK    2  A    between atoms: C_3  and  C_4 
REMARK    3  A    between atoms: C_4  and  N_5 
REMARK    4  A    between atoms: C_8  and  N_13 
REMARK    5  A    between atoms: C_16  and  C_19 
ROOT
HETATM    1  N   UNK N   1       0.958  -2.297  -0.316  0.00  0.00    -0.323 N 
HETATM    2  C   UNK N   1       2.075  -3.051  -0.477  0.00  0.00     0.096 A 
HETATM    3  C   UNK N   1       1.989  -4.439  -0.550  0.00  0.00     0.048 A 
HETATM    4  C   UNK N   1       0.750  -5.090  -0.453  0.00  0.00     0.059 A 
HETATM    5  C   UNK N   1      -0.419  -4.286  -0.304  0.00  0.00     0.128 A 
HETATM    6  C   UNK N   1      -0.287  -2.888  -0.242  0.00  0.00     0.271 A 
HETATM    7  O   UNK N   1      -1.285  -2.197  -0.119  0.00  0.00    -0.266 OA
HETATM    8 Cl   UNK N   1      -2.061  -4.942  -0.208  0.00  0.00    -0.076 Cl
ENDROOT
BRANCH   4   9
HETATM    9  N   UNK N   1       0.726  -6.531  -0.478  0.00  0.00    -0.379 N 
HETATM   10  C   UNK N   1       1.939  -7.287  -0.715  0.00  0.00     0.123 C 
HETATM   11  C   UNK N   1       2.318  -8.056   0.554  0.00  0.00     0.029 C 
HETATM   12  C   UNK N   1       1.132  -8.836   1.156  0.00  0.00     0.021 C 
HETATM   13  C   UNK N   1      -0.123  -7.955   1.259  0.00  0.00     0.029 C 
HETATM   14  C   UNK N   1      -0.431  -7.289  -0.077  0.00  0.00     0.123 C 
BRANCH  12  15
HETATM   15  C   UNK N   1       0.894 -10.177   0.505  0.00  0.00    -0.054 A 
HETATM   16  C   UNK N   1       1.924 -11.128   0.498  0.00  0.00     0.007 A 
HETATM   17  C   UNK N   1       1.709 -12.398  -0.045  0.00  0.00     0.001 A 
HETATM   18  C   UNK N   1       0.460 -12.730  -0.577  0.00  0.00     0.000 A 
HETATM   19  C   UNK N   1      -0.574 -11.791  -0.571  0.00  0.00     0.001 A 
HETATM   20  C   UNK N   1      -0.360 -10.521  -0.029  0.00  0.00     0.007 A 
ENDBRANCH  12  15
ENDBRANCH   4   9
BRANCH   1  21
HETATM   21  C   UNK N   1       1.105  -0.844  -0.251  0.00  0.00     0.131 C 
BRANCH  21  22
HETATM   22  C   UNK N   1       0.633  -0.311   1.097  0.00  0.00     0.020 C 
BRANCH  22  23
HETATM   23  C   UNK N   1      -0.041   1.040   0.925  0.00  0.00    -0.003 C 
HETATM   24  C   UNK N   1      -1.411   0.876   0.291  0.00  0.00     0.005 C 
ENDBRANCH  22  23
ENDBRANCH  21  22
ENDBRANCH   1  21
TORSDOF 5
