REMARK  4 active torsions:
REMARK  status: ('A' for Active; 'I' for Inactive)
REMARK    1  A    between atoms: C_16  and  C_14 
REMARK    2  A    between atoms: C_21  and  C_14 
REMARK    3  A    between atoms: C_19  and  N_25 
REMARK    4  A    between atoms: C_20  and  N_26 
REMARK       I    between atoms: N_25  and  C_21 
ROOT
HETATM    1  C   UNK N   1      -2.731   0.488  -0.300  0.00  0.00     0.029 C 
HETATM    2  C   UNK N   1       1.947   1.385   0.040  0.00  0.00     0.030 C 
HETATM    3  C   UNK N   1      -1.510   0.236  -1.120  0.00  0.00     0.040 C 
HETATM    4  C   UNK N   1       0.664   1.361  -0.783  0.00  0.00     0.040 C 
HETATM    5  C   UNK N   1      -2.199   1.403   0.766  0.00  0.00     0.168 C 
HETATM    6  C   UNK N   1       0.219  -0.948   0.221  0.00  0.00     0.076 C 
HETATM    7  C   UNK N   1       2.558  -0.019   0.246  0.00  0.00     0.120 C 
HETATM    8  C   UNK N   1       1.641  -1.170  -0.320  0.00  0.00     0.248 C 
HETATM    9  C   UNK N   1      -0.370   0.431  -0.140  0.00  0.00     0.063 C 
HETATM   10  O   UNK N   1      -0.873   1.028   1.036  0.00  0.00    -0.380 OA
ENDROOT
BRANCH   7  11
HETATM   11  N   UNK N   1       3.930   0.000  -0.265  0.00  0.00    -0.349 N 
HETATM   12  C   UNK N   1       4.241  -0.569  -1.559  0.00  0.00     0.153 C 
HETATM   13  C   UNK N   1       4.912   0.654   0.427  0.00  0.00     0.224 C 
HETATM   14  O   UNK N   1       4.662   1.173   1.510  0.00  0.00    -0.273 OA
BRANCH  13  15
HETATM   15  C   UNK N   1       6.319   0.743  -0.105  0.00  0.00     0.141 C 
BRANCH  15  16
HETATM   16  C   UNK N   1       6.811   2.152  -0.284  0.00  0.00    -0.048 A 
HETATM   17  C   UNK N   1       8.178   2.366  -0.476  0.00  0.00     0.009 A 
HETATM   18  C   UNK N   1       8.679   3.666  -0.578  0.00  0.00     0.026 A 
HETATM   19  C   UNK N   1       7.816   4.763  -0.493  0.00  0.00     0.055 A 
HETATM   20  C   UNK N   1       6.438   4.555  -0.320  0.00  0.00     0.056 A 
HETATM   21 Cl   UNK N   1       8.488   6.382  -0.589  0.00  0.00    -0.083 Cl
HETATM   22  C   UNK N   1       5.943   3.254  -0.214  0.00  0.00     0.033 A 
HETATM   23 Cl   UNK N   1       5.314   5.900  -0.213  0.00  0.00    -0.083 Cl
ENDBRANCH  15  16
ENDBRANCH  13  15
ENDBRANCH   7  11
BRANCH   8  24
HETATM   24  N   UNK N   1       2.054  -2.551   0.033  0.00  0.00     0.095 N 
HETATM   25  C   UNK N   1       2.590  -2.700   1.382  0.00  0.00     0.273 C 
HETATM   26  C   UNK N   1       3.532  -3.879   1.346  0.00  0.00     0.032 C 
HETATM   27  C   UNK N   1       4.024  -3.934  -0.079  0.00  0.00     0.032 C 
HETATM   28  C   UNK N   1       3.036  -3.115  -0.886  0.00  0.00     0.273 C 
ENDBRANCH   8  24
TORSDOF 4
