REMARK  10 active torsions:
REMARK  status: ('A' for Active; 'I' for Inactive)
REMARK    1  A    between atoms: P_4  and  N_15 
REMARK    2  A    between atoms: C_7  and  S_8 
REMARK    3  A    between atoms: S_8  and  C_9 
REMARK    4  A    between atoms: C_9  and  C_10 
REMARK    5  A    between atoms: C_10  and  S_11 
REMARK    6  A    between atoms: S_11  and  O_14 
REMARK    7  A    between atoms: N_15  and  C_16 
REMARK    8  A    between atoms: N_15  and  C_19 
REMARK    9  A    between atoms: C_16  and  C_17 
REMARK   10  A    between atoms: C_19  and  C_20 
ROOT
HETATM    1  C   UNK N   1       3.605  -0.893  -0.338  0.00  0.00     0.063 C 
HETATM    2  C   UNK N   1       2.139  -1.269  -0.555  0.00  0.00     0.182 C 
HETATM    3  O   UNK N   1       1.338  -0.506   0.322  0.00  0.00    -0.307 OA
HETATM    4  P   UNK N   1       1.105   1.057  -0.450  0.00  0.00     0.366 P 
HETATM    5  O   UNK N   1      -0.031   1.036   0.613  0.00  0.00    -0.248 OA
HETATM    6  N   UNK N   1       2.611   1.134   0.563  0.00  0.00    -0.325 N 
HETATM    7  C   UNK N   1       3.670   0.630  -0.302  0.00  0.00     0.150 C 
HETATM    8  H   UNK N   1       2.696   1.459   1.526  0.00  0.00     0.165 HD
ENDROOT
BRANCH   4   9
HETATM    9  N   UNK N   1       1.227   2.807   0.075  0.00  0.00    -0.221 NA
BRANCH   9  10
HETATM   10  C   UNK N   1       0.017   3.505  -0.360  0.00  0.00     0.116 C 
BRANCH  10  11
HETATM   11  C   UNK N   1      -0.201   4.756   0.473  0.00  0.00     0.129 C 
HETATM   12 Cl   UNK N   1      -1.641   5.614  -0.115  0.00  0.00    -0.129 Cl
ENDBRANCH  10  11
ENDBRANCH   9  10
BRANCH   9  13
HETATM   13  C   UNK N   1       2.315   3.470  -0.653  0.00  0.00     0.116 C 
BRANCH  13  14
HETATM   14  C   UNK N   1       3.093   4.358   0.302  0.00  0.00     0.129 C 
HETATM   15 Cl   UNK N   1       4.564   4.965  -0.491  0.00  0.00    -0.129 Cl
ENDBRANCH  13  14
ENDBRANCH   9  13
ENDBRANCH   4   9
BRANCH   7  16
HETATM   16  S   UNK N   1       5.276   1.419   0.085  0.00  0.00    -0.143 SA
BRANCH  16  17
HETATM   17  C   UNK N   1       6.108   0.020   0.881  0.00  0.00     0.092 C 
BRANCH  17  18
HETATM   18  C   UNK N   1       7.085  -0.563  -0.127  0.00  0.00     0.165 C 
BRANCH  18  19
HETATM   19  S   UNK N   1       8.361  -1.545   0.710  0.00  0.00     0.094 S 
HETATM   20  O   UNK N   1       9.308  -2.331  -0.206  0.00  0.00    -0.601 OA
HETATM   21  O   UNK N   1       9.001  -0.349  -0.012  0.00  0.00    -0.601 OA
BRANCH  19  22
HETATM   22  O   UNK N   1       7.293  -2.298  -0.404  0.00  0.00    -0.296 OA
HETATM   23  H   UNK N   1       6.623  -1.988  -1.033  0.00  0.00     0.232 HD
ENDBRANCH  19  22
ENDBRANCH  18  19
ENDBRANCH  17  18
ENDBRANCH  16  17
ENDBRANCH   7  16
TORSDOF 10
