REMARK  7 active torsions:
REMARK  status: ('A' for Active; 'I' for Inactive)
REMARK    1  A    between atoms: C_4  and  O_7 
REMARK    2  A    between atoms: O_7  and  C_8 
REMARK    3  A    between atoms: C_11  and  C_14 
REMARK    4  A    between atoms: C_14  and  N_15 
REMARK       I    between atoms: N_15  and  C_16 
REMARK    5  A    between atoms: C_16  and  C_18 
REMARK    6  A    between atoms: C_21  and  C_25 
REMARK    7  A    between atoms: C_28  and  O_32 
ROOT
HETATM    1  N   UNK N   1       0.989   1.475  -0.576  0.00  0.00    -0.350 N 
HETATM    2  C   UNK N   1       1.770   0.541  -0.005  0.00  0.00     0.295 C 
HETATM    3  O   UNK N   1       2.722   0.865   0.691  0.00  0.00    -0.264 OA
HETATM    4  H   UNK N   1       0.353   1.199  -1.275  0.00  0.00     0.163 HD
ENDROOT
BRANCH   2   5
HETATM    5  C   UNK N   1       1.440  -0.872  -0.179  0.00  0.00     0.240 A 
HETATM    6  N   UNK N   1       2.260  -1.867   0.173  0.00  0.00    -0.315 N 
HETATM    7  C   UNK N   1       1.547  -2.966  -0.128  0.00  0.00     0.138 A 
ATOM      8  HN  UNK N   1       3.196  -1.807   0.574  1.00  0.00     0.169 HD
HETATM    9  N   UNK N   1       0.338  -2.646  -0.631  0.00  0.00    -0.242 N 
HETATM   10  O   UNK N   1       0.309  -1.345  -0.654  0.00  0.00    -0.212 OA
ATOM     11  HN  UNK N   1      -0.398  -3.287  -0.930  1.00  0.00     0.196 HD
BRANCH   7  12
HETATM   12  C   UNK N   1       2.104  -4.312  -0.015  0.00  0.00     0.013 A 
HETATM   13  C   UNK N   1       3.474  -4.425   0.222  0.00  0.00     0.037 A 
HETATM   14  C   UNK N   1       4.093  -5.666   0.252  0.00  0.00     0.046 A 
HETATM   15  C   UNK N   1       3.333  -6.826   0.062  0.00  0.00     0.100 A 
HETATM   16 Br   UNK N   1       5.982  -5.734   0.519  0.00  0.00    -0.048 Br
HETATM   17  C   UNK N   1       1.947  -6.727  -0.158  0.00  0.00     0.046 A 
HETATM   18  C   UNK N   1       1.335  -5.466  -0.213  0.00  0.00     0.037 A 
HETATM   19 Br   UNK N   1       0.889  -8.299  -0.403  0.00  0.00    -0.048 Br
BRANCH  15  20
HETATM   20  O   UNK N   1       3.932  -8.030   0.086  0.00  0.00    -0.358 OA
HETATM   21  H   UNK N   1       3.414  -8.811   0.103  0.00  0.00     0.217 HD
ENDBRANCH  15  20
ENDBRANCH   7  12
ENDBRANCH   2   5
BRANCH   1  22
HETATM   22  C   UNK N   1       1.047   2.866  -0.203  0.00  0.00     0.161 C 
BRANCH  22  23
HETATM   23  C   UNK N   1      -0.362   3.258   0.047  0.00  0.00    -0.040 A 
HETATM   24  C   UNK N   1      -0.924   4.347  -0.623  0.00  0.00     0.011 A 
HETATM   25  C   UNK N   1      -2.304   4.566  -0.554  0.00  0.00     0.038 A 
HETATM   26  C   UNK N   1      -3.126   3.671   0.144  0.00  0.00     0.076 A 
HETATM   27  C   UNK N   1      -2.545   2.613   0.856  0.00  0.00     0.038 A 
HETATM   28  C   UNK N   1      -1.174   2.411   0.811  0.00  0.00     0.011 A 
BRANCH  26  29
HETATM   29  O   UNK N   1      -4.473   3.826   0.080  0.00  0.00    -0.311 OA
BRANCH  29  30
HETATM   30  C   UNK N   1      -5.395   2.822   0.109  0.00  0.00     0.076 A 
HETATM   31  C   UNK N   1      -6.753   3.155   0.127  0.00  0.00     0.037 A 
HETATM   32  C   UNK N   1      -7.728   2.153   0.102  0.00  0.00     0.003 A 
HETATM   33  C   UNK N   1      -7.352   0.807   0.052  0.00  0.00     0.000 A 
HETATM   34  C   UNK N   1      -6.001   0.461   0.030  0.00  0.00     0.003 A 
HETATM   35  C   UNK N   1      -5.027   1.462   0.053  0.00  0.00     0.037 A 
ENDBRANCH  29  30
ENDBRANCH  26  29
ENDBRANCH  22  23
ENDBRANCH   1  22
TORSDOF 7
