REMARK  7 active torsions:
REMARK  status: ('A' for Active; 'I' for Inactive)
REMARK    1  A    between atoms: C_12  and  C_5 
REMARK    2  A    between atoms: C_13  and  C_5 
REMARK    3  A    between atoms: N_24  and  C_12 
REMARK    4  A    between atoms: N_26  and  C_13 
REMARK    5  A    between atoms: C_19  and  C_18 
REMARK    6  A    between atoms: N_25  and  C_18 
REMARK    7  A    between atoms: O_27  and  C_19 
ROOT
HETATM    1  C   UNK N   1       7.367   1.223   0.081  0.00  0.00     0.001 A 
HETATM    2  C   UNK N   1      -0.528   0.302   0.461  0.00  0.00     0.001 A 
HETATM    3  C   UNK N   1       7.243  -0.070  -0.389  0.00  0.00     0.002 A 
HETATM    4  C   UNK N   1      -0.159  -0.934  -0.036  0.00  0.00     0.002 A 
HETATM    5  C   UNK N   1       6.225   1.976   0.312  0.00  0.00     0.014 A 
HETATM    6  C   UNK N   1       0.430   1.297   0.592  0.00  0.00     0.014 A 
HETATM    7  C   UNK N   1       5.976  -0.598  -0.618  0.00  0.00     0.030 A 
HETATM    8  C   UNK N   1       1.166  -1.164  -0.391  0.00  0.00     0.030 A 
HETATM    9  C   UNK N   1       3.893   2.417   0.386  0.00  0.00     0.014 C 
HETATM   10  C   UNK N   1       2.593   2.262   0.449  0.00  0.00     0.014 C 
HETATM   11  C   UNK N   1       4.937   1.457   0.102  0.00  0.00    -0.009 A 
HETATM   12  C   UNK N   1       1.775   1.083   0.254  0.00  0.00    -0.009 A 
HETATM   13  C   UNK N   1       4.781   0.123  -0.374  0.00  0.00     0.045 A 
HETATM   14  C   UNK N   1       2.183  -0.187  -0.251  0.00  0.00     0.045 A 
HETATM   15  N   UNK N   1       3.532  -0.577  -0.641  0.00  0.00    -0.345 N 
ENDROOT
BRANCH  15  16
HETATM   16  C   UNK N   1       3.670  -1.839  -1.384  0.00  0.00     0.131 C 
BRANCH  16  17
HETATM   17  C   UNK N   1       3.295  -3.100  -0.590  0.00  0.00     0.050 C 
BRANCH  17  18
HETATM   18  C   UNK N   1       3.999  -3.160   0.765  0.00  0.00     0.274 C 
BRANCH  18  19
HETATM   19  N   UNK N   1       5.296  -3.846   0.762  0.00  0.00     0.091 N 
HETATM   20  C   UNK N   1       5.140  -5.290   0.883  0.00  0.00     0.302 C 
HETATM   21  C   UNK N   1       6.524  -5.898   1.134  0.00  0.00     0.302 C 
HETATM   22  N   UNK N   1       7.448  -5.568   0.041  0.00  0.00     0.093 N 
HETATM   23  C   UNK N   1       7.509  -4.120  -0.169  0.00  0.00     0.302 C 
HETATM   24  C   UNK N   1       6.116  -3.561  -0.412  0.00  0.00     0.302 C 
BRANCH  22  25
HETATM   25  C   UNK N   1       8.778  -5.958   0.479  0.00  0.00     0.298 C 
BRANCH  25  26
HETATM   26  C   UNK N   1       9.349  -7.015  -0.446  0.00  0.00     0.194 C 
BRANCH  26  27
HETATM   27  O   UNK N   1       8.748  -8.244  -0.179  0.00  0.00    -0.399 OA
HETATM   28  H   UNK N   1       7.798  -8.309   0.006  0.00  0.00     0.209 HD
ENDBRANCH  26  27
ENDBRANCH  25  26
ENDBRANCH  22  25
ENDBRANCH  18  19
ENDBRANCH  17  18
ENDBRANCH  16  17
ENDBRANCH  15  16
TORSDOF 7
