REMARK  3 active torsions:
REMARK  status: ('A' for Active; 'I' for Inactive)
REMARK    1  A    between atoms: C_6  and  C_7 
REMARK    2  A    between atoms: C_7  and  C_9 
REMARK    3  A    between atoms: C_13  and  N_14 
ROOT
HETATM    1  C   UNK N   1       0.223  -0.979  -0.006  0.00  0.00     0.056 A 
HETATM    2  C   UNK N   1       1.639  -0.681  -0.000  0.00  0.00    -0.028 A 
HETATM    3  C   UNK N   1       1.938   0.678  -0.132  0.00  0.00    -0.008 A 
HETATM    4  S   UNK N   1       0.517   1.494  -0.261  0.00  0.00    -0.076 SA
HETATM    5  C   UNK N   1      -0.534   0.220  -0.153  0.00  0.00     0.083 A 
HETATM    6  C   UNK N   1       3.314   1.269  -0.169  0.00  0.00     0.047 C 
HETATM    7  C   UNK N   1       4.388   0.218   0.140  0.00  0.00     0.005 C 
HETATM    8  C   UNK N   1       4.053  -1.144  -0.468  0.00  0.00     0.005 C 
HETATM    9  C   UNK N   1       2.749  -1.690   0.122  0.00  0.00     0.041 C 
ENDROOT
BRANCH   1  10
HETATM   10  C   UNK N   1      -0.277  -2.407   0.154  0.00  0.00     0.195 C 
HETATM   11  O   UNK N   1       0.561  -3.264   0.402  0.00  0.00    -0.287 OA
BRANCH  10  12
HETATM   12  C   UNK N   1      -1.695  -2.886   0.065  0.00  0.00     0.015 A 
HETATM   13  C   UNK N   1      -2.749  -2.086  -0.381  0.00  0.00     0.017 A 
HETATM   14  C   UNK N   1      -4.059  -2.571  -0.425  0.00  0.00     0.025 A 
HETATM   15  C   UNK N   1      -4.331  -3.879  -0.026  0.00  0.00     0.034 A 
HETATM   16  C   UNK N   1      -3.290  -4.705   0.399  0.00  0.00     0.025 A 
HETATM   17 Cl   UNK N   1      -5.975  -4.475  -0.050  0.00  0.00    -0.084 Cl
HETATM   18  C   UNK N   1      -1.982  -4.213   0.439  0.00  0.00     0.017 A 
ENDBRANCH  10  12
ENDBRANCH   1  10
BRANCH   5  19
HETATM   19  N   UNK N   1      -1.927   0.394  -0.172  0.00  0.00    -0.393 N 
HETATM   20  H   UNK N   1      -2.310   1.301  -0.185  0.00  0.00     0.156 HD
HETATM   21  H   UNK N   1      -2.521  -0.391  -0.172  0.00  0.00     0.156 HD
ENDBRANCH   5  19
TORSDOF 3
