REMARK  7 active torsions:
REMARK  status: ('A' for Active; 'I' for Inactive)
REMARK    1  A    between atoms: C_2  and  C_3 
REMARK    2  A    between atoms: C_3  and  N_4 
REMARK    3  A    between atoms: N_7  and  C_10 
REMARK    4  A    between atoms: C_13  and  C_16 
REMARK       I    between atoms: C_16  and  N_18 
REMARK    5  A    between atoms: N_18  and  C_19 
REMARK    6  A    between atoms: C_19  and  C_25 
REMARK       I    between atoms: C_25  and  N_27 
REMARK    7  A    between atoms: N_27  and  C_28 
ROOT
HETATM    1  C   UNK N   1       2.273  -0.663  -0.335  0.00  0.00     0.247 C 
HETATM    2  C   UNK N   1       3.659  -1.061  -0.628  0.00  0.00     0.078 C 
HETATM    3  N   UNK N   1       4.741  -1.396  -0.864  0.00  0.00    -0.196 NA
ENDROOT
BRANCH   1   4
HETATM    4  N   UNK N   1       1.361  -1.766  -0.570  0.00  0.00    -0.347 N 
HETATM    5  C   UNK N   1       1.432  -2.925   0.136  0.00  0.00     0.246 C 
HETATM    6  O   UNK N   1       2.335  -3.086   0.946  0.00  0.00    -0.271 OA
HETATM    7  H   UNK N   1       0.668  -1.671  -1.263  0.00  0.00     0.163 HD
BRANCH   5   8
HETATM    8  C   UNK N   1       0.481  -4.078  -0.116  0.00  0.00     0.114 C 
HETATM    9  C   UNK N   1       1.374  -5.157  -0.761  0.00  0.00     0.041 C 
HETATM   10  C   UNK N   1       1.022  -6.605  -0.404  0.00  0.00     0.003 C 
HETATM   11  C   UNK N   1      -0.472  -6.773  -0.168  0.00  0.00     0.000 C 
HETATM   12  C   UNK N   1      -0.972  -5.869   0.969  0.00  0.00     0.003 C 
HETATM   13  C   UNK N   1      -0.100  -4.616   1.201  0.00  0.00     0.041 C 
BRANCH   8  14
HETATM   14  N   UNK N   1      -0.626  -3.860  -1.033  0.00  0.00    -0.339 N 
HETATM   15  C   UNK N   1      -1.800  -3.175  -0.900  0.00  0.00     0.252 C 
HETATM   16  O   UNK N   1      -2.688  -3.450  -1.694  0.00  0.00    -0.268 OA
HETATM   17  H   UNK N   1      -0.507  -4.284  -1.914  0.00  0.00     0.164 HD
BRANCH  15  18
HETATM   18  C   UNK N   1      -2.087  -2.057   0.049  0.00  0.00     0.032 C 
HETATM   19  C   UNK N   1      -1.079  -1.210   0.519  0.00  0.00     0.019 C 
HETATM   20  C   UNK N   1      -1.379   0.115   0.877  0.00  0.00     0.030 C 
HETATM   21  C   UNK N   1      -2.703   0.579   0.793  0.00  0.00     0.030 C 
HETATM   22  C   UNK N   1      -3.722  -0.332   0.499  0.00  0.00     0.030 C 
HETATM   23  C   UNK N   1      -3.416  -1.622   0.111  0.00  0.00     0.019 C 
BRANCH  21  24
HETATM   24  N   UNK N   1      -3.017   1.971   0.813  0.00  0.00    -0.378 N 
HETATM   25  C   UNK N   1      -1.988   2.993   0.733  0.00  0.00     0.153 C 
HETATM   26  C   UNK N   1      -2.181   3.846  -0.550  0.00  0.00     0.292 C 
HETATM   27  N   UNK N   1      -3.581   4.267  -0.760  0.00  0.00     0.091 N 
HETATM   28  C   UNK N   1      -4.445   3.079  -0.769  0.00  0.00     0.292 C 
HETATM   29  C   UNK N   1      -4.382   2.375   0.583  0.00  0.00     0.153 C 
BRANCH  27  30
HETATM   30  C   UNK N   1      -3.969   5.234   0.284  0.00  0.00     0.272 C 
BRANCH  30  31
HETATM   31  C   UNK N   1      -5.487   5.381   0.450  0.00  0.00     0.026 C 
HETATM   32  C   UNK N   1      -6.014   6.571  -0.320  0.00  0.00     0.007 C 
ENDBRANCH  30  31
ENDBRANCH  27  30
ENDBRANCH  21  24
ENDBRANCH  15  18
ENDBRANCH   8  14
ENDBRANCH   5   8
ENDBRANCH   1   4
TORSDOF 7
