REMARK  8 active torsions:
REMARK  status: ('A' for Active; 'I' for Inactive)
REMARK    1  A    between atoms: C_2  and  C_3 
REMARK    2  A    between atoms: C_3  and  C_4 
REMARK    3  A    between atoms: C_3  and  C_6 
REMARK    4  A    between atoms: C_6  and  C_7 
REMARK    5  A    between atoms: C_6  and  N_9 
REMARK    6  A    between atoms: C_7  and  O_8 
REMARK    7  A    between atoms: N_9  and  S_10 
REMARK    8  A    between atoms: S_10  and  C_13 
ROOT
HETATM    1  N   UNK N   1       1.198   3.164   0.649  0.00  0.00    -0.308 N 
HETATM    2  H   UNK N   1       1.302   3.056   1.658  0.00  0.00     0.172 HD
ENDROOT
BRANCH   1   3
HETATM    3  C   UNK N   1       1.814   4.229  -0.138  0.00  0.00     0.120 C 
BRANCH   3   4
HETATM    4  C   UNK N   1       0.766   5.281  -0.538  0.00  0.00     0.010 C 
BRANCH   4   5
HETATM    5  C   UNK N   1       1.286   6.325  -1.534  0.00  0.00     0.002 C 
HETATM    6  C   UNK N   1       2.255   7.320  -0.912  0.00  0.00     0.005 C 
ENDBRANCH   4   5
BRANCH   4   7
HETATM    7  C   UNK N   1       0.033   5.896   0.652  0.00  0.00     0.002 C 
HETATM    8  C   UNK N   1      -1.310   6.445   0.207  0.00  0.00     0.005 C 
ENDBRANCH   4   7
ENDBRANCH   3   4
BRANCH   3   9
HETATM    9  C   UNK N   1       2.982   4.819   0.640  0.00  0.00     0.190 C 
BRANCH   9  10
HETATM   10  O   UNK N   1       4.016   3.886   0.719  0.00  0.00    -0.399 OA
HETATM   11  H   UNK N   1       3.814   2.939   0.774  0.00  0.00     0.209 HD
ENDBRANCH   9  10
ENDBRANCH   3   9
ENDBRANCH   1   3
BRANCH   1  12
HETATM   12  S   UNK N   1       0.245   2.082  -0.388  0.00  0.00     0.265 S 
HETATM   13  O   UNK N   1      -1.187   2.639  -0.336  0.00  0.00    -0.200 OA
HETATM   14  O   UNK N   1       0.655   2.366  -1.844  0.00  0.00    -0.200 OA
BRANCH  12  15
HETATM   15  C   UNK N   1       0.309   0.346   0.011  0.00  0.00     0.121 A 
HETATM   16  C   UNK N   1       1.447  -0.466  -0.023  0.00  0.00     0.035 A 
HETATM   17  C   UNK N   1       1.178  -1.811   0.359  0.00  0.00     0.033 A 
HETATM   18  C   UNK N   1      -0.165  -2.027   0.685  0.00  0.00     0.075 A 
HETATM   19  S   UNK N   1      -0.963  -0.591   0.500  0.00  0.00    -0.064 SA
HETATM   20 Cl   UNK N   1      -0.878  -3.540   1.198  0.00  0.00    -0.076 Cl
ENDBRANCH  12  15
ENDBRANCH   1  12
TORSDOF 8
