REMARK  5 active torsions:
REMARK  status: ('A' for Active; 'I' for Inactive)
REMARK    1  A    between atoms: C_2  and  C_3 
REMARK    2  A    between atoms: C_2  and  C_19 
REMARK    3  A    between atoms: C_3  and  C_4 
REMARK    4  A    between atoms: C_3  and  N_18 
REMARK    5  A    between atoms: C_8  and  C_14 
REMARK       I    between atoms: C_19  and  N_21 
ROOT
HETATM    1  C   UNK N   1       0.196  -0.309  -0.419  0.00  0.00     0.105 A 
HETATM    2  N   UNK N   1       1.046   0.748  -0.351  0.00  0.00    -0.342 N 
HETATM    3  C   UNK N   1       2.250   0.185  -0.203  0.00  0.00     0.061 A 
HETATM    4  C   UNK N   1       3.485   0.821  -0.157  0.00  0.00     0.039 A 
HETATM    5  C   UNK N   1       4.646   0.014  -0.108  0.00  0.00    -0.048 A 
HETATM    6  C   UNK N   1       4.507  -1.404  -0.075  0.00  0.00     0.010 A 
HETATM    7  C   UNK N   1       3.232  -2.008  -0.103  0.00  0.00     0.032 A 
HETATM    8  C   UNK N   1       2.129  -1.168  -0.181  0.00  0.00     0.060 A 
HETATM    9  N   UNK N   1       0.834  -1.505  -0.308  0.00  0.00    -0.342 N 
ATOM     10  HN  UNK N   1       0.426  -2.440  -0.319  1.00  0.00     0.167 HD
HETATM   11  H   UNK N   1       0.827   1.707  -0.398  0.00  0.00     0.167 HD
ENDROOT
BRANCH   1  12
HETATM   12  C   UNK N   1      -1.266  -0.142  -0.738  0.00  0.00     0.155 C 
BRANCH  12  13
HETATM   13  C   UNK N   1      -2.088  -1.430  -0.943  0.00  0.00     0.103 C 
HETATM   14  C   UNK N   1      -1.486  -2.293  -2.050  0.00  0.00     0.022 C 
BRANCH  13  15
HETATM   15  C   UNK N   1      -2.357  -2.202   0.327  0.00  0.00     0.221 C 
HETATM   16  O   UNK N   1      -1.983  -3.359   0.446  0.00  0.00    -0.273 OA
HETATM   17  N   UNK N   1      -3.063  -1.629   1.321  0.00  0.00    -0.370 N 
HETATM   18  H   UNK N   1      -2.958  -0.973   2.047  0.00  0.00     0.159 HD
HETATM   19  H   UNK N   1      -3.982  -1.981   1.321  0.00  0.00     0.159 HD
ENDBRANCH  13  15
ENDBRANCH  12  13
BRANCH  12  20
HETATM   20  N   UNK N   1      -1.904   0.748   0.218  0.00  0.00    -0.419 N 
HETATM   21  H   UNK N   1      -1.587   1.448   0.889  0.00  0.00     0.150 HD
HETATM   22  H   UNK N   1      -2.919   0.648   0.218  0.00  0.00     0.150 HD
ENDBRANCH  12  20
ENDBRANCH   1  12
BRANCH   5  23
HETATM   23  C   UNK N   1       6.012   0.675  -0.148  0.00  0.00    -0.024 C 
HETATM   24  C   UNK N   1       6.218   1.521   1.094  0.00  0.00     0.019 C 
HETATM   25  C   UNK N   1       6.107   1.575  -1.370  0.00  0.00     0.019 C 
HETATM   26  C   UNK N   1       7.151  -0.331  -0.232  0.00  0.00     0.019 C 
ENDBRANCH   5  23
TORSDOF 5
