REMARK  10 active torsions:
REMARK  status: ('A' for Active; 'I' for Inactive)
REMARK    1  A    between atoms: C_11  and  C_6 
REMARK    2  A    between atoms: C_15  and  C_6 
REMARK    3  A    between atoms: C_18  and  C_11 
REMARK    4  A    between atoms: C_18  and  C_14 
REMARK    5  A    between atoms: O_25  and  C_14 
REMARK    6  A    between atoms: C_20  and  C_16 
REMARK    7  A    between atoms: C_21  and  C_17 
REMARK    8  A    between atoms: O_22  and  C_18 
REMARK    9  A    between atoms: O_25  and  C_19 
REMARK   10  A    between atoms: O_23  and  C_20 
ROOT
HETATM    1  C   UNK N   1       6.575   1.799  -0.615  0.00  0.00     0.142 C 
ENDROOT
BRANCH   1   2
HETATM    2  C   UNK N   1       5.170   2.039  -0.074  0.00  0.00     0.038 C 
BRANCH   2   3
HETATM    3  C   UNK N   1       4.833   1.212   1.159  0.00  0.00     0.041 C 
BRANCH   3   4
HETATM    4  C   UNK N   1       3.904   0.096   0.807  0.00  0.00    -0.058 A 
HETATM    5  C   UNK N   1       2.663   0.368   0.216  0.00  0.00     0.007 A 
HETATM    6  C   UNK N   1       1.793  -0.676  -0.102  0.00  0.00     0.008 A 
HETATM    7  C   UNK N   1       2.144  -2.009   0.175  0.00  0.00    -0.051 A 
HETATM    8  C   UNK N   1       3.391  -2.271   0.773  0.00  0.00     0.008 A 
HETATM    9  C   UNK N   1       4.264  -1.225   1.085  0.00  0.00     0.007 A 
BRANCH   7  10
HETATM   10  C   UNK N   1       1.179  -3.128  -0.168  0.00  0.00    -0.024 C 
HETATM   11  C   UNK N   1       0.911  -3.140  -1.662  0.00  0.00     0.019 C 
HETATM   12  C   UNK N   1       1.705  -4.502   0.223  0.00  0.00     0.019 C 
HETATM   13  C   UNK N   1      -0.137  -2.913   0.560  0.00  0.00     0.019 C 
ENDBRANCH   7  10
ENDBRANCH   3   4
ENDBRANCH   2   3
ENDBRANCH   1   2
BRANCH   1  14
HETATM   14  C   UNK N   1       6.846   0.362  -1.041  0.00  0.00     0.207 C 
BRANCH  14  15
HETATM   15  O   UNK N   1       7.185  -0.463   0.016  0.00  0.00    -0.349 OA
BRANCH  15  16
HETATM   16  C   UNK N   1       8.412  -1.031   0.092  0.00  0.00     0.068 A 
HETATM   17  C   UNK N   1       9.516  -0.456  -0.560  0.00  0.00     0.038 A 
HETATM   18  C   UNK N   1      10.755  -1.094  -0.549  0.00  0.00     0.021 A 
HETATM   19  C   UNK N   1      10.908  -2.325   0.098  0.00  0.00     0.037 A 
HETATM   20  C   UNK N   1       9.816  -2.888   0.778  0.00  0.00     0.021 A 
HETATM   21  C   UNK N   1       8.576  -2.237   0.785  0.00  0.00     0.038 A 
BRANCH  19  22
HETATM   22  C   UNK N   1      12.201  -3.032   0.022  0.00  0.00     0.176 C 
HETATM   23  O   UNK N   1      12.326  -4.146   0.510  0.00  0.00    -0.646 OA
BRANCH  22  24
HETATM   24  O   UNK N   1      13.245  -2.469  -0.618  0.00  0.00    -0.773 OA
HETATM   25  H   UNK N   1      13.946  -2.901  -1.064  0.00  0.00     0.167 HD
ENDBRANCH  22  24
ENDBRANCH  19  22
ENDBRANCH  15  16
ENDBRANCH  14  15
ENDBRANCH   1  14
BRANCH   1  26
HETATM   26  O   UNK N   1       7.556   2.273   0.256  0.00  0.00    -0.393 OA
HETATM   27  H   UNK N   1       8.182   1.847   0.862  0.00  0.00     0.210 HD
ENDBRANCH   1  26
TORSDOF 10
