REMARK  3 active torsions:
REMARK  status: ('A' for Active; 'I' for Inactive)
REMARK    1  A    between atoms: C_16  and  N_18 
REMARK       I    between atoms: C_19  and  N_42 
REMARK       I    between atoms: C_22  and  N_25 
REMARK    2  A    between atoms: N_25  and  C_26 
REMARK    3  A    between atoms: C_34  and  N_37 
ROOT
HETATM    1  N   UNK N   1       1.493  -1.782  -0.177  0.00  0.00    -0.054 N 
HETATM    2  C   UNK N   1       0.848  -0.622   0.070  0.00  0.00     0.714 A 
HETATM    3  N   UNK N   1       1.728   0.410   0.215  0.00  0.00    -0.019 N 
ATOM      4  HN  UNK N   1       1.539   1.393   0.415  1.00  0.00     0.203 HD
HETATM    5  C   UNK N   1       2.918  -0.208   0.024  0.00  0.00     0.712 A 
HETATM    6  N   UNK N   1       2.762  -1.500  -0.233  0.00  0.00    -0.108 N 
ATOM      7  HN  UNK N   1       3.511  -2.161  -0.439  1.00  0.00     0.207 HD
HETATM    8  N   UNK N   1       4.223   0.342   0.197  0.00  0.00    -0.190 N 
HETATM    9  N   UNK N   1      -0.544  -0.506   0.260  0.00  0.00    -0.232 N 
HETATM   10  H   UNK N   1       4.363   1.314   0.261  0.00  0.00     0.184 HD
HETATM   11  H   UNK N   1      -0.959   0.377   0.392  0.00  0.00     0.174 HD
HETATM   12  H   UNK N   1      -1.105  -1.315   0.260  0.00  0.00     0.174 HD
ENDROOT
BRANCH   8  13
HETATM   13  C   UNK N   1       5.324  -0.580   0.274  0.00  0.00     0.049 A 
HETATM   14  C   UNK N   1       5.111  -1.897   0.734  0.00  0.00     0.030 A 
HETATM   15  C   UNK N   1       6.059  -2.889   0.585  0.00  0.00     0.010 A 
HETATM   16  C   UNK N   1       7.275  -2.589   0.002  0.00  0.00    -0.052 A 
HETATM   17  C   UNK N   1       7.558  -1.254  -0.381  0.00  0.00    -0.050 A 
HETATM   18  C   UNK N   1       8.231  -3.717  -0.209  0.00  0.00     0.041 C 
HETATM   19  C   UNK N   1       6.574  -0.256  -0.257  0.00  0.00     0.037 A 
HETATM   20  C   UNK N   1       8.883  -0.885  -0.942  0.00  0.00     0.041 C 
HETATM   21  C   UNK N   1       9.961  -1.157   0.092  0.00  0.00     0.040 C 
HETATM   22  C   UNK N   1      10.460  -2.601  -0.032  0.00  0.00     0.223 C 
HETATM   23  C   UNK N   1       9.478  -3.562   0.632  0.00  0.00     0.040 C 
BRANCH  22  24
HETATM   24  N   UNK N   1      11.791  -2.768   0.552  0.00  0.00     0.093 N 
HETATM   25  C   UNK N   1      12.697  -1.780  -0.023  0.00  0.00     0.273 C 
HETATM   26  C   UNK N   1      14.054  -2.419  -0.146  0.00  0.00     0.032 C 
HETATM   27  C   UNK N   1      13.785  -3.900  -0.192  0.00  0.00     0.032 C 
HETATM   28  C   UNK N   1      12.308  -4.057   0.099  0.00  0.00     0.273 C 
ENDBRANCH  22  24
ENDBRANCH   8  13
BRANCH   1  29
HETATM   29  C   UNK N   1       1.133  -3.160  -0.269  0.00  0.00     0.161 A 
HETATM   30  N   UNK N   1       2.149  -4.054  -0.331  0.00  0.00    -0.283 N 
HETATM   31  N   UNK N   1       1.953  -5.361  -0.298  0.00  0.00    -0.298 N 
ATOM     32  HN  UNK N   1       3.105  -3.704  -0.405  1.00  0.00     0.188 HD
HETATM   33  C   UNK N   1       0.717  -5.914  -0.216  0.00  0.00     0.065 A 
ATOM     34  HN  UNK N   1       2.764  -5.978  -0.337  1.00  0.00     0.187 HD
HETATM   35  C   UNK N   1      -0.403  -5.014  -0.179  0.00  0.00    -0.025 A 
HETATM   36  C   UNK N   1       0.704  -7.421  -0.132  0.00  0.00    -0.001 A 
HETATM   37  C   UNK N   1      -1.837  -5.415  -0.116  0.00  0.00     0.041 C 
HETATM   38  C   UNK N   1      -0.169  -3.629  -0.190  0.00  0.00     0.062 A 
HETATM   39  C   UNK N   1      -2.083  -6.633   0.722  0.00  0.00     0.009 C 
HETATM   40  C   UNK N   1      -1.835  -7.772  -0.218  0.00  0.00     0.040 C 
HETATM   41  C   UNK N   1      -0.442  -8.265  -0.101  0.00  0.00    -0.046 A 
HETATM   42  C   UNK N   1      -0.283  -9.651   0.022  0.00  0.00     0.008 A 
HETATM   43  C   UNK N   1       0.982 -10.228   0.116  0.00  0.00     0.001 A 
HETATM   44  C   UNK N   1       2.111  -9.421   0.084  0.00  0.00     0.001 A 
HETATM   45  C   UNK N   1       1.971  -8.042  -0.037  0.00  0.00     0.014 A 
ENDBRANCH   1  29
TORSDOF 3
