REMARK  7 active torsions:
REMARK  status: ('A' for Active; 'I' for Inactive)
REMARK    1  A    between atoms: N_6  and  C_9 
REMARK    2  A    between atoms: C_12  and  C_15 
REMARK       I    between atoms: C_15  and  N_17 
REMARK    3  A    between atoms: N_17  and  C_18 
REMARK    4  A    between atoms: C_19  and  N_25 
REMARK    5  A    between atoms: C_23  and  O_24 
REMARK       I    between atoms: N_25  and  C_26 
REMARK    6  A    between atoms: C_26  and  C_28 
REMARK    7  A    between atoms: C_31  and  O_34 
ROOT
HETATM    1  C   UNK N   1       2.655  -2.187   0.205  0.00  0.00     0.095 A 
HETATM    2  C   UNK N   1       4.019  -2.534  -0.026  0.00  0.00     0.064 A 
HETATM    3  C   UNK N   1       4.353  -3.863  -0.291  0.00  0.00     0.032 A 
HETATM    4  C   UNK N   1       3.368  -4.846  -0.362  0.00  0.00     0.005 A 
HETATM    5  C   UNK N   1       2.035  -4.517  -0.134  0.00  0.00     0.039 A 
HETATM    6  C   UNK N   1       1.667  -3.203   0.159  0.00  0.00     0.094 A 
ENDROOT
BRANCH   1   7
HETATM    7  N   UNK N   1       2.373  -0.824   0.487  0.00  0.00    -0.319 N 
HETATM    8  C   UNK N   1       1.268  -0.064   0.256  0.00  0.00     0.256 C 
HETATM    9  O   UNK N   1       0.243  -0.538  -0.194  0.00  0.00    -0.267 OA
HETATM   10  H   UNK N   1       3.109  -0.343   0.929  0.00  0.00     0.169 HD
BRANCH   8  11
HETATM   11  C   UNK N   1       1.428   1.397   0.378  0.00  0.00     0.032 A 
HETATM   12  C   UNK N   1       2.702   1.912   0.645  0.00  0.00     0.019 A 
HETATM   13  C   UNK N   1       2.937   3.279   0.633  0.00  0.00     0.030 A 
HETATM   14  C   UNK N   1       1.887   4.169   0.392  0.00  0.00     0.030 A 
HETATM   15  C   UNK N   1       0.595   3.661   0.154  0.00  0.00     0.030 A 
HETATM   16  C   UNK N   1       0.371   2.279   0.117  0.00  0.00     0.019 A 
BRANCH  14  17
HETATM   17  N   UNK N   1       2.124   5.571   0.435  0.00  0.00    -0.379 N 
HETATM   18  C   UNK N   1       3.485   6.064   0.230  0.00  0.00     0.125 C 
HETATM   19  C   UNK N   1       3.690   7.570   0.407  0.00  0.00     0.050 C 
HETATM   20  C   UNK N   1       2.860   8.391  -0.569  0.00  0.00     0.273 C 
HETATM   21  N   UNK N   1       1.550   8.645   0.011  0.00  0.00     0.085 N 
HETATM   22  C   UNK N   1       0.951   9.754  -0.705  0.00  0.00     0.309 C 
HETATM   23  C   UNK N   1       0.720   7.479  -0.229  0.00  0.00     0.291 C 
HETATM   24  C   UNK N   1       1.028   6.437   0.823  0.00  0.00     0.153 C 
ENDBRANCH  14  17
ENDBRANCH   8  11
ENDBRANCH   1   7
BRANCH   2  25
HETATM   25  N   UNK N   1       5.085  -1.573   0.031  0.00  0.00    -0.321 N 
HETATM   26  C   UNK N   1       5.041  -0.290  -0.436  0.00  0.00     0.256 C 
HETATM   27  O   UNK N   1       4.096   0.092  -1.111  0.00  0.00    -0.267 OA
HETATM   28  H   UNK N   1       5.928  -1.867   0.446  0.00  0.00     0.169 HD
BRANCH  26  29
HETATM   29  C   UNK N   1       6.168   0.642  -0.204  0.00  0.00     0.032 A 
HETATM   30  C   UNK N   1       6.044   1.989  -0.580  0.00  0.00     0.020 A 
HETATM   31  C   UNK N   1       7.113   2.872  -0.427  0.00  0.00     0.038 A 
HETATM   32  C   UNK N   1       8.331   2.421   0.084  0.00  0.00     0.068 A 
HETATM   33  C   UNK N   1       8.456   1.077   0.484  0.00  0.00     0.038 A 
HETATM   34  C   UNK N   1       7.376   0.195   0.349  0.00  0.00     0.020 A 
BRANCH  32  35
HETATM   35  O   UNK N   1       9.369   3.287   0.160  0.00  0.00    -0.356 OA
HETATM   36  C   UNK N   1      10.643   2.909   0.518  0.00  0.00     0.210 C 
ENDBRANCH  32  35
ENDBRANCH  26  29
ENDBRANCH   2  25
BRANCH   6  37
HETATM   37  O   UNK N   1       0.375  -2.949   0.424  0.00  0.00    -0.358 OA
HETATM   38  H   UNK N   1       0.079  -2.079   0.608  0.00  0.00     0.217 HD
ENDBRANCH   6  37
TORSDOF 7
