REMARK  9 active torsions:
REMARK  status: ('A' for Active; 'I' for Inactive)
REMARK    1  A    between atoms: C_12  and  C_6 
REMARK    2  A    between atoms: C_17  and  C_6 
REMARK    3  A    between atoms: O_32  and  C_12 
REMARK    4  A    between atoms: C_17  and  C_14 
REMARK    5  A    between atoms: C_17  and  N_29 
REMARK    6  A    between atoms: N_31  and  C_19 
REMARK    7  A    between atoms: C_21  and  C_20 
REMARK    8  A    between atoms: C_20  and  O_33 
REMARK    9  A    between atoms: N_23  and  C_21 
ROOT
HETATM    1  C   UNK N   1       3.688  -2.174  -0.921  0.00  0.00     0.059 C 
HETATM    2  C   UNK N   1       1.831  -2.479   0.826  0.00  0.00     0.059 C 
HETATM    3  C   UNK N   1       4.048  -1.080   0.069  0.00  0.00     0.127 C 
HETATM    4  C   UNK N   1       1.612  -0.969   0.641  0.00  0.00     0.127 C 
HETATM    5  C   UNK N   1       2.600  -3.104  -0.359  0.00  0.00     0.092 C 
HETATM    6  N   UNK N   1       2.856  -0.290   0.296  0.00  0.00    -0.366 N 
ENDROOT
BRANCH   5   7
HETATM    7  C   UNK N   1       3.271  -4.381   0.088  0.00  0.00     0.140 C 
HETATM    8  N   UNK N   1       3.220  -5.428  -0.672  0.00  0.00    -0.364 N 
ATOM      9  HN  UNK N   1       2.740  -5.327  -1.566  1.00  0.00     0.162 HD
BRANCH   8  10
HETATM   10  C   UNK N   1       3.783  -6.739  -0.370  0.00  0.00     0.118 C 
BRANCH  10  11
HETATM   11  C   UNK N   1       3.020  -7.377   0.793  0.00  0.00     0.056 C 
BRANCH  11  12
HETATM   12  C   UNK N   1       1.533  -7.466   0.459  0.00  0.00     0.166 C 
BRANCH  12  13
HETATM   13  O   UNK N   1       1.089  -8.783   0.574  0.00  0.00    -0.401 OA
HETATM   14  H   UNK N   1       0.141  -8.973   0.655  0.00  0.00     0.209 HD
ENDBRANCH  12  13
ENDBRANCH  11  12
ENDBRANCH  10  11
BRANCH  10  15
HETATM   15  C   UNK N   1       5.291  -6.756  -0.164  0.00  0.00    -0.035 A 
HETATM   16  C   UNK N   1       5.934  -7.985   0.059  0.00  0.00     0.011 A 
HETATM   17  C   UNK N   1       7.326  -8.050   0.185  0.00  0.00     0.024 A 
HETATM   18  C   UNK N   1       8.092  -6.887   0.085  0.00  0.00     0.034 A 
HETATM   19  C   UNK N   1       7.466  -5.657  -0.132  0.00  0.00     0.024 A 
HETATM   20 Cl   UNK N   1       9.837  -6.975   0.206  0.00  0.00    -0.084 Cl
HETATM   21  C   UNK N   1       6.074  -5.592  -0.260  0.00  0.00     0.011 A 
ENDBRANCH  10  15
ENDBRANCH   8  10
BRANCH   7  22
HETATM   22  O   UNK N   1       3.959  -4.402   1.251  0.00  0.00    -0.348 OA
HETATM   23  H   UNK N   1       4.185  -4.822   2.058  0.00  0.00     0.219 HD
ENDBRANCH   7  22
ENDBRANCH   5   7
BRANCH   5  24
HETATM   24  N   UNK N   1       1.648  -3.383  -1.425  0.00  0.00    -0.415 N 
HETATM   25  H   UNK N   1       1.146  -2.903  -2.172  0.00  0.00     0.151 HD
HETATM   26  H   UNK N   1       1.407  -4.374  -1.425  0.00  0.00     0.151 HD
ENDBRANCH   5  24
BRANCH   6  27
HETATM   27  C   UNK N   1       2.923   1.127   0.116  0.00  0.00     0.118 A 
HETATM   28  C   UNK N   1       1.788   1.952   0.123  0.00  0.00     0.053 A 
HETATM   29  C   UNK N   1       0.442   1.701   0.266  0.00  0.00     0.036 A 
HETATM   30  C   UNK N   1       1.932   3.291  -0.053  0.00  0.00     0.120 A 
HETATM   31  C   UNK N   1      -0.176   2.950   0.165  0.00  0.00     0.091 A 
HETATM   32  N   UNK N   1       0.749   3.921  -0.030  0.00  0.00    -0.351 N 
HETATM   33  H   UNK N   1       0.586   4.886  -0.133  0.00  0.00     0.166 HD
HETATM   34  N   UNK N   1       3.136   3.878  -0.233  0.00  0.00    -0.338 N 
HETATM   35  C   UNK N   1       4.249   3.087  -0.245  0.00  0.00     0.183 A 
ATOM     36  HN  UNK N   1       3.212   4.888  -0.356  1.00  0.00     0.168 HD
HETATM   37  N   UNK N   1       4.136   1.731  -0.078  0.00  0.00    -0.338 N 
ATOM     38  HN  UNK N   1       4.978   1.157  -0.098  1.00  0.00     0.168 HD
ENDBRANCH   6  27
TORSDOF 9
