REMARK  3 active torsions:
REMARK  status: ('A' for Active; 'I' for Inactive)
REMARK    1  A    between atoms: C_2  and  C_3 
REMARK    2  A    between atoms: C_3  and  C_4 
REMARK    3  A    between atoms: C_3  and  C_11 
ROOT
HETATM    1  C   UNK N   1      -0.257  -0.028   0.384  0.00  0.00     0.091 C 
ENDROOT
BRANCH   1   2
HETATM    2  C   UNK N   1       0.945   0.513  -0.443  0.00  0.00     0.121 C 
HETATM    3  C   UNK N   1       0.783   0.286  -1.939  0.00  0.00     0.051 C 
HETATM    4 Cl   UNK N   1       1.143   2.265  -0.172  0.00  0.00    -0.101 Cl
HETATM    5 Cl   UNK N   1       2.462  -0.255   0.101  0.00  0.00    -0.101 Cl
ENDBRANCH   1   2
BRANCH   1   6
HETATM    6  C   UNK N   1      -0.490  -1.533   0.341  0.00  0.00    -0.046 A 
HETATM    7  C   UNK N   1       0.191  -2.361  -0.569  0.00  0.00     0.009 A 
HETATM    8  C   UNK N   1      -0.066  -3.732  -0.613  0.00  0.00     0.024 A 
HETATM    9  C   UNK N   1      -1.008  -4.293   0.251  0.00  0.00     0.034 A 
HETATM   10  C   UNK N   1      -1.689  -3.483   1.163  0.00  0.00     0.024 A 
HETATM   11 Cl   UNK N   1      -1.338  -6.011   0.184  0.00  0.00    -0.084 Cl
HETATM   12  C   UNK N   1      -1.431  -2.108   1.208  0.00  0.00     0.009 A 
ENDBRANCH   1   6
BRANCH   1  13
HETATM   13  C   UNK N   1      -1.551   0.704   0.087  0.00  0.00    -0.025 A 
HETATM   14  C   UNK N   1      -2.256   0.435  -1.097  0.00  0.00     0.010 A 
HETATM   15  C   UNK N   1      -3.459   1.089  -1.369  0.00  0.00     0.001 A 
HETATM   16  C   UNK N   1      -3.964   2.025  -0.465  0.00  0.00     0.002 A 
HETATM   17  C   UNK N   1      -3.268   2.306   0.712  0.00  0.00     0.024 A 
HETATM   18  C   UNK N   1      -2.066   1.648   0.998  0.00  0.00     0.041 A 
HETATM   19 Cl   UNK N   1      -1.221   2.042   2.487  0.00  0.00    -0.084 Cl
ENDBRANCH   1  13
TORSDOF 3
