REMARK  8 active torsions:
REMARK  status: ('A' for Active; 'I' for Inactive)
REMARK    1  A    between atoms: C_2  and  C_4 
REMARK    2  A    between atoms: C_5  and  C_4 
REMARK    3  A    between atoms: C_9  and  C_35 
REMARK    4  A    between atoms: C_13  and  C_31 
REMARK    5  A    between atoms: C_24  and  C_28 
REMARK    6  A    between atoms: C_31  and  C_32 
REMARK    7  A    between atoms: C_32  and  O_34 
REMARK    8  A    between atoms: C_35  and  C_36 
ROOT
HETATM    1  C   UNK N   1      -0.541  -2.564   0.054  0.00  0.00     0.177 C 
HETATM    2  C   UNK N   1       0.292  -1.547   0.809  0.00  0.00     0.241 C 
HETATM    3  O   UNK N   1       0.965  -1.914   1.761  0.00  0.00    -0.271 OA
HETATM    4  N   UNK N   1       0.303  -0.237   0.477  0.00  0.00    -0.346 N 
HETATM    5  C   UNK N   1      -0.425   0.310  -0.640  0.00  0.00     0.181 C 
HETATM    6  C   UNK N   1      -1.502   1.229  -0.147  0.00  0.00     0.241 C 
HETATM    7  O   UNK N   1      -1.733   1.320   1.054  0.00  0.00    -0.271 OA
HETATM    8  N   UNK N   1      -2.255   1.908  -1.037  0.00  0.00    -0.345 N 
HETATM    9  C   UNK N   1      -3.449   2.565  -0.600  0.00  0.00     0.186 C 
HETATM   10  C   UNK N   1      -4.577   1.706  -1.031  0.00  0.00     0.243 C 
HETATM   11  O   UNK N   1      -4.862   1.616  -2.222  0.00  0.00    -0.271 OA
HETATM   12  N   UNK N   1      -5.163   0.888  -0.118  0.00  0.00    -0.337 N 
HETATM   13  C   UNK N   1      -4.893   0.997   1.294  0.00  0.00     0.127 C 
HETATM   14  C   UNK N   1      -5.753  -0.081   1.932  0.00  0.00     0.022 C 
HETATM   15  C   UNK N   1      -6.709  -0.547   0.831  0.00  0.00     0.037 C 
HETATM   16  C   UNK N   1      -6.005  -0.209  -0.471  0.00  0.00     0.179 C 
HETATM   17  C   UNK N   1      -5.140  -1.393  -0.868  0.00  0.00     0.241 C 
HETATM   18  O   UNK N   1      -5.250  -1.869  -1.987  0.00  0.00    -0.271 OA
HETATM   19  N   UNK N   1      -4.282  -1.949   0.043  0.00  0.00    -0.346 N 
HETATM   20  C   UNK N   1      -3.504  -3.149  -0.209  0.00  0.00     0.180 C 
HETATM   21  C   UNK N   1      -2.649  -3.501   1.004  0.00  0.00     0.241 C 
HETATM   22  O   UNK N   1      -3.181  -4.001   1.983  0.00  0.00    -0.271 OA
HETATM   23  N   UNK N   1      -1.304  -3.314   1.028  0.00  0.00    -0.346 N 
HETATM   24  H   UNK N   1       0.838   0.378   1.029  0.00  0.00     0.163 HD
HETATM   25  H   UNK N   1      -1.984   1.952  -1.983  0.00  0.00     0.163 HD
HETATM   26  H   UNK N   1      -4.187  -1.509   0.919  0.00  0.00     0.163 HD
HETATM   27  H   UNK N   1      -0.805  -3.724   1.772  0.00  0.00     0.163 HD
ENDROOT
BRANCH   5  28
HETATM   28  C   UNK N   1       0.539   1.012  -1.594  0.00  0.00     0.075 C 
BRANCH  28  29
HETATM   29  C   UNK N   1       1.154   2.216  -0.961  0.00  0.00    -0.028 A 
HETATM   30  C   UNK N   1       0.592   3.485  -0.871  0.00  0.00     0.096 A 
HETATM   31  N   UNK N   1       1.434   4.304  -0.192  0.00  0.00    -0.365 N 
HETATM   32  C   UNK N   1       2.500   3.551   0.135  0.00  0.00     0.042 A 
HETATM   33  H   UNK N   1       1.294   5.255   0.019  0.00  0.00     0.165 HD
HETATM   34  C   UNK N   1       2.359   2.273  -0.322  0.00  0.00    -0.002 A 
HETATM   35  C   UNK N   1       3.624   3.954   0.849  0.00  0.00     0.030 A 
HETATM   36  C   UNK N   1       3.326   1.295  -0.101  0.00  0.00     0.014 A 
HETATM   37  C   UNK N   1       4.476   1.669   0.616  0.00  0.00     0.001 A 
HETATM   38  C   UNK N   1       4.625   2.993   1.089  0.00  0.00     0.002 A 
ENDBRANCH  28  29
ENDBRANCH   5  28
BRANCH   1  39
HETATM   39  C   UNK N   1       0.316  -3.500  -0.818  0.00  0.00     0.038 C 
BRANCH  39  40
HETATM   40  C   UNK N   1       1.566  -4.077  -0.155  0.00  0.00    -0.020 C 
HETATM   41  C   UNK N   1       1.944  -5.368  -0.846  0.00  0.00     0.009 C 
HETATM   42  C   UNK N   1       2.730  -3.110  -0.300  0.00  0.00     0.009 C 
ENDBRANCH  39  40
ENDBRANCH   1  39
BRANCH   9  43
HETATM   43  C   UNK N   1      -3.482   4.047  -0.913  0.00  0.00     0.144 C 
BRANCH  43  44
HETATM   44  C   UNK N   1      -3.257   4.777   0.374  0.00  0.00     0.141 C 
HETATM   45  O   UNK N   1      -2.218   5.388   0.561  0.00  0.00    -0.650 OA
BRANCH  44  46
HETATM   46  O   UNK N   1      -4.189   4.727   1.346  0.00  0.00    -0.776 OA
HETATM   47  H   UNK N   1      -4.543   5.271   2.022  0.00  0.00     0.167 HD
ENDBRANCH  44  46
ENDBRANCH  43  44
ENDBRANCH   9  43
BRANCH  20  48
HETATM   48  C   UNK N   1      -4.460  -4.316  -0.573  0.00  0.00     0.009 C 
HETATM   49  C   UNK N   1      -3.735  -5.626  -0.826  0.00  0.00     0.012 C 
HETATM   50  C   UNK N   1      -5.564  -4.529   0.461  0.00  0.00     0.012 C 
ENDBRANCH  20  48
TORSDOF 8
