REMARK  0 active torsions:
REMARK  status: ('A' for Active; 'I' for Inactive)
ROOT
HETATM    1  C   UNK N   1       4.982   0.141   0.443  0.00  0.00     0.020 A 
HETATM    2  C   UNK N   1       3.896   1.003   0.267  0.00  0.00     0.040 A 
HETATM    3  C   UNK N   1       2.626   0.475   0.047  0.00  0.00     0.091 A 
HETATM    4  C   UNK N   1       2.446  -0.921   0.030  0.00  0.00     0.043 A 
HETATM    5  N   UNK N   1       3.525  -1.739   0.207  0.00  0.00    -0.367 N 
ATOM      6  HN  UNK N   1       3.391  -2.750   0.189  1.00  0.00     0.165 HD
HETATM    7  C   UNK N   1       4.773  -1.240   0.405  0.00  0.00     0.088 A 
HETATM    8  C   UNK N   1       1.091  -1.524  -0.212  0.00  0.00     0.073 C 
HETATM    9  C   UNK N   1      -0.045  -0.493  -0.271  0.00  0.00     0.020 C 
HETATM   10  C   UNK N   1      -1.215  -1.021  -1.069  0.00  0.00     0.044 C 
HETATM   11  C   UNK N   1      -2.414  -0.272  -0.488  0.00  0.00     0.273 C 
HETATM   12  N   UNK N   1      -1.941   0.439   0.709  0.00  0.00     0.089 N 
HETATM   13  C   UNK N   1      -0.697  -0.237   1.064  0.00  0.00     0.284 C 
HETATM   14  C   UNK N   1      -1.603   1.832   0.360  0.00  0.00     0.275 C 
HETATM   15  C   UNK N   1      -0.649   1.937  -0.853  0.00  0.00     0.063 C 
HETATM   16  C   UNK N   1       0.449   0.858  -0.838  0.00  0.00     0.141 C 
HETATM   17  O   UNK N   1       1.572   1.305  -0.170  0.00  0.00    -0.343 OA
ENDROOT
TORSDOF 0
