REMARK  6 active torsions:
REMARK  status: ('A' for Active; 'I' for Inactive)
REMARK    1  A    between atoms: C_2  and  C_3 
REMARK    2  A    between atoms: C_2  and  N_18 
REMARK    3  A    between atoms: C_4  and  C_5 
REMARK    4  A    between atoms: C_8  and  C_10 
REMARK    5  A    between atoms: C_10  and  C_11 
REMARK       I    between atoms: N_18  and  C_19 
REMARK    6  A    between atoms: N_18  and  O_22 
REMARK       I    between atoms: C_19  and  N_21 
ROOT
HETATM    1  C   UNK N   1       0.065  -0.805   0.086  0.00  0.00     0.058 A 
HETATM    2  C   UNK N   1       1.008  -1.827   0.039  0.00  0.00     0.029 A 
HETATM    3  C   UNK N   1       0.405  -3.116  -0.022  0.00  0.00     0.017 A 
HETATM    4  C   UNK N   1      -0.999  -3.076  -0.023  0.00  0.00    -0.012 A 
HETATM    5  S   UNK N   1      -1.437  -1.489   0.048  0.00  0.00    -0.085 SA
ENDROOT
BRANCH   1   6
HETATM    6  C   UNK N   1       0.307   0.597   0.175  0.00  0.00    -0.057 C 
HETATM    7  C   UNK N   1       0.335   1.795   0.241  0.00  0.00    -0.073 C 
BRANCH   7   8
HETATM    8  C   UNK N   1       0.124   3.242   0.284  0.00  0.00     0.194 C 
HETATM    9  C   UNK N   1       1.029   3.894  -0.750  0.00  0.00     0.049 C 
BRANCH   8  10
HETATM   10  N   UNK N   1      -1.282   3.542   0.016  0.00  0.00    -0.194 N 
HETATM   11  C   UNK N   1      -1.762   4.814   0.074  0.00  0.00     0.341 C 
HETATM   12  O   UNK N   1      -2.946   5.026  -0.147  0.00  0.00    -0.245 OA
HETATM   13  N   UNK N   1      -0.952   5.848   0.378  0.00  0.00    -0.350 N 
HETATM   14  H   UNK N   1      -0.002   5.712   0.600  0.00  0.00     0.160 HD
HETATM   15  H   UNK N   1      -1.319   6.761   0.378  0.00  0.00     0.160 HD
BRANCH  10  16
HETATM   16  O   UNK N   1      -2.137   2.543  -0.268  0.00  0.00    -0.282 OA
HETATM   17  H   UNK N   1      -3.069   2.716  -0.472  0.00  0.00     0.245 HD
ENDBRANCH  10  16
ENDBRANCH   8  10
ENDBRANCH   7   8
ENDBRANCH   1   6
BRANCH   4  18
HETATM   18  C   UNK N   1      -1.985  -4.213  -0.050  0.00  0.00     0.084 C 
BRANCH  18  19
HETATM   19  C   UNK N   1      -1.454  -5.622  -0.037  0.00  0.00    -0.053 A 
HETATM   20  C   UNK N   1      -0.081  -5.910  -0.033  0.00  0.00     0.010 A 
HETATM   21  C   UNK N   1       0.369  -7.229  -0.014  0.00  0.00     0.043 A 
HETATM   22  C   UNK N   1      -0.552  -8.277   0.002  0.00  0.00     0.116 A 
HETATM   23  C   UNK N   1      -1.923  -8.003  -0.000  0.00  0.00     0.043 A 
HETATM   24  F   UNK N   1      -0.114  -9.557   0.021  0.00  0.00    -0.206 F 
HETATM   25  C   UNK N   1      -2.372  -6.678  -0.020  0.00  0.00     0.010 A 
ENDBRANCH  18  19
ENDBRANCH   4  18
TORSDOF 6
