REMARK  5 active torsions:
REMARK  status: ('A' for Active; 'I' for Inactive)
REMARK    1  A    between atoms: C_16  and  C_4 
REMARK    2  A    between atoms: C_14  and  C_10 
REMARK    3  A    between atoms: C_18  and  C_10 
REMARK    4  A    between atoms: O_23  and  C_19 
REMARK    5  A    between atoms: O_24  and  C_20 
ROOT
HETATM    1  C   UNK N   1       1.129   1.114   0.288  0.00  0.00     0.037 A 
HETATM    2  C   UNK N   1       3.532   1.307   0.201  0.00  0.00     0.052 A 
HETATM    3  C   UNK N   1       3.763  -1.474   0.074  0.00  0.00     0.054 A 
HETATM    4  C   UNK N   1       2.385   0.515   0.216  0.00  0.00    -0.019 A 
HETATM    5  C   UNK N   1      -0.010   0.311   0.317  0.00  0.00     0.009 A 
HETATM    6  C   UNK N   1       2.494  -0.889   0.166  0.00  0.00    -0.000 A 
HETATM    7  C   UNK N   1       1.318  -1.669   0.207  0.00  0.00     0.025 A 
HETATM    8  C   UNK N   1       4.806   0.735   0.124  0.00  0.00     0.102 A 
HETATM    9  C   UNK N   1       4.928  -0.680   0.043  0.00  0.00     0.102 A 
HETATM   10  N   UNK N   1       0.112  -1.043   0.288  0.00  0.00    -0.362 N 
ATOM     11  HN  UNK N   1      -0.733  -1.612   0.328  1.00  0.00     0.165 HD
ENDROOT
BRANCH   7  12
HETATM   12  C   UNK N   1       1.400  -3.183   0.189  0.00  0.00     0.096 C 
BRANCH  12  13
HETATM   13  C   UNK N   1       0.126  -3.993   0.095  0.00  0.00    -0.053 A 
HETATM   14  C   UNK N   1       0.198  -5.371   0.326  0.00  0.00     0.007 A 
HETATM   15  C   UNK N   1      -0.948  -6.168   0.234  0.00  0.00     0.001 A 
HETATM   16  C   UNK N   1      -2.177  -5.592  -0.098  0.00  0.00     0.000 A 
HETATM   17  C   UNK N   1      -2.260  -4.219  -0.339  0.00  0.00     0.001 A 
HETATM   18  C   UNK N   1      -1.114  -3.425  -0.246  0.00  0.00     0.007 A 
ENDBRANCH  12  13
ENDBRANCH   7  12
BRANCH   5  19
HETATM   19  C   UNK N   1      -1.361   0.934   0.399  0.00  0.00     0.052 C 
HETATM   20  C   UNK N   1      -2.211   0.514  -0.787  0.00  0.00     0.011 C 
ENDBRANCH   5  19
BRANCH   9  21
HETATM   21  O   UNK N   1       6.148  -1.259  -0.072  0.00  0.00    -0.353 OA
HETATM   22  C   UNK N   1       6.336  -2.610  -0.258  0.00  0.00     0.210 C 
ENDBRANCH   9  21
BRANCH   8  23
HETATM   23  O   UNK N   1       5.871   1.581   0.125  0.00  0.00    -0.353 OA
HETATM   24  C   UNK N   1       7.194   1.205   0.117  0.00  0.00     0.210 C 
ENDBRANCH   8  23
TORSDOF 5
