REMARK  22 active torsions:
REMARK  status: ('A' for Active; 'I' for Inactive)
REMARK    1  A    between atoms: C_2  and  C_5 
REMARK    2  A    between atoms: C_8  and  C_22 
REMARK    3  A    between atoms: C_9  and  C_18 
REMARK    4  A    between atoms: C_12  and  C_14 
REMARK    5  A    between atoms: C_22  and  C_23 
REMARK    6  A    between atoms: C_23  and  C_24 
REMARK    7  A    between atoms: C_23  and  N_47 
REMARK       I    between atoms: C_24  and  N_26 
REMARK    8  A    between atoms: C_27  and  N_26 
REMARK    9  A    between atoms: C_27  and  C_28 
REMARK   10  A    between atoms: C_27  and  C_36 
REMARK   11  A    between atoms: C_28  and  C_29 
REMARK   12  A    between atoms: C_29  and  C_30 
REMARK   13  A    between atoms: C_30  and  N_31 
REMARK       I    between atoms: N_31  and  C_32 
REMARK       I    between atoms: C_32  and  N_35 
REMARK       I    between atoms: C_36  and  N_38 
REMARK   14  A    between atoms: N_38  and  C_39 
REMARK   15  A    between atoms: C_39  and  C_40 
REMARK   16  A    between atoms: C_40  and  C_41 
REMARK       I    between atoms: N_47  and  C_48 
REMARK   17  A    between atoms: C_48  and  C_50 
REMARK   18  A    between atoms: C_50  and  C_51 
REMARK   19  A    between atoms: C_50  and  N_59 
REMARK   20  A    between atoms: C_51  and  C_52 
REMARK   21  A    between atoms: C_52  and  C_53 
REMARK   22  A    between atoms: C_53  and  N_54 
REMARK       I    between atoms: N_54  and  C_55 
REMARK       I    between atoms: C_55  and  N_58 
ROOT
HETATM    1  C   UNK N   1      -2.185   3.861  -0.405  0.00  0.00     0.181 C 
ENDROOT
BRANCH   1   2
HETATM    2  C   UNK N   1      -2.668   5.193  -0.992  0.00  0.00     0.076 C 
BRANCH   2   3
HETATM    3  C   UNK N   1      -2.246   6.539  -0.438  0.00  0.00    -0.020 A 
HETATM    4  C   UNK N   1      -0.967   7.047  -0.229  0.00  0.00     0.000 A 
HETATM    5  C   UNK N   1       0.303   6.479  -0.343  0.00  0.00     0.022 A 
HETATM    6  C   UNK N   1      -1.122   8.355   0.167  0.00  0.00     0.050 A 
HETATM    7  C   UNK N   1       1.436   7.267  -0.002  0.00  0.00    -0.049 A 
HETATM    8  C   UNK N   1       1.250   8.622   0.346  0.00  0.00     0.018 A 
HETATM    9  C   UNK N   1      -0.027   9.197   0.418  0.00  0.00    -0.022 A 
HETATM   10  N   UNK N   1      -2.416   8.689   0.253  0.00  0.00    -0.357 N 
HETATM   11  C   UNK N   1      -3.123   7.586  -0.094  0.00  0.00     0.024 A 
HETATM   12  H   UNK N   1      -2.782   9.564   0.517  0.00  0.00     0.166 HD
BRANCH   7  13
HETATM   13  C   UNK N   1       2.827   6.658   0.066  0.00  0.00    -0.024 C 
HETATM   14  C   UNK N   1       3.882   7.643   0.553  0.00  0.00     0.019 C 
HETATM   15  C   UNK N   1       3.265   6.172  -1.296  0.00  0.00     0.019 C 
HETATM   16  C   UNK N   1       2.829   5.501   1.048  0.00  0.00     0.019 C 
ENDBRANCH   7  13
BRANCH   9  17
HETATM   17  C   UNK N   1      -0.204  10.670   0.749  0.00  0.00    -0.022 C 
HETATM   18  C   UNK N   1      -0.932  11.365  -0.390  0.00  0.00     0.019 C 
HETATM   19  C   UNK N   1       1.126  11.389   0.939  0.00  0.00     0.019 C 
HETATM   20  C   UNK N   1      -1.008  10.833   2.024  0.00  0.00     0.019 C 
ENDBRANCH   9  17
BRANCH  11  21
HETATM   21  C   UNK N   1      -4.638   7.601  -0.065  0.00  0.00    -0.008 C 
HETATM   22  C   UNK N   1      -5.089   7.900   1.353  0.00  0.00     0.021 C 
HETATM   23  C   UNK N   1      -5.156   8.698  -0.975  0.00  0.00     0.021 C 
HETATM   24  C   UNK N   1      -5.286   6.298  -0.484  0.00  0.00     0.021 C 
ENDBRANCH  11  21
ENDBRANCH   2   3
ENDBRANCH   1   2
BRANCH   1  25
HETATM   25  C   UNK N   1      -2.323   3.546   1.071  0.00  0.00     0.241 C 
HETATM   26  O   UNK N   1      -2.579   4.453   1.847  0.00  0.00    -0.271 OA
HETATM   27  N   UNK N   1      -2.226   2.274   1.556  0.00  0.00    -0.346 N 
HETATM   28  H   UNK N   1      -2.372   2.144   2.521  0.00  0.00     0.163 HD
BRANCH  27  29
HETATM   29  C   UNK N   1      -1.924   1.099   0.760  0.00  0.00     0.176 C 
BRANCH  29  30
HETATM   30  C   UNK N   1      -2.782   0.815  -0.469  0.00  0.00     0.036 C 
BRANCH  30  31
HETATM   31  C   UNK N   1      -3.976  -0.076  -0.137  0.00  0.00     0.023 C 
BRANCH  31  32
HETATM   32  C   UNK N   1      -4.865   0.469   0.983  0.00  0.00     0.138 C 
BRANCH  32  33
HETATM   33  N   UNK N   1      -5.308   1.824   0.735  0.00  0.00    -0.227 N 
HETATM   34  C   UNK N   1      -6.072   2.201  -0.401  0.00  0.00     0.665 C 
HETATM   35  N   UNK N   1      -6.308   1.363  -1.342  0.00  0.00    -0.235 N 
HETATM   36  N   UNK N   1      -6.591   3.509  -0.487  0.00  0.00    -0.235 N 
HETATM   37  H   UNK N   1      -6.956   1.198  -2.065  0.00  0.00     0.174 HD
ATOM     38  HN  UNK N   1      -5.595   0.633  -1.342  1.00  0.00     0.174 HD
HETATM   39  H   UNK N   1      -5.981   4.279  -0.548  0.00  0.00     0.174 HD
HETATM   40  H   UNK N   1      -7.565   3.653  -0.487  0.00  0.00     0.174 HD
HETATM   41  H   UNK N   1      -5.067   2.521   1.388  0.00  0.00     0.177 HD
ENDBRANCH  32  33
ENDBRANCH  31  32
ENDBRANCH  30  31
ENDBRANCH  29  30
BRANCH  29  42
HETATM   42  C   UNK N   1      -0.603   0.422   1.028  0.00  0.00     0.240 C 
HETATM   43  O   UNK N   1       0.391   1.109   1.171  0.00  0.00    -0.271 OA
HETATM   44  N   UNK N   1      -0.482  -0.921   1.144  0.00  0.00    -0.359 N 
HETATM   45  H   UNK N   1       0.408  -1.282   1.362  0.00  0.00     0.162 HD
BRANCH  44  46
HETATM   46  C   UNK N   1      -1.562  -1.860   0.971  0.00  0.00     0.127 C 
BRANCH  46  47
HETATM   47  C   UNK N   1      -1.255  -2.844  -0.164  0.00  0.00     0.058 C 
BRANCH  47  48
HETATM   48  C   UNK N   1       0.154  -3.359  -0.138  0.00  0.00    -0.057 A 
HETATM   49  C   UNK N   1       1.196  -2.579  -0.660  0.00  0.00     0.007 A 
HETATM   50  C   UNK N   1       2.510  -3.055  -0.638  0.00  0.00     0.001 A 
HETATM   51  C   UNK N   1       2.788  -4.313  -0.097  0.00  0.00     0.000 A 
HETATM   52  C   UNK N   1       1.750  -5.098   0.416  0.00  0.00     0.001 A 
HETATM   53  C   UNK N   1       0.434  -4.623   0.393  0.00  0.00     0.007 A 
ENDBRANCH  47  48
ENDBRANCH  46  47
ENDBRANCH  44  46
ENDBRANCH  29  42
ENDBRANCH  27  29
ENDBRANCH   1  25
BRANCH   1  54
HETATM   54  N   UNK N   1      -1.056   3.311  -1.124  0.00  0.00    -0.346 N 
HETATM   55  C   UNK N   1       0.232   3.338  -0.715  0.00  0.00     0.240 C 
HETATM   56  O   UNK N   1       0.535   3.809   0.370  0.00  0.00    -0.271 OA
HETATM   57  H   UNK N   1      -1.243   2.879  -1.989  0.00  0.00     0.163 HD
BRANCH  55  58
HETATM   58  C   UNK N   1       1.281   2.801  -1.641  0.00  0.00     0.167 C 
BRANCH  58  59
HETATM   59  C   UNK N   1       2.290   1.845  -0.999  0.00  0.00     0.036 C 
BRANCH  59  60
HETATM   60  C   UNK N   1       3.339   2.533  -0.130  0.00  0.00     0.023 C 
BRANCH  60  61
HETATM   61  C   UNK N   1       4.485   3.038  -0.995  0.00  0.00     0.138 C 
BRANCH  61  62
HETATM   62  N   UNK N   1       5.720   3.040  -0.252  0.00  0.00    -0.227 N 
HETATM   63  C   UNK N   1       6.391   1.835   0.085  0.00  0.00     0.665 C 
HETATM   64  N   UNK N   1       7.501   1.882   0.721  0.00  0.00    -0.235 N 
HETATM   65  N   UNK N   1       5.856   0.583  -0.299  0.00  0.00    -0.235 N 
HETATM   66  H   UNK N   1       7.959   1.161   1.210  0.00  0.00     0.174 HD
ATOM     67  HN  UNK N   1       7.973   2.786   0.721  1.00  0.00     0.174 HD
HETATM   68  H   UNK N   1       4.916   0.469  -0.566  0.00  0.00     0.174 HD
HETATM   69  H   UNK N   1       6.447  -0.205  -0.299  0.00  0.00     0.174 HD
HETATM   70  H   UNK N   1       6.109   3.900   0.030  0.00  0.00     0.177 HD
ENDBRANCH  61  62
ENDBRANCH  60  61
ENDBRANCH  59  60
ENDBRANCH  58  59
BRANCH  58  71
HETATM   71  N   UNK N   1       1.924   3.865  -2.388  0.00  0.00    -0.418 N 
HETATM   72  H   UNK N   1       2.798   3.848  -2.913  0.00  0.00     0.150 HD
HETATM   73  H   UNK N   1       1.432   4.758  -2.388  0.00  0.00     0.150 HD
ENDBRANCH  58  71
ENDBRANCH  55  58
ENDBRANCH   1  54
TORSDOF 22
