REMARK  5 active torsions:
REMARK  status: ('A' for Active; 'I' for Inactive)
REMARK    1  A    between atoms: C_6  and  C_3 
REMARK    2  A    between atoms: O_16  and  C_3 
REMARK    3  A    between atoms: C_5  and  O_17 
REMARK    4  A    between atoms: C_7  and  N_15 
REMARK    5  A    between atoms: O_18  and  C_9 
ROOT
HETATM    1  C   UNK N   1      -0.840  -0.927   0.199  0.00  0.00     0.143 A 
HETATM    2  C   UNK N   1      -0.249  -2.169  -0.030  0.00  0.00     0.175 A 
HETATM    3  C   UNK N   1       1.120  -2.220  -0.288  0.00  0.00     0.142 A 
HETATM    4  C   UNK N   1       1.254   0.134  -0.101  0.00  0.00     0.227 A 
HETATM    5  F   UNK N   1      -0.996  -3.300   0.011  0.00  0.00    -0.201 F 
HETATM    6  N   UNK N   1       1.701  -3.343  -0.486  0.00  0.00    -0.383 N 
ATOM      7  HN  UNK N   1       2.720  -3.390  -0.486  1.00  0.00     0.157 HD
HETATM    8  N   UNK N   1       1.840  -1.073  -0.322  0.00  0.00    -0.306 N 
ATOM      9  HN  UNK N   1       2.840  -1.115  -0.516  1.00  0.00     0.171 HD
HETATM   10  N   UNK N   1      -0.092   0.214   0.163  0.00  0.00    -0.293 N 
HETATM   11  H   UNK N   1       1.176  -4.162  -0.639  0.00  0.00     0.157 HD
ENDROOT
BRANCH  10  12
HETATM   12  C   UNK N   1      -0.709   1.519   0.461  0.00  0.00     0.234 C 
HETATM   13  C   UNK N   1      -0.631   2.472  -0.725  0.00  0.00     0.088 C 
HETATM   14  C   UNK N   1      -1.640   3.467  -0.264  0.00  0.00     0.153 C 
HETATM   15  C   UNK N   1      -2.729   2.539   0.255  0.00  0.00     0.176 C 
HETATM   16  O   UNK N   1      -2.078   1.415   0.825  0.00  0.00    -0.356 OA
BRANCH  14  17
HETATM   17  O   UNK N   1      -2.071   4.325  -1.279  0.00  0.00    -0.393 OA
HETATM   18  H   UNK N   1      -1.704   4.882  -1.983  0.00  0.00     0.210 HD
ENDBRANCH  14  17
BRANCH  15  19
HETATM   19  C   UNK N   1      -3.653   2.060  -0.866  0.00  0.00     0.198 C 
BRANCH  19  20
HETATM   20  O   UNK N   1      -4.702   1.308  -0.335  0.00  0.00    -0.398 OA
HETATM   21  H   UNK N   1      -5.519   1.678   0.034  0.00  0.00     0.209 HD
ENDBRANCH  19  20
ENDBRANCH  15  19
ENDBRANCH  10  12
BRANCH   4  22
HETATM   22  O   UNK N   1       2.013   1.245  -0.125  0.00  0.00    -0.332 OA
HETATM   23  H   UNK N   1       2.948   1.174  -0.142  0.00  0.00     0.221 HD
ENDBRANCH   4  22
TORSDOF 5
