REMARK  17 active torsions:
REMARK  status: ('A' for Active; 'I' for Inactive)
REMARK    1  A    between atoms: C_21  and  C_19 
REMARK    2  A    between atoms: C_38  and  C_19 
REMARK    3  A    between atoms: N_54  and  C_21 
REMARK    4  A    between atoms: C_36  and  C_32 
REMARK    5  A    between atoms: N_55  and  C_32 
REMARK    6  A    between atoms: C_38  and  C_33 
REMARK    7  A    between atoms: S_63  and  C_33 
REMARK    8  A    between atoms: C_42  and  C_34 
REMARK    9  A    between atoms: C_45  and  C_35 
REMARK   10  A    between atoms: C_38  and  N_52 
REMARK   11  A    between atoms: N_56  and  C_39 
REMARK   12  A    between atoms: S_63  and  C_40 
REMARK   13  A    between atoms: S_65  and  C_41 
REMARK   14  A    between atoms: N_52  and  C_43 
REMARK   15  A    between atoms: S_64  and  C_44 
REMARK       I    between atoms: N_53  and  C_45 
REMARK   16  A    between atoms: S_64  and  C_47 
REMARK   17  A    between atoms: S_65  and  N_53 
ROOT
HETATM    1  O   UNK N   1      -4.578   6.334   0.925  0.00  0.00    -0.200 OA
HETATM    2  O   UNK N   1      -4.021   7.600  -0.340  0.00  0.00    -0.200 OA
HETATM    3  S   UNK N   1      -4.364   6.123  -0.565  0.00  0.00     0.265 S 
ENDROOT
BRANCH   3   4
HETATM    4  C   UNK N   1      -4.994   4.683   0.361  0.00  0.00     0.081 C 
HETATM    5  C   UNK N   1      -4.087   3.814   0.984  0.00  0.00     0.027 C 
HETATM    6  C   UNK N   1      -4.407   2.481   1.122  0.00  0.00     0.032 C 
HETATM    7  C   UNK N   1      -5.607   1.998   0.604  0.00  0.00     0.050 C 
HETATM    8  C   UNK N   1      -6.628   2.902   0.239  0.00  0.00     0.096 C 
HETATM    9  C   UNK N   1      -6.287   4.227   0.089  0.00  0.00     0.051 C 
BRANCH   7  10
HETATM   10  N   UNK N   1      -5.484   0.800  -0.121  0.00  0.00    -0.383 N 
HETATM   11  H   UNK N   1      -5.706  -0.074   0.275  0.00  0.00     0.160 HD
BRANCH  10  12
HETATM   12  C   UNK N   1      -5.004   0.928  -1.513  0.00  0.00     0.093 C 
BRANCH  12  13
HETATM   13  C   UNK N   1      -3.941   2.063  -1.773  0.00  0.00     0.056 C 
BRANCH  13  14
HETATM   14  C   UNK N   1      -2.583   1.959  -1.040  0.00  0.00     0.274 C 
BRANCH  14  15
HETATM   15  N   UNK N   1      -1.597   2.940  -1.508  0.00  0.00     0.092 N 
HETATM   16  C   UNK N   1      -0.258   2.434  -1.166  0.00  0.00     0.298 C 
HETATM   17  C   UNK N   1       0.212   2.911   0.226  0.00  0.00     0.198 C 
HETATM   18  O   UNK N   1       0.210   4.321   0.418  0.00  0.00    -0.388 OA
HETATM   19  C   UNK N   1      -0.555   5.002  -0.559  0.00  0.00     0.198 C 
HETATM   20  C   UNK N   1      -1.852   4.256  -0.901  0.00  0.00     0.298 C 
ENDBRANCH  14  15
ENDBRANCH  13  14
ENDBRANCH  12  13
BRANCH  12  21
HETATM   21  C   UNK N   1      -4.545  -0.401  -2.096  0.00  0.00     0.104 C 
BRANCH  21  22
HETATM   22  S   UNK N   1      -3.036  -1.041  -1.293  0.00  0.00    -0.128 SA
BRANCH  22  23
HETATM   23  C   UNK N   1      -3.843  -2.240  -0.236  0.00  0.00     0.000 A 
HETATM   24  C   UNK N   1      -3.053  -3.194   0.407  0.00  0.00     0.018 A 
HETATM   25  C   UNK N   1      -3.645  -4.155   1.229  0.00  0.00     0.001 A 
HETATM   26  C   UNK N   1      -5.031  -4.164   1.408  0.00  0.00     0.000 A 
HETATM   27  C   UNK N   1      -5.826  -3.209   0.770  0.00  0.00     0.001 A 
HETATM   28  C   UNK N   1      -5.233  -2.249  -0.049  0.00  0.00     0.018 A 
ENDBRANCH  22  23
ENDBRANCH  21  22
ENDBRANCH  12  21
ENDBRANCH  10  12
ENDBRANCH   7  10
BRANCH   8  29
HETATM   29  S   UNK N   1      -8.287   2.450  -0.301  0.00  0.00     0.278 S 
HETATM   30  O   UNK N   1      -8.698   1.168   0.439  0.00  0.00    -0.213 OA
HETATM   31  O   UNK N   1      -8.262   1.939  -1.748  0.00  0.00    -0.213 OA
BRANCH  29  32
HETATM   32  C   UNK N   1      -9.659   3.649  -0.108  0.00  0.00     0.503 C 
HETATM   33  F   UNK N   1     -10.199   3.555   1.161  0.00  0.00    -0.157 F 
HETATM   34  F   UNK N   1      -9.180   4.930  -0.294  0.00  0.00    -0.157 F 
HETATM   35  F   UNK N   1     -10.646   3.407  -1.045  0.00  0.00    -0.157 F 
ENDBRANCH  29  32
ENDBRANCH   8  29
ENDBRANCH   3   4
BRANCH   3  36
HETATM   36  N   UNK N   1      -6.010   6.505  -1.188  0.00  0.00    -0.246 N 
HETATM   37  C   UNK N   1      -7.130   7.177  -0.795  0.00  0.00     0.265 C 
HETATM   38  O   UNK N   1      -8.070   7.218  -1.591  0.00  0.00    -0.267 OA
HETATM   39  H   UNK N   1      -6.141   6.111  -2.081  0.00  0.00     0.182 HD
BRANCH  37  40
HETATM   40  C   UNK N   1      -7.268   7.992   0.434  0.00  0.00     0.033 C 
HETATM   41  C   UNK N   1      -6.273   8.001   1.389  0.00  0.00     0.019 C 
HETATM   42  C   UNK N   1      -6.098   9.059   2.227  0.00  0.00     0.030 C 
HETATM   43  C   UNK N   1      -6.921  10.166   2.089  0.00  0.00     0.030 C 
HETATM   44  C   UNK N   1      -8.117  10.044   1.362  0.00  0.00     0.030 C 
HETATM   45  C   UNK N   1      -8.283   8.947   0.520  0.00  0.00     0.019 C 
BRANCH  43  46
HETATM   46  N   UNK N   1      -6.258  11.411   2.007  0.00  0.00    -0.378 N 
HETATM   47  C   UNK N   1      -7.063  12.609   1.961  0.00  0.00     0.153 C 
HETATM   48  C   UNK N   1      -6.279  13.792   1.464  0.00  0.00     0.292 C 
HETATM   49  N   UNK N   1      -5.570  13.469   0.224  0.00  0.00     0.095 N 
HETATM   50  C   UNK N   1      -4.515  12.503   0.457  0.00  0.00     0.292 C 
HETATM   51  C   UNK N   1      -4.917  11.360   1.395  0.00  0.00     0.153 C 
BRANCH  49  52
HETATM   52  C   UNK N   1      -6.371  13.151  -0.978  0.00  0.00     0.307 C 
BRANCH  52  53
HETATM   53  C   UNK N   1      -7.648  13.960  -1.056  0.00  0.00    -0.044 C 
HETATM   54  C   UNK N   1      -8.908  13.170  -1.303  0.00  0.00     0.045 C 
HETATM   55  C   UNK N   1     -10.114  13.704  -0.553  0.00  0.00    -0.044 C 
HETATM   56  C   UNK N   1     -11.344  12.959  -1.028  0.00  0.00     0.015 C 
HETATM   57  C   UNK N   1      -9.968  13.480   0.943  0.00  0.00     0.015 C 
HETATM   58  C   UNK N   1     -10.271  15.182  -0.892  0.00  0.00     0.013 C 
HETATM   59  C   UNK N   1      -9.014  16.017  -0.605  0.00  0.00     0.040 C 
HETATM   60  C   UNK N   1      -7.685  15.306  -0.793  0.00  0.00    -0.044 C 
BRANCH  60  61
HETATM   61  C   UNK N   1      -6.431  16.093  -0.544  0.00  0.00    -0.029 A 
HETATM   62  C   UNK N   1      -5.232  15.776  -1.210  0.00  0.00     0.013 A 
HETATM   63  C   UNK N   1      -4.036  16.405  -0.873  0.00  0.00     0.024 A 
HETATM   64  C   UNK N   1      -4.018  17.363   0.138  0.00  0.00     0.034 A 
HETATM   65  C   UNK N   1      -5.208  17.725   0.780  0.00  0.00     0.024 A 
HETATM   66 Cl   UNK N   1      -2.500  18.094   0.609  0.00  0.00    -0.084 Cl
HETATM   67  C   UNK N   1      -6.414  17.100   0.433  0.00  0.00     0.013 A 
ENDBRANCH  60  61
ENDBRANCH  52  53
ENDBRANCH  49  52
ENDBRANCH  43  46
ENDBRANCH  37  40
ENDBRANCH   3  36
TORSDOF 17
