REMARK  3 active torsions:
REMARK  status: ('A' for Active; 'I' for Inactive)
REMARK       I    between atoms: C_2  and  N_4 
REMARK    1  A    between atoms: N_4  and  C_5 
REMARK    2  A    between atoms: C_8  and  C_11 
REMARK       I    between atoms: C_11  and  N_13 
REMARK    3  A    between atoms: N_13  and  C_14 
ROOT
HETATM    1  C   UNK N   1       0.952   2.131   0.033  0.00  0.00     0.034 A 
HETATM    2  C   UNK N   1       2.152   1.411  -0.058  0.00  0.00     0.030 A 
HETATM    3  C   UNK N   1       2.145   0.011   0.008  0.00  0.00     0.019 A 
HETATM    4  C   UNK N   1       0.933  -0.678   0.171  0.00  0.00     0.032 A 
HETATM    5  C   UNK N   1      -0.256   0.047   0.296  0.00  0.00     0.019 A 
HETATM    6  C   UNK N   1      -0.248   1.434   0.231  0.00  0.00     0.030 A 
ENDROOT
BRANCH   4   7
HETATM    7  C   UNK N   1       0.870  -2.150   0.098  0.00  0.00     0.252 C 
HETATM    8  O   UNK N   1       1.892  -2.802  -0.044  0.00  0.00    -0.268 OA
HETATM    9  N   UNK N   1      -0.359  -2.747   0.116  0.00  0.00    -0.349 N 
HETATM   10  H   UNK N   1      -1.115  -2.156   0.335  0.00  0.00     0.163 HD
BRANCH   9  11
HETATM   11  C   UNK N   1      -0.702  -4.135  -0.145  0.00  0.00     0.022 C 
HETATM   12  C   UNK N   1      -1.273  -4.751   1.114  0.00  0.00     0.037 C 
HETATM   13  C   UNK N   1      -1.777  -4.148  -1.212  0.00  0.00     0.037 C 
HETATM   14  C   UNK N   1       0.454  -4.991  -0.639  0.00  0.00     0.037 C 
ENDBRANCH   9  11
ENDBRANCH   4   7
BRANCH   1  15
HETATM   15  N   UNK N   1       0.974   3.547  -0.129  0.00  0.00    -0.328 N 
HETATM   16  C   UNK N   1      -0.122   4.353  -0.201  0.00  0.00     0.218 C 
HETATM   17  C   UNK N   1       0.060   5.815  -0.410  0.00  0.00     0.117 C 
HETATM   18  O   UNK N   1      -1.254   3.900  -0.121  0.00  0.00    -0.274 OA
HETATM   19  H   UNK N   1       1.857   3.979  -0.193  0.00  0.00     0.169 HD
ENDBRANCH   1  15
TORSDOF 3
