REMARK  4 active torsions:
REMARK  status: ('A' for Active; 'I' for Inactive)
REMARK    1  A    between atoms: C_2  and  O_4 
REMARK    2  A    between atoms: O_4  and  C_5 
REMARK    3  A    between atoms: C_5  and  C_6 
REMARK    4  A    between atoms: C_6  and  N_7 
ROOT
HETATM    1  N   UNK N   1       3.746  -2.861   0.000  0.00  0.00    -0.320 N 
HETATM    2  C   UNK N   1       4.915  -2.146   0.000  0.00  0.00     0.070 A 
HETATM    3  C   UNK N   1       5.105  -0.779  -0.000  0.00  0.00     0.049 A 
HETATM    4  C   UNK N   1       6.492  -0.607  -0.000  0.00  0.00     0.091 A 
HETATM    5  N   UNK N   1       7.116  -1.811   0.000  0.00  0.00    -0.360 N 
HETATM    6  C   UNK N   1       6.138  -2.729   0.000  0.00  0.00     0.128 A 
HETATM    7  C   UNK N   1       6.259  -4.099   0.000  0.00  0.00     0.276 A 
HETATM    8  O   UNK N   1       7.348  -4.642   0.000  0.00  0.00    -0.266 OA
HETATM    9  N   UNK N   1       5.110  -4.842   0.000  0.00  0.00    -0.298 N 
HETATM   10  C   UNK N   1       3.869  -4.261   0.000  0.00  0.00     0.181 A 
HETATM   11  S   UNK N   1       2.737  -5.147  -0.000  0.00  0.00    -0.040 SA
HETATM   12  H   UNK N   1       8.087  -1.976   0.000  0.00  0.00     0.165 HD
HETATM   13  H   UNK N   1       5.177  -5.825   0.000  0.00  0.00     0.171 HD
ENDROOT
BRANCH   1  14
HETATM   14  C   UNK N   1       2.495  -2.050  -0.000  0.00  0.00     0.158 C 
BRANCH  14  15
HETATM   15  C   UNK N   1       1.172  -2.797   0.000  0.00  0.00     0.188 C 
BRANCH  15  16
HETATM   16  O   UNK N   1       0.070  -1.937  -0.000  0.00  0.00    -0.385 OA
BRANCH  16  17
HETATM   17  C   UNK N   1      -1.113  -2.718   0.000  0.00  0.00     0.113 C 
HETATM   18  C   UNK N   1      -2.428  -1.970  -0.000  0.00  0.00     0.039 C 
HETATM   19  C   UNK N   1      -1.134  -4.253  -0.000  0.00  0.00     0.039 C 
ENDBRANCH  16  17
ENDBRANCH  15  16
ENDBRANCH  14  15
ENDBRANCH   1  14
TORSDOF 4
