REMARK  1 active torsions:
REMARK  status: ('A' for Active; 'I' for Inactive)
REMARK    1  A    between atoms: C_25  and  N_29 
ROOT
HETATM    1  C   UNK N   1       7.717   2.754  -1.757  0.00  0.00     0.041 C 
HETATM    2  C   UNK N   1       6.381   2.669  -1.015  0.00  0.00     0.137 C 
HETATM    3  C   UNK N   1       6.458   1.644   0.138  0.00  0.00     0.079 C 
HETATM    4  C   UNK N   1       7.321   2.244   1.040  0.00  0.00     0.027 C 
HETATM    5  C   UNK N   1       8.594   1.768   1.216  0.00  0.00     0.113 C 
HETATM    6  C   UNK N   1       9.013   0.622   0.547  0.00  0.00     0.042 C 
HETATM    7  C   UNK N   1       8.068  -0.168  -0.096  0.00  0.00     0.016 C 
HETATM    8  C   UNK N   1       6.749   0.277  -0.250  0.00  0.00     0.020 C 
HETATM    9  C   UNK N   1       5.718  -0.859  -0.377  0.00  0.00     0.250 C 
HETATM   10  O   UNK N   1       6.147  -2.008  -0.424  0.00  0.00    -0.268 OA
HETATM   11  N   UNK N   1       4.363  -0.681  -0.315  0.00  0.00    -0.347 N 
HETATM   12  C   UNK N   1       3.850   0.646  -0.191  0.00  0.00     0.185 C 
HETATM   13  C   UNK N   1       2.397   0.925   0.038  0.00  0.00     0.058 A 
HETATM   14  C   UNK N   1       1.878   2.214   0.180  0.00  0.00     0.040 A 
HETATM   15  C   UNK N   1       0.530   2.043   0.144  0.00  0.00     0.143 A 
HETATM   16  N   UNK N   1       0.260   0.721   0.057  0.00  0.00    -0.286 N 
HETATM   17  N   UNK N   1       1.391   0.038  -0.014  0.00  0.00    -0.299 N 
ATOM     18  HN  UNK N   1       1.482  -0.975  -0.095  1.00  0.00     0.187 HD
HETATM   19  C   UNK N   1      -1.044   0.102  -0.073  0.00  0.00     0.179 C 
HETATM   20  C   UNK N   1      -0.415   3.116   0.074  0.00  0.00     0.120 C 
HETATM   21  N   UNK N   1      -1.129   4.022   0.019  0.00  0.00    -0.190 NA
HETATM   22  C   UNK N   1       2.658   3.472   0.198  0.00  0.00    -0.003 A 
HETATM   23  C   UNK N   1       3.983   3.310   0.023  0.00  0.00     0.054 A 
HETATM   24  C   UNK N   1       4.853   4.317  -0.207  0.00  0.00     0.113 A 
HETATM   25  C   UNK N   1       4.369   5.627  -0.181  0.00  0.00     0.132 A 
HETATM   26  N   UNK N   1       3.031   5.836   0.041  0.00  0.00    -0.350 N 
ATOM     27  HN  UNK N   1       2.675   6.791   0.083  1.00  0.00     0.166 HD
HETATM   28  C   UNK N   1       2.161   4.785   0.208  0.00  0.00     0.102 A 
HETATM   29  O   UNK N   1       6.102   3.977  -0.570  0.00  0.00    -0.341 OA
HETATM   30  C   UNK N   1       3.478  -1.829  -0.309  0.00  0.00     0.153 C 
HETATM   31  F   UNK N   1       9.465   2.535   1.896  0.00  0.00    -0.206 F 
ENDROOT
BRANCH  25  32
HETATM   32  N   UNK N   1       5.221   6.715  -0.466  0.00  0.00    -0.383 N 
HETATM   33  H   UNK N   1       6.175   6.579  -0.665  0.00  0.00     0.157 HD
HETATM   34  H   UNK N   1       4.853   7.628  -0.466  0.00  0.00     0.157 HD
ENDBRANCH  25  32
TORSDOF 1
