REMARK  4 active torsions:
REMARK  status: ('A' for Active; 'I' for Inactive)
REMARK    1  A    between atoms: C_15  and  C_12 
REMARK    2  A    between atoms: C_17  and  C_12 
REMARK    3  A    between atoms: O_21  and  C_15 
REMARK    4  A    between atoms: N_18  and  C_16 
ROOT
HETATM    1  C   UNK N   1       1.430   2.814  -0.388  0.00  0.00     0.118 C 
HETATM    2  N   UNK N   1       0.225   2.625  -0.814  0.00  0.00    -0.340 N 
ATOM      3  HN  UNK N   1       0.113   1.955  -1.574  1.00  0.00     0.167 HD
ENDROOT
BRANCH   1   4
HETATM    4  C   UNK N   1       2.518   1.975  -0.974  0.00  0.00     0.125 C 
BRANCH   4   5
HETATM    5  C   UNK N   1       2.998   0.824  -0.063  0.00  0.00     0.167 C 
HETATM    6  C   UNK N   1       2.115   0.558   1.154  0.00  0.00     0.044 C 
HETATM    7  C   UNK N   1       1.050  -0.360   0.615  0.00  0.00     0.033 C 
HETATM    8  C   UNK N   1       1.729  -1.086  -0.537  0.00  0.00     0.273 C 
HETATM    9  N   UNK N   1       2.998  -0.416  -0.830  0.00  0.00     0.098 N 
HETATM   10  C   UNK N   1       4.073  -1.228  -0.270  0.00  0.00     0.273 C 
HETATM   11  C   UNK N   1       5.094  -0.282   0.335  0.00  0.00     0.033 C 
HETATM   12  C   UNK N   1       4.428   1.078   0.358  0.00  0.00     0.044 C 
ENDBRANCH   4   5
ENDBRANCH   1   4
BRANCH   1  13
HETATM   13  O   UNK N   1       1.699   3.633   0.648  0.00  0.00    -0.349 OA
HETATM   14  H   UNK N   1       2.285   3.756   1.369  0.00  0.00     0.219 HD
ENDBRANCH   1  13
BRANCH   2  15
HETATM   15  C   UNK N   1      -0.966   3.249  -0.340  0.00  0.00     0.045 A 
HETATM   16  C   UNK N   1      -2.111   2.440  -0.187  0.00  0.00    -0.035 A 
HETATM   17  C   UNK N   1      -2.059   0.981  -0.497  0.00  0.00     0.050 C 
HETATM   18  C   UNK N   1      -3.310   2.986   0.268  0.00  0.00     0.009 A 
HETATM   19  C   UNK N   1      -3.394   4.344   0.567  0.00  0.00     0.001 A 
HETATM   20  C   UNK N   1      -2.280   5.166   0.397  0.00  0.00     0.009 A 
HETATM   21  C   UNK N   1      -1.066   4.638  -0.053  0.00  0.00    -0.035 A 
HETATM   22  C   UNK N   1       0.060   5.590  -0.272  0.00  0.00     0.050 C 
ENDBRANCH   2  15
TORSDOF 4
