REMARK  25 active torsions:
REMARK  status: ('A' for Active; 'I' for Inactive)
REMARK    1  A    between atoms: C_2  and  C_3 
REMARK    2  A    between atoms: C_3  and  C_5 
REMARK    3  A    between atoms: C_5  and  C_6 
REMARK    4  A    between atoms: C_5  and  N_25 
REMARK       I    between atoms: C_6  and  N_8 
REMARK    5  A    between atoms: C_12  and  C_13 
REMARK       I    between atoms: C_13  and  N_15 
REMARK    6  A    between atoms: C_16  and  N_15 
REMARK    7  A    between atoms: C_16  and  C_17 
REMARK    8  A    between atoms: C_16  and  C_22 
REMARK    9  A    between atoms: C_17  and  C_18 
REMARK   10  A    between atoms: C_18  and  C_19 
REMARK       I    between atoms: C_19  and  N_21 
REMARK   11  A    between atoms: C_22  and  O_24 
REMARK       I    between atoms: N_25  and  C_26 
REMARK   12  A    between atoms: C_26  and  C_28 
REMARK   13  A    between atoms: C_28  and  C_29 
REMARK   14  A    between atoms: C_28  and  N_31 
REMARK   15  A    between atoms: C_29  and  O_30 
REMARK       I    between atoms: N_31  and  C_32 
REMARK   16  A    between atoms: C_32  and  C_34 
REMARK   17  A    between atoms: C_34  and  C_35 
REMARK   18  A    between atoms: C_34  and  N_38 
REMARK       I    between atoms: N_38  and  C_39 
REMARK   19  A    between atoms: C_41  and  C_39 
REMARK       I    between atoms: N_45  and  C_46 
REMARK   20  A    between atoms: C_46  and  C_48 
REMARK   21  A    between atoms: C_48  and  N_50 
REMARK       I    between atoms: N_50  and  C_51 
REMARK   22  A    between atoms: C_51  and  C_53 
REMARK   23  A    between atoms: C_53  and  C_54 
REMARK   24  A    between atoms: C_53  and  N_58 
REMARK   25  A    between atoms: C_54  and  C_55 
REMARK       I    between atoms: C_55  and  N_57 
ROOT
HETATM    1  C   UNK N   1       2.799  -4.387  -1.113  0.00  0.00     0.200 C 
ENDROOT
BRANCH   1   2
HETATM    2  C   UNK N   1       1.888  -5.523  -0.761  0.00  0.00     0.243 C 
HETATM    3  N   UNK N   1       1.265  -5.539   0.447  0.00  0.00    -0.346 N 
HETATM    4  H   UNK N   1       1.769  -5.245   1.241  0.00  0.00     0.163 HD
HETATM    5  O   UNK N   1       1.523  -6.264  -1.658  0.00  0.00    -0.271 OA
BRANCH   3   6
HETATM    6  C   UNK N   1      -0.115  -5.972   0.619  0.00  0.00     0.180 C 
BRANCH   6   7
HETATM    7  C   UNK N   1      -0.427  -7.456   0.299  0.00  0.00     0.013 C 
HETATM    8  C   UNK N   1      -0.685  -7.822  -1.158  0.00  0.00     0.012 C 
BRANCH   7   9
HETATM    9  C   UNK N   1       0.391  -8.493   1.066  0.00  0.00     0.002 C 
HETATM   10  C   UNK N   1       1.704  -8.824   0.377  0.00  0.00     0.005 C 
ENDBRANCH   7   9
ENDBRANCH   6   7
BRANCH   6  11
HETATM   11  C   UNK N   1      -0.991  -4.968  -0.128  0.00  0.00     0.243 C 
HETATM   12  O   UNK N   1      -0.442  -4.089  -0.780  0.00  0.00    -0.271 OA
HETATM   13  N   UNK N   1      -2.351  -4.988  -0.076  0.00  0.00    -0.337 N 
HETATM   14  C   UNK N   1      -3.109  -5.975   0.631  0.00  0.00     0.127 C 
HETATM   15  C   UNK N   1      -3.139  -3.990  -0.755  0.00  0.00     0.179 C 
HETATM   16  C   UNK N   1      -4.550  -5.704   0.227  0.00  0.00     0.022 C 
HETATM   17  C   UNK N   1      -4.574  -4.304  -0.383  0.00  0.00     0.037 C 
BRANCH  15  18
HETATM   18  C   UNK N   1      -2.744  -2.605  -0.310  0.00  0.00     0.241 C 
HETATM   19  O   UNK N   1      -2.324  -1.815  -1.142  0.00  0.00    -0.271 OA
HETATM   20  N   UNK N   1      -2.763  -2.285   1.013  0.00  0.00    -0.345 N 
HETATM   21  H   UNK N   1      -3.093  -2.970   1.639  0.00  0.00     0.163 HD
BRANCH  20  22
HETATM   22  C   UNK N   1      -2.334  -1.015   1.577  0.00  0.00     0.182 C 
BRANCH  22  23
HETATM   23  C   UNK N   1      -3.344   0.114   1.323  0.00  0.00     0.045 C 
BRANCH  23  24
HETATM   24  C   UNK N   1      -3.461   0.514  -0.139  0.00  0.00     0.105 C 
BRANCH  24  25
HETATM   25  C   UNK N   1      -4.866   0.892  -0.461  0.00  0.00     0.215 C 
HETATM   26  O   UNK N   1      -5.375   1.869   0.062  0.00  0.00    -0.274 OA
HETATM   27  N   UNK N   1      -5.572   0.153  -1.338  0.00  0.00    -0.370 N 
HETATM   28  H   UNK N   1      -6.298   0.331  -1.979  0.00  0.00     0.159 HD
HETATM   29  H   UNK N   1      -5.297  -0.792  -1.338  0.00  0.00     0.159 HD
ENDBRANCH  24  25
ENDBRANCH  23  24
ENDBRANCH  22  23
BRANCH  22  30
HETATM   30  C   UNK N   1      -0.890  -0.697   1.268  0.00  0.00     0.163 C 
HETATM   31  O   UNK N   1      -0.578   0.366   0.754  0.00  0.00    -0.648 OA
BRANCH  30  32
HETATM   32  O   UNK N   1       0.070  -1.586   1.588  0.00  0.00    -0.775 OA
HETATM   33  H   UNK N   1      -0.131  -2.473   1.810  0.00  0.00     0.167 HD
ENDBRANCH  30  32
ENDBRANCH  22  30
ENDBRANCH  20  22
ENDBRANCH  15  18
ENDBRANCH   6  11
ENDBRANCH   3   6
ENDBRANCH   1   2
BRANCH   1  34
HETATM   34  C   UNK N   1       2.832  -3.130  -0.231  0.00  0.00     0.199 C 
BRANCH  34  35
HETATM   35  O   UNK N   1       3.159  -3.412   1.095  0.00  0.00    -0.398 OA
HETATM   36  H   UNK N   1       3.103  -3.707   2.018  0.00  0.00     0.209 HD
ENDBRANCH  34  35
ENDBRANCH   1  34
BRANCH   1  37
HETATM   37  N   UNK N   1       4.048  -4.806  -1.690  0.00  0.00    -0.344 N 
HETATM   38  C   UNK N   1       5.087  -5.300  -0.989  0.00  0.00     0.241 C 
HETATM   39  O   UNK N   1       6.078  -5.676  -1.596  0.00  0.00    -0.271 OA
HETATM   40  H   UNK N   1       4.151  -4.727  -2.666  0.00  0.00     0.163 HD
BRANCH  38  41
HETATM   41  C   UNK N   1       5.085  -5.326   0.516  0.00  0.00     0.180 C 
BRANCH  41  42
HETATM   42  C   UNK N   1       4.421  -6.556   1.162  0.00  0.00     0.009 C 
HETATM   43  C   UNK N   1       4.894  -7.900   0.634  0.00  0.00     0.012 C 
HETATM   44  C   UNK N   1       4.452  -6.510   2.676  0.00  0.00     0.012 C 
ENDBRANCH  41  42
BRANCH  41  45
HETATM   45  N   UNK N   1       6.371  -4.868   1.002  0.00  0.00    -0.346 N 
HETATM   46  C   UNK N   1       7.487  -5.638   1.019  0.00  0.00     0.241 C 
HETATM   47  O   UNK N   1       7.397  -6.851   0.947  0.00  0.00    -0.271 OA
HETATM   48  H   UNK N   1       6.438  -3.946   1.339  0.00  0.00     0.163 HD
BRANCH  46  49
HETATM   49  C   UNK N   1       8.853  -4.993   0.940  0.00  0.00     0.179 C 
HETATM   50  C   UNK N   1       8.733  -3.480   0.773  0.00  0.00     0.037 C 
HETATM   51  C   UNK N   1       8.671  -3.243  -0.736  0.00  0.00     0.022 C 
HETATM   52  C   UNK N   1       9.372  -4.440  -1.363  0.00  0.00     0.127 C 
HETATM   53  N   UNK N   1       9.449  -5.412  -0.307  0.00  0.00    -0.337 N 
HETATM   54  C   UNK N   1      10.029  -6.636  -0.480  0.00  0.00     0.243 C 
HETATM   55  O   UNK N   1      10.454  -6.967  -1.579  0.00  0.00    -0.271 OA
BRANCH  54  56
HETATM   56  C   UNK N   1      10.198  -7.562   0.698  0.00  0.00     0.172 C 
HETATM   57  C   UNK N   1      11.658  -7.841   1.017  0.00  0.00     0.042 C 
BRANCH  56  58
HETATM   58  N   UNK N   1       9.400  -8.773   0.635  0.00  0.00    -0.346 N 
HETATM   59  C   UNK N   1       9.682  -9.871  -0.115  0.00  0.00     0.241 C 
HETATM   60  O   UNK N   1      10.670  -9.898  -0.834  0.00  0.00    -0.271 OA
HETATM   61  H   UNK N   1       8.583  -8.801   1.183  0.00  0.00     0.163 HD
BRANCH  59  62
HETATM   62  C   UNK N   1       8.794 -11.089  -0.018  0.00  0.00     0.176 C 
BRANCH  62  63
HETATM   63  C   UNK N   1       9.535 -12.234   0.668  0.00  0.00     0.136 C 
BRANCH  63  64
HETATM   64  C   UNK N   1      10.469 -12.944  -0.256  0.00  0.00     0.217 C 
HETATM   65  O   UNK N   1      11.670 -12.917  -0.047  0.00  0.00    -0.274 OA
HETATM   66  N   UNK N   1       9.984 -13.648  -1.297  0.00  0.00    -0.370 N 
HETATM   67  H   UNK N   1       9.361 -13.598  -2.058  0.00  0.00     0.159 HD
HETATM   68  H   UNK N   1      10.406 -14.537  -1.297  0.00  0.00     0.159 HD
ENDBRANCH  63  64
ENDBRANCH  62  63
BRANCH  62  69
HETATM   69  N   UNK N   1       7.598 -10.794   0.756  0.00  0.00    -0.418 N 
HETATM   70  H   UNK N   1       7.357  -9.965   1.298  0.00  0.00     0.150 HD
HETATM   71  H   UNK N   1       6.891 -11.530   0.756  0.00  0.00     0.150 HD
ENDBRANCH  62  69
ENDBRANCH  59  62
ENDBRANCH  56  58
ENDBRANCH  54  56
ENDBRANCH  46  49
ENDBRANCH  41  45
ENDBRANCH  38  41
ENDBRANCH   1  37
TORSDOF 25
