REMARK  6 active torsions:
REMARK  status: ('A' for Active; 'I' for Inactive)
REMARK    1  A    between atoms: C_3  and  C_15 
REMARK    2  A    between atoms: C_5  and  C_8 
REMARK       I    between atoms: C_15  and  N_17 
REMARK    3  A    between atoms: N_17  and  C_18 
REMARK    4  A    between atoms: C_23  and  C_24 
REMARK    5  A    between atoms: C_27  and  C_33 
REMARK    6  A    between atoms: C_33  and  N_34 
ROOT
HETATM    1  C   UNK N   1      -2.066  -0.158  -0.381  0.00  0.00     0.047 A 
HETATM    2  C   UNK N   1      -3.380   0.231  -0.652  0.00  0.00     0.030 A 
HETATM    3  C   UNK N   1      -3.736   1.579  -0.542  0.00  0.00     0.002 A 
HETATM    4  C   UNK N   1      -2.780   2.534  -0.175  0.00  0.00     0.001 A 
HETATM    5  C   UNK N   1      -1.466   2.146   0.107  0.00  0.00     0.016 A 
HETATM    6  C   UNK N   1      -1.099   0.799   0.020  0.00  0.00     0.019 A 
ENDROOT
BRANCH   1   7
HETATM    7  N   UNK N   1      -1.629  -1.489  -0.531  0.00  0.00    -0.322 N 
HETATM    8  C   UNK N   1      -2.234  -2.692  -0.485  0.00  0.00     0.265 C 
HETATM    9  O   UNK N   1      -3.430  -2.805  -0.262  0.00  0.00    -0.267 OA
HETATM   10  H   UNK N   1      -0.663  -1.555  -0.710  0.00  0.00     0.169 HD
BRANCH   8  11
HETATM   11  C   UNK N   1      -1.309  -3.836  -0.484  0.00  0.00     0.097 A 
HETATM   12  C   UNK N   1      -1.440  -5.156  -0.016  0.00  0.00     0.029 A 
HETATM   13  C   UNK N   1      -2.707  -5.712   0.533  0.00  0.00     0.070 C 
HETATM   14  N   UNK N   1      -0.252  -5.873   0.019  0.00  0.00    -0.352 N 
HETATM   15  C   UNK N   1       0.802  -5.144  -0.448  0.00  0.00     0.086 A 
ATOM     16  HN  UNK N   1      -0.177  -6.833   0.356  1.00  0.00     0.166 HD
HETATM   17  S   UNK N   1       0.279  -3.660  -0.889  0.00  0.00    -0.064 SA
BRANCH  15  18
HETATM   18  C   UNK N   1       2.224  -5.520  -0.399  0.00  0.00     0.013 A 
HETATM   19  C   UNK N   1       3.191  -4.647  -0.919  0.00  0.00     0.017 A 
HETATM   20  C   UNK N   1       4.545  -4.949  -0.802  0.00  0.00     0.018 A 
HETATM   21  C   UNK N   1       4.923  -6.121  -0.148  0.00  0.00     0.087 A 
HETATM   22  N   UNK N   1       3.976  -6.959   0.356  0.00  0.00    -0.374 N 
HETATM   23  C   UNK N   1       2.646  -6.685   0.245  0.00  0.00     0.101 A 
ATOM     24  HN  UNK N   1       4.270  -7.814   0.829  1.00  0.00     0.164 HD
ENDBRANCH  15  18
ENDBRANCH   8  11
ENDBRANCH   1   7
BRANCH   6  25
HETATM   25  C   UNK N   1       0.284   0.363   0.397  0.00  0.00     0.062 A 
HETATM   26  C   UNK N   1       1.413   1.170   0.624  0.00  0.00     0.129 A 
HETATM   27  N   UNK N   1       2.400   0.325   0.980  0.00  0.00    -0.302 N 
HETATM   28  C   UNK N   1       3.730   0.361   1.326  0.00  0.00     0.053 A 
HETATM   29  C   UNK N   1       1.892  -0.890   0.982  0.00  0.00     0.155 A 
HETATM   30  C   UNK N   1       4.284  -0.913   1.629  0.00  0.00     0.080 A 
HETATM   31  S   UNK N   1       3.017  -1.999   1.419  0.00  0.00    -0.063 SA
HETATM   32  N   UNK N   1       0.608  -0.939   0.633  0.00  0.00    -0.334 N 
ATOM     33  HN  UNK N   1       0.007  -1.760   0.560  1.00  0.00     0.168 HD
BRANCH  28  34
HETATM   34  C   UNK N   1       4.540   1.610   1.343  0.00  0.00     0.330 C 
BRANCH  34  35
HETATM   35  N   UNK N   1       4.691   2.143  -0.012  0.00  0.00     0.098 N 
HETATM   36  C   UNK N   1       5.332   3.461   0.066  0.00  0.00     0.299 C 
HETATM   37  C   UNK N   1       6.825   3.329   0.404  0.00  0.00     0.198 C 
HETATM   38  O   UNK N   1       7.461   2.556  -0.582  0.00  0.00    -0.388 OA
HETATM   39  C   UNK N   1       6.965   1.251  -0.439  0.00  0.00     0.198 C 
HETATM   40  C   UNK N   1       5.488   1.226  -0.849  0.00  0.00     0.299 C 
ENDBRANCH  34  35
ENDBRANCH  28  34
ENDBRANCH   6  25
TORSDOF 6
