REMARK  8 active torsions:
REMARK  status: ('A' for Active; 'I' for Inactive)
REMARK    1  A    between atoms: C_11  and  C_8 
REMARK    2  A    between atoms: C_20  and  C_8 
REMARK    3  A    between atoms: C_23  and  C_11 
REMARK    4  A    between atoms: C_22  and  C_17 
REMARK    5  A    between atoms: C_24  and  C_18 
REMARK    6  A    between atoms: N_28  and  C_19 
REMARK    7  A    between atoms: N_29  and  C_21 
REMARK    8  A    between atoms: O_31  and  C_23 
REMARK       I    between atoms: N_25  and  C_24 
ROOT
HETATM    1  C   UNK N   1       1.239  -2.446  -0.869  0.00  0.00     0.028 A 
HETATM    2  C   UNK N   1       0.852  -1.128  -0.957  0.00  0.00     0.033 A 
HETATM    3  C   UNK N   1       2.579  -2.457  -0.516  0.00  0.00     0.018 A 
HETATM    4  C   UNK N   1       1.974  -0.381  -0.689  0.00  0.00     0.050 A 
HETATM    5  N   UNK N   1       3.048  -1.181  -0.411  0.00  0.00    -0.314 N 
ENDROOT
BRANCH   4   6
HETATM    6  C   UNK N   1       1.989   1.095  -0.674  0.00  0.00    -0.009 A 
HETATM    7  C   UNK N   1       3.027   1.796  -1.301  0.00  0.00     0.016 A 
HETATM    8  C   UNK N   1       3.208   3.152  -1.055  0.00  0.00     0.031 A 
HETATM    9  C   UNK N   1       2.358   3.826  -0.171  0.00  0.00     0.039 A 
HETATM   10  C   UNK N   1       1.270   3.143   0.398  0.00  0.00     0.031 A 
HETATM   11  C   UNK N   1       1.081   1.781   0.140  0.00  0.00     0.016 A 
BRANCH   9  12
HETATM   12  N   UNK N   1       2.658   5.175   0.215  0.00  0.00    -0.317 N 
HETATM   13  C   UNK N   1       1.987   5.927   1.103  0.00  0.00     0.115 A 
HETATM   14  C   UNK N   1       2.661   7.126   1.228  0.00  0.00     0.106 A 
HETATM   15  N   UNK N   1       3.743   7.098   0.422  0.00  0.00    -0.360 N 
HETATM   16  C   UNK N   1       3.722   5.895  -0.183  0.00  0.00     0.188 A 
ATOM     17  HN  UNK N   1       4.435   7.836   0.297  1.00  0.00     0.166 HD
ENDBRANCH   9  12
ENDBRANCH   4   6
BRANCH   5  18
HETATM   18  C   UNK N   1       4.369  -0.681  -0.017  0.00  0.00     0.045 A 
HETATM   19  C   UNK N   1       4.437   0.524   0.711  0.00  0.00     0.031 A 
HETATM   20  C   UNK N   1       5.635   1.182   0.950  0.00  0.00     0.019 A 
HETATM   21  C   UNK N   1       6.830   0.641   0.490  0.00  0.00     0.032 A 
HETATM   22  C   UNK N   1       6.811  -0.604  -0.158  0.00  0.00     0.026 A 
HETATM   23  C   UNK N   1       5.601  -1.277  -0.408  0.00  0.00    -0.034 A 
HETATM   24  C   UNK N   1       5.680  -2.524  -1.212  0.00  0.00     0.050 C 
BRANCH  21  25
HETATM   25  C   UNK N   1       8.083   1.418   0.620  0.00  0.00     0.249 C 
HETATM   26  N   UNK N   1       9.249   0.915   0.167  0.00  0.00    -0.366 N 
HETATM   27  H   UNK N   1       9.356  -0.006  -0.164  0.00  0.00     0.159 HD
HETATM   28  H   UNK N   1      10.039   1.503   0.167  0.00  0.00     0.159 HD
HETATM   29  O   UNK N   1       8.060   2.546   1.091  0.00  0.00    -0.268 OA
ENDBRANCH  21  25
ENDBRANCH   5  18
BRANCH   3  30
HETATM   30  C   UNK N   1       3.331  -3.712  -0.159  0.00  0.00     0.068 C 
BRANCH  30  31
HETATM   31  C   UNK N   1       2.548  -5.016  -0.384  0.00  0.00     0.116 C 
BRANCH  31  32
HETATM   32  C   UNK N   1       1.491  -5.284   0.653  0.00  0.00     0.139 C 
HETATM   33  O   UNK N   1       0.498  -4.579   0.729  0.00  0.00    -0.650 OA
BRANCH  32  34
HETATM   34  O   UNK N   1       1.606  -6.352   1.462  0.00  0.00    -0.776 OA
HETATM   35  H   UNK N   1       1.002  -6.793   2.027  0.00  0.00     0.167 HD
ENDBRANCH  32  34
ENDBRANCH  31  32
ENDBRANCH  30  31
ENDBRANCH   3  30
TORSDOF 8
