REMARK  3 active torsions:
REMARK  status: ('A' for Active; 'I' for Inactive)
REMARK    1  A    between atoms: C_3  and  C_20 
REMARK    2  A    between atoms: C_4  and  C_12 
REMARK       I    between atoms: C_20  and  N_22 
REMARK    3  A    between atoms: C_26  and  C_27 
ROOT
HETATM    1  C   UNK N   1       4.019   4.288   0.725  0.00  0.00     0.069 C 
HETATM    2  C   UNK N   1       2.947   3.369   0.280  0.00  0.00     0.021 A 
HETATM    3  C   UNK N   1       3.147   2.080  -0.220  0.00  0.00     0.061 A 
HETATM    4  C   UNK N   1       1.868   1.192  -0.540  0.00  0.00     0.183 A 
HETATM    5  N   UNK N   1       0.603   1.885  -0.231  0.00  0.00    -0.263 N 
HETATM    6  C   UNK N   1       0.522   3.125   0.216  0.00  0.00     0.124 A 
HETATM    7  C   UNK N   1      -0.793   3.490   0.389  0.00  0.00     0.068 A 
HETATM    8  C   UNK N   1      -1.499   2.356   0.006  0.00  0.00     0.111 A 
HETATM    9  N   UNK N   1      -0.617   1.401  -0.373  0.00  0.00    -0.307 N 
ATOM     10  HN  UNK N   1      -0.854   0.468  -0.710  1.00  0.00     0.186 HD
HETATM   11  N   UNK N   1       1.645   3.903   0.457  0.00  0.00    -0.344 N 
HETATM   12  H   UNK N   1       1.538   4.835   0.755  0.00  0.00     0.167 HD
ENDROOT
BRANCH   3  13
HETATM   13  C   UNK N   1       4.528   1.400  -0.393  0.00  0.00     0.254 C 
HETATM   14  O   UNK N   1       4.514   0.239  -0.746  0.00  0.00    -0.268 OA
HETATM   15  N   UNK N   1       5.763   1.965  -0.147  0.00  0.00    -0.339 N 
HETATM   16  C   UNK N   1       6.110   3.304  -0.525  0.00  0.00     0.127 C 
HETATM   17  C   UNK N   1       6.907   1.236   0.389  0.00  0.00     0.120 C 
HETATM   18  C   UNK N   1       7.573   3.484  -0.140  0.00  0.00     0.022 C 
HETATM   19  C   UNK N   1       8.125   2.088   0.102  0.00  0.00     0.032 C 
BRANCH  17  20
HETATM   20  C   UNK N   1       7.060  -0.257   0.205  0.00  0.00    -0.035 A 
HETATM   21  C   UNK N   1       8.168  -0.776  -0.476  0.00  0.00     0.012 A 
HETATM   22  C   UNK N   1       8.328  -2.156  -0.615  0.00  0.00     0.043 A 
HETATM   23  C   UNK N   1       7.385  -3.029  -0.067  0.00  0.00     0.116 A 
HETATM   24  C   UNK N   1       6.297  -2.524   0.646  0.00  0.00     0.043 A 
HETATM   25  F   UNK N   1       7.529  -4.366  -0.227  0.00  0.00    -0.206 F 
HETATM   26  C   UNK N   1       6.146  -1.144   0.799  0.00  0.00     0.012 A 
ENDBRANCH  17  20
ENDBRANCH   3  13
BRANCH   4  27
HETATM   27  C   UNK N   1       1.783  -0.288  -0.092  0.00  0.00    -0.027 A 
HETATM   28  C   UNK N   1       2.768  -0.935   0.674  0.00  0.00     0.011 A 
HETATM   29  C   UNK N   1       2.742  -2.324   0.858  0.00  0.00     0.026 A 
HETATM   30  C   UNK N   1       1.695  -3.085   0.335  0.00  0.00     0.055 A 
HETATM   31  C   UNK N   1       0.649  -2.443  -0.342  0.00  0.00     0.056 A 
HETATM   32 Cl   UNK N   1       1.718  -4.832   0.532  0.00  0.00    -0.083 Cl
HETATM   33  C   UNK N   1       0.716  -1.066  -0.573  0.00  0.00     0.035 A 
HETATM   34 Cl   UNK N   1      -0.740  -3.340  -0.936  0.00  0.00    -0.083 Cl
ENDBRANCH   4  27
TORSDOF 3
