REMARK  8 active torsions:
REMARK  status: ('A' for Active; 'I' for Inactive)
REMARK    1  A    between atoms: C_2  and  N_4 
REMARK    2  A    between atoms: N_4  and  C_5 
REMARK       I    between atoms: N_4  and  C_12 
REMARK    3  A    between atoms: C_5  and  C_6 
REMARK    4  A    between atoms: C_12  and  C_14 
REMARK    5  A    between atoms: C_14  and  N_15 
REMARK    6  A    between atoms: C_23  and  C_42 
REMARK    7  A    between atoms: C_29  and  C_32 
REMARK    8  A    between atoms: C_32  and  C_33 
ROOT
HETATM    1  N   UNK N   1       1.233  -1.465  -1.032  0.00  0.00    -0.306 N 
HETATM    2  C   UNK N   1      -0.092  -0.849  -0.935  0.00  0.00     0.065 A 
HETATM    3  C   UNK N   1      -1.155  -1.614  -1.475  0.00  0.00     0.032 A 
HETATM    4  C   UNK N   1      -2.489  -1.258  -1.417  0.00  0.00     0.002 A 
HETATM    5  C   UNK N   1      -2.837  -0.078  -0.814  0.00  0.00     0.002 A 
HETATM    6  C   UNK N   1      -1.841   0.730  -0.304  0.00  0.00     0.032 A 
HETATM    7  C   UNK N   1      -0.467   0.414  -0.333  0.00  0.00     0.069 A 
HETATM    8  N   UNK N   1       0.423   1.394   0.265  0.00  0.00    -0.281 N 
HETATM    9  C   UNK N   1       0.067   2.601   0.818  0.00  0.00     0.139 A 
HETATM   10  N   UNK N   1       1.145   3.302   1.188  0.00  0.00    -0.283 N 
ATOM     11  HN  UNK N   1       1.148   4.229   1.615  1.00  0.00     0.188 HD
HETATM   12  N   UNK N   1       2.199   2.570   0.895  0.00  0.00    -0.286 N 
ATOM     13  HN  UNK N   1       3.171   2.820   1.074  1.00  0.00     0.188 HD
HETATM   14  C   UNK N   1       1.765   1.431   0.317  0.00  0.00     0.118 A 
HETATM   15  C   UNK N   1       2.731   0.507  -0.319  0.00  0.00     0.152 C 
HETATM   16  C   UNK N   1       2.454  -0.902  -0.732  0.00  0.00     0.236 C 
HETATM   17  O   UNK N   1       3.460  -1.585  -0.886  0.00  0.00    -0.272 OA
ENDROOT
BRANCH   1  18
HETATM   18  C   UNK N   1       1.305  -2.826  -1.612  0.00  0.00     0.235 C 
BRANCH  18  19
HETATM   19  C   UNK N   1       0.495  -3.866  -0.859  0.00  0.00     0.238 C 
HETATM   20  N   UNK N   1       0.910  -4.385   0.334  0.00  0.00    -0.343 N 
HETATM   21  O   UNK N   1      -0.562  -4.234  -1.351  0.00  0.00    -0.272 OA
BRANCH  20  22
HETATM   22  C   UNK N   1       2.230  -4.061   0.837  0.00  0.00     0.079 C 
HETATM   23  C   UNK N   1       2.144  -3.289   2.141  0.00  0.00     0.032 C 
HETATM   24  C   UNK N   1       3.052  -5.325   1.029  0.00  0.00     0.032 C 
ENDBRANCH  20  22
BRANCH  20  25
HETATM   25  C   UNK N   1       0.029  -5.207   1.163  0.00  0.00     0.164 C 
BRANCH  25  26
HETATM   26  C   UNK N   1      -0.689  -6.322   0.463  0.00  0.00    -0.040 A 
HETATM   27  C   UNK N   1       0.007  -7.321  -0.227  0.00  0.00     0.009 A 
HETATM   28  C   UNK N   1      -0.698  -8.368  -0.834  0.00  0.00     0.001 A 
HETATM   29  C   UNK N   1      -2.093  -8.423  -0.743  0.00  0.00     0.000 A 
HETATM   30  C   UNK N   1      -2.787  -7.427  -0.052  0.00  0.00     0.001 A 
HETATM   31  C   UNK N   1      -2.086  -6.379   0.550  0.00  0.00     0.009 A 
ENDBRANCH  25  26
ENDBRANCH  20  25
ENDBRANCH  18  19
ENDBRANCH   1  18
BRANCH  15  32
HETATM   32  C   UNK N   1       3.448   1.215  -1.485  0.00  0.00     0.063 C 
BRANCH  32  33
HETATM   33  C   UNK N   1       4.272   2.388  -1.051  0.00  0.00    -0.029 A 
HETATM   34  C   UNK N   1       4.038   3.723  -1.367  0.00  0.00     0.096 A 
HETATM   35  N   UNK N   1       4.976   4.501  -0.769  0.00  0.00    -0.365 N 
HETATM   36  C   UNK N   1       5.782   3.661  -0.094  0.00  0.00     0.042 A 
HETATM   37  H   UNK N   1       5.051   5.482  -0.819  0.00  0.00     0.165 HD
HETATM   38  C   UNK N   1       5.380   2.365  -0.248  0.00  0.00    -0.002 A 
HETATM   39  C   UNK N   1       6.890   3.999   0.677  0.00  0.00     0.030 A 
HETATM   40  C   UNK N   1       6.053   1.305   0.354  0.00  0.00     0.014 A 
HETATM   41  C   UNK N   1       7.181   1.610   1.137  0.00  0.00     0.001 A 
HETATM   42  C   UNK N   1       7.597   2.952   1.299  0.00  0.00     0.002 A 
ENDBRANCH  32  33
ENDBRANCH  15  32
BRANCH   9  43
HETATM   43  C   UNK N   1      -1.276   3.206   0.827  0.00  0.00     0.010 A 
HETATM   44  C   UNK N   1      -2.285   2.752   1.688  0.00  0.00     0.015 A 
HETATM   45  C   UNK N   1      -3.575   3.289   1.593  0.00  0.00     0.001 A 
HETATM   46  C   UNK N   1      -3.861   4.263   0.631  0.00  0.00     0.000 A 
HETATM   47  C   UNK N   1      -2.855   4.720  -0.224  0.00  0.00     0.001 A 
HETATM   48  C   UNK N   1      -1.565   4.196  -0.122  0.00  0.00     0.015 A 
ENDBRANCH   9  43
TORSDOF 8
