REMARK WARNING: 32 MAX_TORS EXCEEDED!!!
REMARK  57 active torsions:
REMARK  status: ('A' for Active; 'I' for Inactive)
REMARK    1  A    between atoms: C_2  and  C_3 
REMARK    2  A    between atoms: C_6  and  O_114 
REMARK    3  A    between atoms: C_26  and  C_27 
REMARK    4  A    between atoms: C_26  and  O_29 
REMARK    5  A    between atoms: O_29  and  C_30 
REMARK    6  A    between atoms: C_30  and  O_32 
REMARK    7  A    between atoms: O_32  and  C_33 
REMARK    8  A    between atoms: C_33  and  C_34 
REMARK    9  A    between atoms: C_37  and  N_40 
REMARK       I    between atoms: N_40  and  C_41 
REMARK   10  A    between atoms: C_41  and  C_43 
REMARK   11  A    between atoms: C_43  and  C_44 
REMARK   12  A    between atoms: C_43  and  N_48 
REMARK   13  A    between atoms: C_44  and  C_45 
REMARK   14  A    between atoms: C_45  and  C_46 
REMARK   15  A    between atoms: C_46  and  N_47 
REMARK       I    between atoms: N_48  and  C_49 
REMARK   16  A    between atoms: C_49  and  C_51 
REMARK   17  A    between atoms: C_51  and  O_52 
REMARK   18  A    between atoms: O_52  and  C_53 
REMARK   19  A    between atoms: C_53  and  C_54 
REMARK       I    between atoms: C_54  and  N_56 
REMARK   20  A    between atoms: N_56  and  C_57 
REMARK   21  A    between atoms: C_57  and  C_58 
REMARK   22  A    between atoms: C_58  and  O_59 
REMARK   23  A    between atoms: O_59  and  C_60 
REMARK   24  A    between atoms: C_60  and  C_61 
REMARK   25  A    between atoms: C_61  and  O_62 
REMARK   26  A    between atoms: O_62  and  C_63 
REMARK   27  A    between atoms: C_63  and  C_64 
REMARK   28  A    between atoms: C_64  and  O_65 
REMARK   29  A    between atoms: O_65  and  C_66 
REMARK   30  A    between atoms: C_66  and  C_67 
REMARK   31  A    between atoms: C_67  and  O_68 
REMARK   32  A    between atoms: O_68  and  C_69 
REMARK   33  A    between atoms: C_69  and  C_70 
REMARK   34  A    between atoms: C_70  and  O_71 
REMARK   35  A    between atoms: O_71  and  C_72 
REMARK   36  A    between atoms: C_72  and  C_73 
REMARK   37  A    between atoms: C_73  and  O_74 
REMARK   38  A    between atoms: O_74  and  C_75 
REMARK   39  A    between atoms: C_75  and  C_76 
REMARK   40  A    between atoms: C_76  and  O_77 
REMARK   41  A    between atoms: O_77  and  C_78 
REMARK   42  A    between atoms: C_78  and  C_79 
REMARK   43  A    between atoms: C_79  and  O_80 
REMARK   44  A    between atoms: O_80  and  C_81 
REMARK   45  A    between atoms: C_81  and  C_82 
REMARK   46  A    between atoms: C_82  and  N_83 
REMARK   47  A    between atoms: C_85  and  C_89 
REMARK   48  A    between atoms: C_89  and  N_90 
REMARK       I    between atoms: N_90  and  C_91 
REMARK   49  A    between atoms: C_91  and  C_93 
REMARK   50  A    between atoms: C_96  and  C_99 
REMARK   51  A    between atoms: C_99  and  N_100 
REMARK   52  A    between atoms: C_104  and  S_107 
REMARK   53  A    between atoms: S_107  and  C_108 
REMARK   54  A    between atoms: C_108  and  C_109 
REMARK   55  A    between atoms: C_109  and  C_110 
REMARK   56  A    between atoms: C_109  and  N_113 
REMARK   57  A    between atoms: C_110  and  O_112 
ROOT
HETATM    1  C   UNK N   1      12.479  -7.548  -0.220  0.00  0.00     0.241 C 
HETATM    2  O   UNK N   1      12.128  -7.035   0.832  0.00  0.00    -0.271 OA
HETATM    3  N   UNK N   1      13.109  -6.783  -1.150  0.00  0.00    -0.357 N 
HETATM    4  H   UNK N   1      13.295  -5.844  -0.922  0.00  0.00     0.162 HD
ENDROOT
BRANCH   3   5
HETATM    5  C   UNK N   1      13.526  -7.257  -2.457  0.00  0.00     0.148 C 
BRANCH   5   6
HETATM    6  C   UNK N   1      14.395  -8.518  -2.413  0.00  0.00     0.187 C 
BRANCH   6   7
HETATM    7  O   UNK N   1      15.584  -8.307  -1.710  0.00  0.00    -0.387 OA
BRANCH   7   8
HETATM    8  C   UNK N   1      15.530  -9.193  -0.629  0.00  0.00     0.193 C 
BRANCH   8   9
HETATM    9  C   UNK N   1      15.248  -8.422   0.656  0.00  0.00     0.193 C 
BRANCH   9  10
HETATM   10  O   UNK N   1      16.400  -7.810   1.147  0.00  0.00    -0.387 OA
BRANCH  10  11
HETATM   11  C   UNK N   1      16.532  -6.598   0.460  0.00  0.00     0.193 C 
BRANCH  11  12
HETATM   12  C   UNK N   1      17.963  -6.487  -0.047  0.00  0.00     0.193 C 
BRANCH  12  13
HETATM   13  O   UNK N   1      18.829  -6.095   0.985  0.00  0.00    -0.387 OA
BRANCH  13  14
HETATM   14  C   UNK N   1      19.065  -7.234   1.770  0.00  0.00     0.193 C 
BRANCH  14  15
HETATM   15  C   UNK N   1      20.461  -7.776   1.545  0.00  0.00     0.193 C 
BRANCH  15  16
HETATM   16  O   UNK N   1      20.550  -8.495   0.344  0.00  0.00    -0.387 OA
BRANCH  16  17
HETATM   17  C   UNK N   1      20.867  -7.569  -0.660  0.00  0.00     0.193 C 
BRANCH  17  18
HETATM   18  C   UNK N   1      22.350  -7.260  -0.671  0.00  0.00     0.193 C 
BRANCH  18  19
HETATM   19  O   UNK N   1      22.656  -6.314   0.317  0.00  0.00    -0.387 OA
BRANCH  19  20
HETATM   20  C   UNK N   1      23.415  -6.997   1.276  0.00  0.00     0.193 C 
BRANCH  20  21
HETATM   21  C   UNK N   1      24.894  -6.710   1.074  0.00  0.00     0.193 C 
BRANCH  21  22
HETATM   22  O   UNK N   1      25.368  -7.367  -0.070  0.00  0.00    -0.387 OA
BRANCH  22  23
HETATM   23  C   UNK N   1      25.157  -6.474  -1.131  0.00  0.00     0.193 C 
BRANCH  23  24
HETATM   24  C   UNK N   1      26.448  -5.830  -1.592  0.00  0.00     0.193 C 
BRANCH  24  25
HETATM   25  O   UNK N   1      27.057  -5.101  -0.560  0.00  0.00    -0.387 OA
BRANCH  25  26
HETATM   26  C   UNK N   1      27.850  -6.020   0.139  0.00  0.00     0.193 C 
BRANCH  26  27
HETATM   27  C   UNK N   1      29.064  -6.439  -0.683  0.00  0.00     0.193 C 
BRANCH  27  28
HETATM   28  O   UNK N   1      29.402  -7.787  -0.465  0.00  0.00    -0.387 OA
BRANCH  28  29
HETATM   29  C   UNK N   1      29.953  -7.882   0.827  0.00  0.00     0.189 C 
BRANCH  29  30
HETATM   30  C   UNK N   1      31.483  -7.787   0.815  0.00  0.00     0.172 C 
BRANCH  30  31
HETATM   31  N   UNK N   1      31.895  -6.592   0.098  0.00  0.00    -0.283 N 
HETATM   32  C   UNK N   1      31.482  -5.338   0.348  0.00  0.00     0.135 A 
HETATM   33  C   UNK N   1      31.950  -4.582  -0.698  0.00  0.00     0.058 A 
HETATM   34  N   UNK N   1      32.643  -5.381  -1.534  0.00  0.00    -0.285 N 
HETATM   35  N   UNK N   1      32.591  -6.603  -1.026  0.00  0.00    -0.020 NA
ATOM     36  HN  UNK N   1      33.116  -5.099  -2.392  1.00  0.00     0.184 HD
BRANCH  33  37
HETATM   37  C   UNK N   1      31.617  -3.151  -0.953  0.00  0.00     0.182 C 
BRANCH  37  38
HETATM   38  N   UNK N   1      32.712  -2.338  -0.513  0.00  0.00    -0.355 N 
HETATM   39  C   UNK N   1      32.870  -1.980   0.786  0.00  0.00     0.222 C 
HETATM   40  O   UNK N   1      32.010  -2.244   1.615  0.00  0.00    -0.273 OA
HETATM   41  H   UNK N   1      33.371  -2.029  -1.175  0.00  0.00     0.162 HD
BRANCH  39  42
HETATM   42  C   UNK N   1      34.165  -1.368   1.227  0.00  0.00     0.078 C 
HETATM   43  C   UNK N   1      34.409  -0.001   0.545  0.00  0.00     0.014 C 
HETATM   44  C   UNK N   1      35.839   0.128  -0.013  0.00  0.00     0.007 C 
HETATM   45  C   UNK N   1      36.089  -0.989  -1.038  0.00  0.00     0.004 C 
HETATM   46  C   UNK N   1      35.542  -2.350  -0.591  0.00  0.00     0.007 C 
HETATM   47  C   UNK N   1      35.277  -2.375   0.912  0.00  0.00     0.014 C 
BRANCH  45  48
HETATM   48  C   UNK N   1      37.527  -1.038  -1.591  0.00  0.00     0.139 C 
BRANCH  48  49
HETATM   49  N   UNK N   1      38.401  -1.976  -0.898  0.00  0.00    -0.287 N 
HETATM   50  C   UNK N   1      39.460  -1.628  -0.165  0.00  0.00     0.228 A 
HETATM   51  O   UNK N   1      39.806  -0.470   0.004  0.00  0.00    -0.273 OA
HETATM   52  C   UNK N   1      40.193  -2.812   0.399  0.00  0.00     0.128 A 
HETATM   53  C   UNK N   1      39.328  -4.000  -0.112  0.00  0.00     0.148 A 
HETATM   54  C   UNK N   1      38.301  -3.309  -0.944  0.00  0.00     0.240 A 
HETATM   55  O   UNK N   1      37.459  -3.902  -1.601  0.00  0.00    -0.272 OA
BRANCH  53  56
HETATM   56  S   UNK N   1      40.299  -5.146  -1.131  0.00  0.00    -0.152 SA
BRANCH  56  57
HETATM   57  C   UNK N   1      39.018  -6.446  -1.014  0.00  0.00     0.110 C 
BRANCH  57  58
HETATM   58  C   UNK N   1      39.034  -7.123   0.348  0.00  0.00     0.182 C 
BRANCH  58  59
HETATM   59  C   UNK N   1      40.318  -7.857   0.567  0.00  0.00     0.163 C 
HETATM   60  O   UNK N   1      40.643  -8.771  -0.175  0.00  0.00    -0.648 OA
BRANCH  59  61
HETATM   61  O   UNK N   1      41.129  -7.493   1.576  0.00  0.00    -0.775 OA
HETATM   62  H   UNK N   1      41.631  -7.855   2.280  0.00  0.00     0.167 HD
ENDBRANCH  59  61
ENDBRANCH  58  59
BRANCH  58  63
HETATM   63  N   UNK N   1      37.913  -8.042   0.453  0.00  0.00    -0.417 N 
HETATM   64  H   UNK N   1      36.961  -7.683   0.526  0.00  0.00     0.150 HD
HETATM   65  H   UNK N   1      38.078  -9.048   0.453  0.00  0.00     0.150 HD
ENDBRANCH  58  63
ENDBRANCH  57  58
ENDBRANCH  56  57
ENDBRANCH  53  56
ENDBRANCH  48  49
ENDBRANCH  45  48
ENDBRANCH  39  42
ENDBRANCH  37  38
ENDBRANCH  33  37
ENDBRANCH  30  31
ENDBRANCH  29  30
ENDBRANCH  28  29
ENDBRANCH  27  28
ENDBRANCH  26  27
ENDBRANCH  25  26
ENDBRANCH  24  25
ENDBRANCH  23  24
ENDBRANCH  22  23
ENDBRANCH  21  22
ENDBRANCH  20  21
ENDBRANCH  19  20
ENDBRANCH  18  19
ENDBRANCH  17  18
ENDBRANCH  16  17
ENDBRANCH  15  16
ENDBRANCH  14  15
ENDBRANCH  13  14
ENDBRANCH  12  13
ENDBRANCH  11  12
ENDBRANCH  10  11
ENDBRANCH   9  10
ENDBRANCH   8   9
ENDBRANCH   7   8
ENDBRANCH   6   7
ENDBRANCH   5   6
ENDBRANCH   3   5
BRANCH   1  66
HETATM   66  C   UNK N   1      12.265  -9.024  -0.440  0.00  0.00     0.271 C 
BRANCH  66  67
HETATM   67  O   UNK N   1      11.799  -9.649   0.723  0.00  0.00    -0.373 OA
BRANCH  67  68
HETATM   68  C   UNK N   1      10.574 -10.207   0.363  0.00  0.00     0.271 C 
BRANCH  68  69
HETATM   69  C   UNK N   1       9.502  -9.189   0.520  0.00  0.00     0.242 C 
HETATM   70  N   UNK N   1       9.009  -8.603  -0.592  0.00  0.00    -0.346 N 
HETATM   71  H   UNK N   1       9.382  -8.888  -1.458  0.00  0.00     0.163 HD
HETATM   72  O   UNK N   1       9.126  -8.858   1.634  0.00  0.00    -0.271 OA
BRANCH  70  73
HETATM   73  C   UNK N   1       7.980  -7.596  -0.614  0.00  0.00     0.177 C 
BRANCH  73  74
HETATM   74  C   UNK N   1       6.659  -8.131  -0.205  0.00  0.00     0.245 C 
HETATM   75  N   UNK N   1       6.379  -8.505   1.083  0.00  0.00    -0.325 N 
HETATM   76  H   UNK N   1       7.056  -8.459   1.797  0.00  0.00     0.169 HD
HETATM   77  O   UNK N   1       5.797  -8.210  -1.072  0.00  0.00    -0.271 OA
BRANCH  75  78
HETATM   78  C   UNK N   1       5.069  -8.960   1.327  0.00  0.00     0.034 A 
HETATM   79  C   UNK N   1       4.089  -7.968   1.450  0.00  0.00     0.030 A 
HETATM   80  C   UNK N   1       2.819  -8.165   0.919  0.00  0.00     0.011 A 
HETATM   81  C   UNK N   1       2.529  -9.345   0.236  0.00  0.00    -0.034 A 
HETATM   82  C   UNK N   1       3.467 -10.387   0.216  0.00  0.00     0.011 A 
HETATM   83  C   UNK N   1       4.730 -10.193   0.757  0.00  0.00     0.030 A 
BRANCH  81  84
HETATM   84  C   UNK N   1       1.297  -9.386  -0.619  0.00  0.00     0.219 C 
BRANCH  84  85
HETATM   85  O   UNK N   1       1.335 -10.411  -1.548  0.00  0.00    -0.293 OA
BRANCH  85  86
HETATM   86  C   UNK N   1       1.029 -11.666  -1.169  0.00  0.00     0.408 C 
HETATM   87  O   UNK N   1       1.013 -12.572  -1.990  0.00  0.00    -0.229 OA
BRANCH  86  88
HETATM   88  O   UNK N   1       0.776 -11.894   0.141  0.00  0.00    -0.271 OA
BRANCH  88  89
HETATM   89  C   UNK N   1       0.341 -13.046   0.757  0.00  0.00     0.188 C 
HETATM   90  C   UNK N   1      -1.079 -13.356   0.321  0.00  0.00     0.299 C 
HETATM   91  O   UNK N   1      -1.442 -14.584  -0.120  0.00  0.00    -0.314 OA
HETATM   92  O   UNK N   1      -1.927 -12.478   0.376  0.00  0.00    -0.261 OA
HETATM   93  C   UNK N   1      -0.628 -15.698  -0.190  0.00  0.00     0.224 C 
HETATM   94  C   UNK N   1       0.835 -15.435   0.030  0.00  0.00     0.044 A 
HETATM   95  C   UNK N   1       1.300 -14.175   0.467  0.00  0.00     0.003 A 
HETATM   96  C   UNK N   1       1.765 -16.466  -0.211  0.00  0.00     0.257 A 
HETATM   97  C   UNK N   1       2.685 -13.952   0.604  0.00  0.00     0.043 A 
HETATM   98  C   UNK N   1       3.555 -14.992   0.304  0.00  0.00     0.065 A 
HETATM   99  N   UNK N   1       3.102 -16.205  -0.064  0.00  0.00    -0.307 N 
HETATM  100  C   UNK N   1       4.983 -14.987   0.287  0.00  0.00     0.068 A 
HETATM  101  C   UNK N   1       4.210 -17.143  -0.312  0.00  0.00     0.174 A 
HETATM  102  C   UNK N   1       5.400 -16.241  -0.073  0.00  0.00    -0.004 A 
HETATM  103  C   UNK N   1       6.763 -16.528  -0.190  0.00  0.00    -0.036 A 
HETATM  104  C   UNK N   1       7.678 -15.479   0.058  0.00  0.00     0.000 A 
HETATM  105  C   UNK N   1       9.061 -15.682  -0.045  0.00  0.00     0.050 A 
HETATM  106  C   UNK N   1       7.185 -14.185   0.411  0.00  0.00     0.043 A 
HETATM  107  C   UNK N   1       9.947 -14.628   0.192  0.00  0.00     0.066 A 
HETATM  108  C   UNK N   1       9.460 -13.362   0.531  0.00  0.00     0.039 A 
HETATM  109  C   UNK N   1       8.084 -13.141   0.641  0.00  0.00     0.033 A 
HETATM  110  N   UNK N   1       5.842 -13.965   0.523  0.00  0.00    -0.353 N 
ATOM    111  HN  UNK N   1       5.489 -13.043   0.781  1.00  0.00     0.166 HD
HETATM  112  O   UNK N   1       1.390 -17.571  -0.568  0.00  0.00    -0.267 OA
BRANCH 103 113
HETATM  113  C   UNK N   1       7.232 -17.905  -0.561  0.00  0.00     0.036 C 
HETATM  114  C   UNK N   1       6.780 -18.283  -1.960  0.00  0.00     0.010 C 
ENDBRANCH 103 113
BRANCH 107 115
HETATM  115  O   UNK N   1      11.271 -14.832   0.094  0.00  0.00    -0.361 OA
HETATM  116  H   UNK N   1      11.609 -15.703   0.026  0.00  0.00     0.217 HD
ENDBRANCH 107 115
BRANCH  89 117
HETATM  117  C   UNK N   1       0.365 -12.775   2.268  0.00  0.00     0.050 C 
HETATM  118  C   UNK N   1      -0.384 -11.507   2.667  0.00  0.00     0.009 C 
ENDBRANCH  89 117
ENDBRANCH  88  89
ENDBRANCH  86  88
ENDBRANCH  85  86
ENDBRANCH  84  85
ENDBRANCH  81  84
ENDBRANCH  75  78
ENDBRANCH  73  74
BRANCH  73 119
HETATM  119  C   UNK N   1       8.353  -6.297   0.076  0.00  0.00     0.036 C 
BRANCH 119 120
HETATM  120  C   UNK N   1       7.418  -5.204  -0.430  0.00  0.00     0.021 C 
BRANCH 120 121
HETATM  121  C   UNK N   1       7.812  -3.850   0.122  0.00  0.00     0.111 C 
BRANCH 121 122
HETATM  122  N   UNK N   1       9.082  -3.436  -0.446  0.00  0.00    -0.430 N 
HETATM  123  H   UNK N   1       9.781  -4.063  -0.845  0.00  0.00     0.149 HD
HETATM  124  H   UNK N   1       9.293  -2.438  -0.446  0.00  0.00     0.149 HD
ENDBRANCH 121 122
ENDBRANCH 120 121
ENDBRANCH 119 120
ENDBRANCH  73 119
ENDBRANCH  70  73
ENDBRANCH  68  69
ENDBRANCH  67  68
ENDBRANCH  66  67
ENDBRANCH   1  66
TORSDOF 57
