REMARK  13 active torsions:
REMARK  status: ('A' for Active; 'I' for Inactive)
REMARK    1  A    between atoms: C_2  and  C_4 
REMARK    2  A    between atoms: C_2  and  N_11 
REMARK    3  A    between atoms: C_4  and  C_5 
REMARK       I    between atoms: N_11  and  C_13 
REMARK    4  A    between atoms: C_13  and  C_15 
REMARK    5  A    between atoms: C_15  and  N_16 
REMARK    6  A    between atoms: N_16  and  C_17 
REMARK    7  A    between atoms: N_16  and  C_20 
REMARK    8  A    between atoms: C_17  and  C_18 
REMARK    9  A    between atoms: C_18  and  O_19 
REMARK   10  A    between atoms: C_20  and  C_21 
REMARK       I    between atoms: C_21  and  N_23 
REMARK   11  A    between atoms: N_23  and  C_25 
REMARK   12  A    between atoms: C_25  and  C_28 
REMARK   13  A    between atoms: C_28  and  C_29 
ROOT
HETATM    1  N   UNK N   1       2.590  -4.421  -1.461  0.00  0.00     0.108 N 
ENDROOT
BRANCH   1   2
HETATM    2  C   UNK N   1       2.440  -5.554  -2.385  0.00  0.00     0.375 C 
BRANCH   2   3
HETATM    3  C   UNK N   1       1.673  -6.693  -1.770  0.00  0.00     0.248 C 
HETATM    4  N   UNK N   1       2.319  -7.589  -0.952  0.00  0.00    -0.346 N 
HETATM    5  C   UNK N   1       3.764  -7.492  -0.826  0.00  0.00     0.153 C 
HETATM    6  O   UNK N   1       0.476  -6.767  -1.989  0.00  0.00    -0.271 OA
BRANCH   4   7
HETATM    7  C   UNK N   1       1.662  -8.653  -0.184  0.00  0.00     0.031 C 
HETATM    8  C   UNK N   1       2.298  -9.980  -0.604  0.00  0.00     0.038 C 
HETATM    9  C   UNK N   1       1.959  -8.412   1.294  0.00  0.00     0.038 C 
BRANCH   7  10
HETATM   10  C   UNK N   1       0.119  -8.742  -0.328  0.00  0.00     0.069 C 
BRANCH  10  11
HETATM   11  C   UNK N   1      -0.401 -10.069   0.132  0.00  0.00    -0.056 A 
HETATM   12  C   UNK N   1      -0.189 -10.502   1.448  0.00  0.00     0.007 A 
HETATM   13  C   UNK N   1      -0.503 -11.812   1.813  0.00  0.00     0.001 A 
HETATM   14  C   UNK N   1      -1.025 -12.693   0.862  0.00  0.00     0.000 A 
HETATM   15  C   UNK N   1      -1.255 -12.256  -0.447  0.00  0.00     0.001 A 
HETATM   16  C   UNK N   1      -0.935 -10.948  -0.813  0.00  0.00     0.007 A 
ENDBRANCH  10  11
ENDBRANCH   7  10
ENDBRANCH   4   7
ENDBRANCH   2   3
ENDBRANCH   1   2
BRANCH   1  17
HETATM   17  C   UNK N   1       1.416  -3.538  -1.530  0.00  0.00     0.299 C 
BRANCH  17  18
HETATM   18  C   UNK N   1       0.233  -4.051  -0.713  0.00  0.00     0.194 C 
BRANCH  18  19
HETATM   19  O   UNK N   1      -0.739  -3.058  -0.630  0.00  0.00    -0.399 OA
HETATM   20  H   UNK N   1      -0.479  -2.126  -0.572  0.00  0.00     0.209 HD
ENDBRANCH  18  19
ENDBRANCH  17  18
ENDBRANCH   1  17
BRANCH   1  21
HETATM   21  C   UNK N   1       2.933  -4.800  -0.075  0.00  0.00     0.375 C 
BRANCH  21  22
HETATM   22  C   UNK N   1       3.271  -3.575   0.693  0.00  0.00     0.248 C 
HETATM   23  O   UNK N   1       2.474  -3.190   1.539  0.00  0.00    -0.271 OA
HETATM   24  N   UNK N   1       4.401  -2.862   0.395  0.00  0.00    -0.346 N 
HETATM   25  C   UNK N   1       5.375  -3.463  -0.506  0.00  0.00     0.153 C 
BRANCH  24  26
HETATM   26  C   UNK N   1       4.680  -1.506   0.870  0.00  0.00     0.031 C 
HETATM   27  C   UNK N   1       5.913  -1.547   1.774  0.00  0.00     0.038 C 
HETATM   28  C   UNK N   1       3.568  -0.848   1.682  0.00  0.00     0.038 C 
BRANCH  26  29
HETATM   29  C   UNK N   1       4.839  -0.623  -0.388  0.00  0.00     0.069 C 
BRANCH  29  30
HETATM   30  C   UNK N   1       6.061   0.219  -0.401  0.00  0.00    -0.056 A 
HETATM   31  C   UNK N   1       6.009   1.520   0.099  0.00  0.00     0.007 A 
HETATM   32  C   UNK N   1       7.173   2.286   0.160  0.00  0.00     0.001 A 
HETATM   33  C   UNK N   1       8.389   1.747  -0.275  0.00  0.00     0.000 A 
HETATM   34  C   UNK N   1       8.439   0.445  -0.781  0.00  0.00     0.001 A 
HETATM   35  C   UNK N   1       7.274  -0.322  -0.841  0.00  0.00     0.007 A 
ENDBRANCH  29  30
ENDBRANCH  26  29
ENDBRANCH  24  26
ENDBRANCH  21  22
ENDBRANCH   1  21
TORSDOF 13
