REMARK  11 active torsions:
REMARK  status: ('A' for Active; 'I' for Inactive)
REMARK    1  A    between atoms: C_2  and  C_3 
REMARK    2  A    between atoms: C_6  and  C_2 
REMARK    3  A    between atoms: C_23  and  C_24 
REMARK    4  A    between atoms: C_24  and  O_26 
REMARK    5  A    between atoms: C_29  and  N_40 
REMARK    6  A    between atoms: C_30  and  O_31 
REMARK    7  A    between atoms: O_31  and  C_32 
REMARK    8  A    between atoms: C_32  and  C_33 
REMARK    9  A    between atoms: C_33  and  C_35 
REMARK   10  A    between atoms: C_33  and  N_39 
REMARK   11  A    between atoms: C_41  and  C_47 
ROOT
HETATM    1  C   UNK N   1       8.059   0.193   0.316  0.00  0.00    -0.026 C 
HETATM    2  C   UNK N   1       7.238  -1.105   0.509  0.00  0.00     0.011 C 
HETATM    3  C   UNK N   1       5.978  -1.187  -0.365  0.00  0.00     0.011 C 
HETATM    4  C   UNK N   1       5.065  -0.028   0.027  0.00  0.00    -0.028 C 
HETATM    5  C   UNK N   1       3.689  -0.012  -0.662  0.00  0.00     0.024 C 
HETATM    6  C   UNK N   1       2.984  -1.382  -0.753  0.00  0.00     0.010 C 
HETATM    7  C   UNK N   1       1.462  -1.257  -0.725  0.00  0.00     0.007 C 
HETATM    8  C   UNK N   1       1.195  -0.686   0.651  0.00  0.00     0.013 C 
HETATM    9  C   UNK N   1      -0.172  -0.880   1.320  0.00  0.00     0.010 C 
HETATM   10  C   UNK N   1       0.088  -0.530   2.805  0.00  0.00     0.179 C 
HETATM   11  O   UNK N   1       0.526   0.807   2.986  0.00  0.00    -0.389 OA
HETATM   12  C   UNK N   1       1.747   1.012   2.297  0.00  0.00     0.182 C 
HETATM   13  C   UNK N   1       1.609   0.782   0.769  0.00  0.00     0.011 C 
HETATM   14  C   UNK N   1       2.907   1.070   0.076  0.00  0.00    -0.068 C 
HETATM   15  C   UNK N   1       3.467   2.280   0.246  0.00  0.00    -0.022 C 
HETATM   16  C   UNK N   1       4.873   2.566  -0.185  0.00  0.00     0.038 C 
HETATM   17  C   UNK N   1       5.769   1.311  -0.392  0.00  0.00    -0.019 C 
HETATM   18  C   UNK N   1       7.080   1.421   0.426  0.00  0.00     0.101 C 
HETATM   19  C   UNK N   1       6.094   1.308  -1.890  0.00  0.00     0.017 C 
HETATM   20  C   UNK N   1       0.581   1.708   0.140  0.00  0.00     0.046 C 
HETATM   21  C   UNK N   1      -0.756   1.501   0.770  0.00  0.00     0.141 C 
HETATM   22  C   UNK N   1      -1.257   0.051   0.689  0.00  0.00     0.157 C 
HETATM   23  C   UNK N   1      -0.596  -2.339   1.263  0.00  0.00     0.020 C 
HETATM   24  C   UNK N   1       4.849  -0.139   1.563  0.00  0.00     0.016 C 
HETATM   25  C   UNK N   1       8.996   0.225   1.515  0.00  0.00     0.016 C 
ENDROOT
BRANCH  21  26
HETATM   26  N   UNK N   1      -1.680   2.625   0.988  0.00  0.00    -0.268 N 
HETATM   27  C   UNK N   1      -1.623   3.959   0.684  0.00  0.00     0.134 A 
HETATM   28  N   UNK N   1      -2.673   4.600   1.235  0.00  0.00    -0.336 N 
HETATM   29  C   UNK N   1      -3.364   3.637   1.874  0.00  0.00     0.199 A 
ATOM     30  HN  UNK N   1      -2.895   5.594   1.181  1.00  0.00     0.168 HD
HETATM   31  N   UNK N   1      -2.758   2.447   1.734  0.00  0.00    -0.292 N 
ATOM     32  HN  UNK N   1      -3.072   1.562   2.132  1.00  0.00     0.188 HD
BRANCH  27  33
HETATM   33  C   UNK N   1      -0.603   4.738  -0.097  0.00  0.00     0.012 A 
HETATM   34  C   UNK N   1      -0.651   6.139  -0.039  0.00  0.00     0.032 A 
HETATM   35  C   UNK N   1       0.282   6.906  -0.743  0.00  0.00     0.088 A 
HETATM   36  N   UNK N   1       1.235   6.299  -1.498  0.00  0.00    -0.375 N 
HETATM   37  C   UNK N   1       1.296   4.946  -1.594  0.00  0.00     0.088 A 
ATOM     38  HN  UNK N   1       1.916   6.869  -2.000  1.00  0.00     0.164 HD
HETATM   39  C   UNK N   1       0.377   4.156  -0.902  0.00  0.00     0.032 A 
ENDBRANCH  27  33
ENDBRANCH  21  26
BRANCH  22  40
HETATM   40  O   UNK N   1      -1.458  -0.272  -0.666  0.00  0.00    -0.380 OA
BRANCH  40  41
HETATM   41  C   UNK N   1      -2.688  -0.936  -0.737  0.00  0.00     0.199 C 
BRANCH  41  42
HETATM   42  C   UNK N   1      -3.880   0.016  -0.953  0.00  0.00     0.048 C 
HETATM   43  C   UNK N   1      -4.452  -0.252  -2.338  0.00  0.00     0.041 C 
BRANCH  42  44
HETATM   44  C   UNK N   1      -4.944  -0.230   0.158  0.00  0.00    -0.025 C 
HETATM   45  C   UNK N   1      -5.524  -1.634   0.065  0.00  0.00     0.017 C 
HETATM   46  C   UNK N   1      -6.089   0.764   0.048  0.00  0.00     0.017 C 
HETATM   47  C   UNK N   1      -4.346  -0.084   1.550  0.00  0.00     0.017 C 
ENDBRANCH  42  44
BRANCH  42  48
HETATM   48  N   UNK N   1      -3.446   1.406  -0.933  0.00  0.00    -0.420 N 
HETATM   49  H   UNK N   1      -2.450   1.630  -0.920  0.00  0.00     0.150 HD
HETATM   50  H   UNK N   1      -4.137   2.157  -0.933  0.00  0.00     0.150 HD
ENDBRANCH  42  48
ENDBRANCH  41  42
ENDBRANCH  40  41
ENDBRANCH  22  40
BRANCH  18  51
HETATM   51  C   UNK N   1       7.639   2.820   0.519  0.00  0.00     0.145 C 
HETATM   52  O   UNK N   1       7.857   3.306   1.616  0.00  0.00    -0.650 OA
BRANCH  51  53
HETATM   53  O   UNK N   1       7.709   3.602  -0.578  0.00  0.00    -0.776 OA
HETATM   54  H   UNK N   1       8.203   3.831  -1.340  0.00  0.00     0.167 HD
ENDBRANCH  51  53
ENDBRANCH  18  51
BRANCH   1  55
HETATM   55  C   UNK N   1       8.855   0.099  -1.042  0.00  0.00    -0.006 C 
HETATM   56  C   UNK N   1       9.141  -1.339  -1.485  0.00  0.00     0.011 C 
BRANCH  55  57
HETATM   57  C   UNK N   1      10.191   0.866  -1.185  0.00  0.00    -0.018 C 
HETATM   58  C   UNK N   1      10.113   2.367  -1.101  0.00  0.00     0.010 C 
HETATM   59  C   UNK N   1      11.314   0.343  -0.300  0.00  0.00     0.010 C 
ENDBRANCH  55  57
ENDBRANCH   1  55
TORSDOF 11
