REMARK  7 active torsions:
REMARK  status: ('A' for Active; 'I' for Inactive)
REMARK    1  A    between atoms: C_6  and  C_5 
REMARK    2  A    between atoms: C_7  and  C_6 
REMARK    3  A    between atoms: C_8  and  C_7 
REMARK    4  A    between atoms: C_9  and  C_8 
REMARK    5  A    between atoms: O_17  and  C_9 
REMARK    6  A    between atoms: O_17  and  C_14 
REMARK    7  A    between atoms: O_16  and  C_15 
ROOT
HETATM    1  C   UNK N   1       5.530   3.235  -0.125  0.00  0.00     0.051 C 
HETATM    2  C   UNK N   1       0.271   5.667   0.147  0.00  0.00     0.052 C 
HETATM    3  C   UNK N   1       2.632   7.326   0.007  0.00  0.00     0.052 C 
HETATM    4  C   UNK N   1       3.052   3.050   0.019  0.00  0.00     0.047 A 
HETATM    5  C   UNK N   1       4.182   3.866  -0.054  0.00  0.00    -0.026 A 
HETATM    6  C   UNK N   1       1.616   5.012   0.092  0.00  0.00    -0.020 A 
HETATM    7  C   UNK N   1       2.765   5.835   0.015  0.00  0.00    -0.020 A 
HETATM    8  C   UNK N   1       1.769   3.595   0.105  0.00  0.00     0.075 A 
HETATM    9  C   UNK N   1       4.039   5.256  -0.050  0.00  0.00     0.078 A 
ENDROOT
BRANCH   8  10
HETATM   10  O   UNK N   1       0.730   2.716   0.206  0.00  0.00    -0.351 OA
BRANCH  10  11
HETATM   11  C   UNK N   1      -0.543   3.026   0.626  0.00  0.00     0.175 C 
BRANCH  11  12
HETATM   12  C   UNK N   1      -1.535   2.777  -0.490  0.00  0.00     0.027 C 
BRANCH  12  13
HETATM   13  C   UNK N   1      -2.524   3.925  -0.543  0.00  0.00     0.002 C 
BRANCH  13  14
HETATM   14  C   UNK N   1      -3.837   3.534   0.100  0.00  0.00    -0.000 C 
BRANCH  14  15
HETATM   15  C   UNK N   1      -4.825   4.668  -0.084  0.00  0.00    -0.005 C 
HETATM   16  C   UNK N   1      -6.233   4.159   0.138  0.00  0.00     0.005 C 
ENDBRANCH  14  15
ENDBRANCH  13  14
ENDBRANCH  12  13
ENDBRANCH  11  12
ENDBRANCH  10  11
ENDBRANCH   8  10
BRANCH   9  17
HETATM   17  O   UNK N   1       5.134   6.044  -0.111  0.00  0.00    -0.360 OA
HETATM   18  H   UNK N   1       5.988   5.660  -0.154  0.00  0.00     0.217 HD
ENDBRANCH   9  17
TORSDOF 7
