REMARK  7 active torsions:
REMARK  status: ('A' for Active; 'I' for Inactive)
REMARK    1  A    between atoms: C_7  and  C_8 
REMARK    2  A    between atoms: N_14  and  C_27 
REMARK       I    between atoms: C_18  and  N_21 
REMARK    3  A    between atoms: N_21  and  C_22 
REMARK    4  A    between atoms: C_22  and  C_23 
REMARK    5  A    between atoms: C_22  and  C_25 
REMARK    6  A    between atoms: C_23  and  O_24 
REMARK    7  A    between atoms: C_25  and  O_26 
ROOT
HETATM    1  C   UNK N   1       1.547   0.737  -0.303  0.00  0.00     0.074 A 
HETATM    2  C   UNK N   1       2.723  -0.038  -0.182  0.00  0.00     0.037 A 
HETATM    3  C   UNK N   1       3.946   0.538   0.144  0.00  0.00     0.023 A 
HETATM    4  C   UNK N   1       5.047  -0.252   0.389  0.00  0.00     0.076 A 
HETATM    5  C   UNK N   1       4.937  -1.636   0.330  0.00  0.00     0.254 A 
HETATM    6  O   UNK N   1       5.905  -2.297   0.660  0.00  0.00    -0.268 OA
HETATM    7  N   UNK N   1       3.731  -2.245  -0.022  0.00  0.00    -0.257 N 
HETATM    8  C   UNK N   1       2.630  -1.446  -0.291  0.00  0.00     0.143 A 
HETATM    9  N   UNK N   1       1.429  -1.994  -0.617  0.00  0.00    -0.175 N 
ATOM     10  HN  UNK N   1       1.371  -2.999  -0.784  1.00  0.00     0.186 HD
HETATM   11  C   UNK N   1       0.307  -1.242  -0.727  0.00  0.00     0.680 A 
HETATM   12  N   UNK N   1       0.369   0.100  -0.533  0.00  0.00    -0.190 N 
ATOM     13  HN  UNK N   1      -0.493   0.646  -0.561  1.00  0.00     0.184 HD
HETATM   14  N   UNK N   1      -0.941  -1.876  -0.909  0.00  0.00    -0.217 N 
HETATM   15  H   UNK N   1      -1.035  -2.594  -1.576  0.00  0.00     0.178 HD
ENDROOT
BRANCH  14  16
HETATM   16  C   UNK N   1      -2.080  -1.474  -0.119  0.00  0.00     0.146 C 
BRANCH  16  17
HETATM   17  C   UNK N   1      -2.756  -2.701   0.478  0.00  0.00     0.192 C 
BRANCH  17  18
HETATM   18  O   UNK N   1      -3.309  -3.502  -0.525  0.00  0.00    -0.399 OA
HETATM   19  H   UNK N   1      -3.982  -3.448  -1.221  0.00  0.00     0.209 HD
ENDBRANCH  17  18
ENDBRANCH  16  17
BRANCH  16  20
HETATM   20  C   UNK N   1      -3.062  -0.636  -0.917  0.00  0.00     0.192 C 
BRANCH  20  21
HETATM   21  O   UNK N   1      -2.532   0.637  -1.122  0.00  0.00    -0.399 OA
HETATM   22  H   UNK N   1      -1.580   0.761  -1.265  0.00  0.00     0.209 HD
ENDBRANCH  20  21
ENDBRANCH  16  20
ENDBRANCH  14  16
BRANCH   1  23
HETATM   23  C   UNK N   1       1.546   2.214  -0.061  0.00  0.00    -0.002 A 
HETATM   24  C   UNK N   1       2.650   2.993  -0.453  0.00  0.00     0.017 A 
HETATM   25  C   UNK N   1       2.702   4.358  -0.174  0.00  0.00     0.043 A 
HETATM   26  C   UNK N   1       1.657   4.967   0.517  0.00  0.00     0.117 A 
HETATM   27  C   UNK N   1       0.551   4.215   0.912  0.00  0.00     0.049 A 
HETATM   28  F   UNK N   1       1.727   6.283   0.828  0.00  0.00    -0.206 F 
HETATM   29  C   UNK N   1       0.477   2.850   0.620  0.00  0.00    -0.047 A 
HETATM   30  C   UNK N   1      -0.699   2.092   1.139  0.00  0.00     0.049 C 
ENDBRANCH   1  23
BRANCH   7  31
HETATM   31  C   UNK N   1       3.629  -3.712  -0.020  0.00  0.00     0.121 A 
HETATM   32  C   UNK N   1       4.670  -4.516  -0.558  0.00  0.00     0.146 A 
HETATM   33  C   UNK N   1       4.580  -5.909  -0.528  0.00  0.00     0.045 A 
HETATM   34  F   UNK N   1       5.756  -3.965  -1.152  0.00  0.00    -0.204 F 
HETATM   35  C   UNK N   1       3.472  -6.536   0.032  0.00  0.00     0.006 A 
HETATM   36  C   UNK N   1       2.444  -5.773   0.573  0.00  0.00     0.045 A 
HETATM   37  C   UNK N   1       2.508  -4.378   0.555  0.00  0.00     0.146 A 
HETATM   38  F   UNK N   1       1.507  -3.701   1.171  0.00  0.00    -0.204 F 
ENDBRANCH   7  31
TORSDOF 7
