REMARK  9 active torsions:
REMARK  status: ('A' for Active; 'I' for Inactive)
REMARK    1  A    between atoms: C_5  and  C_8 
REMARK    2  A    between atoms: C_9  and  C_10 
REMARK    3  A    between atoms: C_13  and  S_15 
REMARK    4  A    between atoms: S_15  and  N_18 
REMARK    5  A    between atoms: C_19  and  N_18 
REMARK    6  A    between atoms: C_19  and  C_20 
REMARK    7  A    between atoms: C_19  and  C_30 
REMARK    8  A    between atoms: C_20  and  C_21 
REMARK    9  A    between atoms: C_30  and  O_32 
ROOT
HETATM    1  N   UNK N   1      -0.653   2.452  -1.118  0.00  0.00    -0.303 N 
HETATM    2  H   UNK N   1      -0.208   2.498  -2.035  0.00  0.00     0.173 HD
ENDROOT
BRANCH   1   3
HETATM    3  S   UNK N   1      -1.173   3.889  -0.199  0.00  0.00     0.244 S 
HETATM    4  O   UNK N   1      -0.867   3.514   1.260  0.00  0.00    -0.204 OA
HETATM    5  O   UNK N   1      -0.141   4.998  -0.434  0.00  0.00    -0.204 OA
BRANCH   3   6
HETATM    6  C   UNK N   1      -2.875   4.376  -0.232  0.00  0.00     0.218 A 
HETATM    7  C   UNK N   1      -3.392   5.026   0.895  0.00  0.00     0.008 A 
HETATM    8  C   UNK N   1      -4.635   4.496   1.333  0.00  0.00     0.026 A 
HETATM    9  C   UNK N   1      -5.055   3.447   0.531  0.00  0.00     0.055 A 
HETATM   10  S   UNK N   1      -3.977   3.254  -0.681  0.00  0.00    -0.095 SA
BRANCH   9  11
HETATM   11  C   UNK N   1      -6.014   2.448   0.812  0.00  0.00    -0.054 C 
HETATM   12  C   UNK N   1      -6.775   1.530   0.779  0.00  0.00    -0.061 C 
BRANCH  12  13
HETATM   13  C   UNK N   1      -7.714   0.538   0.412  0.00  0.00     0.018 A 
HETATM   14  C   UNK N   1      -8.410   0.759  -0.772  0.00  0.00     0.021 A 
HETATM   15  C   UNK N   1      -9.373  -0.143  -1.196  0.00  0.00     0.008 A 
HETATM   16  C   UNK N   1      -9.615  -1.295  -0.453  0.00  0.00    -0.062 A 
HETATM   17  C   UNK N   1     -10.655  -2.246  -0.915  0.00  0.00     0.048 C 
HETATM   18  C   UNK N   1      -8.892  -1.543   0.725  0.00  0.00     0.008 A 
HETATM   19  C   UNK N   1      -7.944  -0.613   1.172  0.00  0.00     0.021 A 
ENDBRANCH  12  13
ENDBRANCH   9  11
ENDBRANCH   3   6
ENDBRANCH   1   3
BRANCH   1  20
HETATM   20  C   UNK N   1      -0.936   1.194  -0.412  0.00  0.00     0.194 C 
BRANCH  20  21
HETATM   21  C   UNK N   1      -0.064   0.818   0.777  0.00  0.00     0.077 C 
BRANCH  21  22
HETATM   22  C   UNK N   1       0.463  -0.561   0.582  0.00  0.00    -0.028 A 
HETATM   23  C   UNK N   1      -0.182  -1.765   0.853  0.00  0.00     0.096 A 
HETATM   24  N   UNK N   1       0.625  -2.798   0.495  0.00  0.00    -0.365 N 
HETATM   25  C   UNK N   1       1.748  -2.239   0.005  0.00  0.00     0.042 A 
HETATM   26  H   UNK N   1       0.428  -3.759   0.576  0.00  0.00     0.165 HD
HETATM   27  C   UNK N   1       1.678  -0.878   0.049  0.00  0.00    -0.002 A 
HETATM   28  C   UNK N   1       2.863  -2.898  -0.506  0.00  0.00     0.030 A 
HETATM   29  C   UNK N   1       2.710  -0.065  -0.411  0.00  0.00     0.014 A 
HETATM   30  C   UNK N   1       3.852  -0.696  -0.932  0.00  0.00     0.001 A 
HETATM   31  C   UNK N   1       3.929  -2.107  -0.980  0.00  0.00     0.002 A 
ENDBRANCH  21  22
ENDBRANCH  20  21
BRANCH  20  32
HETATM   32  C   UNK N   1      -2.297   0.583  -0.548  0.00  0.00     0.164 C 
HETATM   33  O   UNK N   1      -3.028   0.491   0.425  0.00  0.00    -0.648 OA
BRANCH  32  34
HETATM   34  O   UNK N   1      -2.703   0.107  -1.739  0.00  0.00    -0.775 OA
HETATM   35  H   UNK N   1      -3.133   0.186  -2.568  0.00  0.00     0.167 HD
ENDBRANCH  32  34
ENDBRANCH  20  32
ENDBRANCH   1  20
TORSDOF 9
