REMARK  7 active torsions:
REMARK  status: ('A' for Active; 'I' for Inactive)
REMARK    1  A    between atoms: C_6  and  C_8 
REMARK    2  A    between atoms: C_14  and  C_28 
REMARK    3  A    between atoms: N_16  and  C_17 
REMARK    4  A    between atoms: C_17  and  C_18 
REMARK    5  A    between atoms: C_21  and  C_24 
REMARK    6  A    between atoms: C_28  and  C_30 
REMARK    7  A    between atoms: C_30  and  O_32 
ROOT
HETATM    1  C   UNK N   1       4.777   2.291   0.004  0.00  0.00    -0.025 A 
HETATM    2  C   UNK N   1       4.787   0.869  -0.019  0.00  0.00     0.014 A 
HETATM    3  C   UNK N   1       3.578   0.139  -0.036  0.00  0.00     0.031 A 
HETATM    4  C   UNK N   1       2.382   0.862  -0.027  0.00  0.00     0.045 A 
HETATM    5  C   UNK N   1       2.378   2.230   0.000  0.00  0.00     0.007 A 
HETATM    6  C   UNK N   1       3.545   2.973   0.014  0.00  0.00     0.027 A 
HETATM    7  C   UNK N   1       1.062   2.635   0.004  0.00  0.00     0.049 A 
HETATM    8  C   UNK N   1       0.304   1.478  -0.019  0.00  0.00     0.108 A 
HETATM    9  N   UNK N   1       1.119   0.392  -0.046  0.00  0.00    -0.351 N 
ENDROOT
BRANCH   9  10
HETATM   10  C   UNK N   1       0.715  -1.026  -0.081  0.00  0.00     0.167 C 
BRANCH  10  11
HETATM   11  C   UNK N   1      -0.781  -1.303  -0.104  0.00  0.00    -0.040 A 
HETATM   12  C   UNK N   1      -1.236  -2.592   0.199  0.00  0.00     0.009 A 
HETATM   13  C   UNK N   1      -2.610  -2.864   0.250  0.00  0.00     0.008 A 
HETATM   14  C   UNK N   1      -3.552  -1.848  -0.007  0.00  0.00    -0.051 A 
HETATM   15  C   UNK N   1      -3.090  -0.572  -0.346  0.00  0.00     0.008 A 
HETATM   16  C   UNK N   1      -1.726  -0.309  -0.395  0.00  0.00     0.009 A 
BRANCH  14  17
HETATM   17  C   UNK N   1      -5.045  -2.088   0.102  0.00  0.00    -0.024 C 
HETATM   18  C   UNK N   1      -5.712  -1.827  -1.237  0.00  0.00     0.019 C 
HETATM   19  C   UNK N   1      -5.638  -1.140   1.131  0.00  0.00     0.019 C 
HETATM   20  C   UNK N   1      -5.384  -3.507   0.531  0.00  0.00     0.019 C 
ENDBRANCH  14  17
ENDBRANCH  10  11
ENDBRANCH   9  10
BRANCH   7  21
HETATM   21  C   UNK N   1       0.542   4.024   0.018  0.00  0.00     0.257 C 
HETATM   22  O   UNK N   1       1.329   4.958   0.028  0.00  0.00    -0.280 OA
BRANCH  21  23
HETATM   23  C   UNK N   1      -0.914   4.312   0.010  0.00  0.00     0.219 C 
HETATM   24  O   UNK N   1      -1.732   3.406   0.004  0.00  0.00    -0.644 OA
BRANCH  23  25
HETATM   25  O   UNK N   1      -1.342   5.589   0.009  0.00  0.00    -0.770 OA
HETATM   26  H   UNK N   1      -0.722   6.291   0.007  0.00  0.00     0.168 HD
ENDBRANCH  23  25
ENDBRANCH  21  23
ENDBRANCH   7  21
BRANCH   1  27
HETATM   27  C   UNK N   1       6.033   3.076   0.006  0.00  0.00    -0.025 A 
HETATM   28  C   UNK N   1       7.286   2.443  -0.000  0.00  0.00     0.012 A 
HETATM   29  C   UNK N   1       8.460   3.206  -0.004  0.00  0.00     0.001 A 
HETATM   30  C   UNK N   1       8.390   4.603  -0.002  0.00  0.00     0.007 A 
HETATM   31  C   UNK N   1       7.148   5.239   0.003  0.00  0.00    -0.061 A 
HETATM   32  C   UNK N   1       7.066   6.723   0.002  0.00  0.00     0.048 C 
HETATM   33  C   UNK N   1       5.978   4.481   0.008  0.00  0.00     0.019 A 
ENDBRANCH   1  27
TORSDOF 7
