REMARK  6 active torsions:
REMARK  status: ('A' for Active; 'I' for Inactive)
REMARK    1  A    between atoms: N_20  and  C_7 
REMARK    2  A    between atoms: P_27  and  C_7 
REMARK    3  A    between atoms: C_14  and  C_8 
REMARK    4  A    between atoms: N_19  and  C_10 
REMARK    5  A    between atoms: P_27  and  O_23 
REMARK    6  A    between atoms: P_27  and  O_24 
ROOT
HETATM    1  C   UNK N   1       0.247   1.050  -0.014  0.00  0.00     0.050 A 
HETATM    2  C   UNK N   1       0.233  -1.706  -0.314  0.00  0.00     0.062 A 
HETATM    3  C   UNK N   1      -0.991   0.402  -0.132  0.00  0.00     0.076 A 
HETATM    4  C   UNK N   1       1.447   0.354  -0.019  0.00  0.00     0.063 A 
HETATM    5  C   UNK N   1      -1.011  -1.036  -0.244  0.00  0.00     0.047 A 
HETATM    6  C   UNK N   1       1.459  -1.041  -0.202  0.00  0.00     0.067 A 
HETATM    7  C   UNK N   1       3.810   0.384   0.092  0.00  0.00     0.314 A 
HETATM    8  C   UNK N   1       3.846  -1.002  -0.116  0.00  0.00     0.317 A 
HETATM    9  N   UNK N   1       2.611   1.032   0.121  0.00  0.00    -0.317 N 
HETATM   10  N   UNK N   1       2.662  -1.709  -0.274  0.00  0.00    -0.296 N 
HETATM   11  O   UNK N   1       4.843   1.020   0.223  0.00  0.00    -0.262 OA
HETATM   12  O   UNK N   1       4.921  -1.576  -0.176  0.00  0.00    -0.262 OA
HETATM   13  H   UNK N   1       2.590   2.008   0.247  0.00  0.00     0.169 HD
ENDROOT
BRANCH  10  14
HETATM   14  C   UNK N   1       2.766  -3.137  -0.643  0.00  0.00     0.257 C 
BRANCH  14  15
HETATM   15  P   UNK N   1       1.986  -4.415   0.487  0.00  0.00     0.254 P 
HETATM   16  O   UNK N   1       0.440  -4.409   0.406  0.00  0.00    -0.652 OA
BRANCH  15  17
HETATM   17  O   UNK N   1       2.341  -4.379   2.184  0.00  0.00    -0.328 OA
HETATM   18  H   UNK N   1       2.458  -4.541   3.133  0.00  0.00     0.220 HD
ENDBRANCH  15  17
BRANCH  15  19
HETATM   19  O   UNK N   1       2.363  -6.021  -0.052  0.00  0.00    -0.328 OA
HETATM   20  H   UNK N   1       1.691  -6.652  -0.354  0.00  0.00     0.220 HD
ENDBRANCH  15  19
ENDBRANCH  14  15
ENDBRANCH  10  14
BRANCH   5  21
HETATM   21  N   UNK N   1      -2.214  -1.844  -0.279  0.00  0.00    -0.376 N 
HETATM   22  C   UNK N   1      -3.535  -1.261  -0.073  0.00  0.00     0.149 C 
HETATM   23  C   UNK N   1      -4.663  -2.292  -0.042  0.00  0.00     0.187 C 
HETATM   24  O   UNK N   1      -4.232  -3.432   0.638  0.00  0.00    -0.388 OA
HETATM   25  C   UNK N   1      -3.388  -4.060  -0.279  0.00  0.00     0.187 C 
HETATM   26  C   UNK N   1      -2.065  -3.299  -0.364  0.00  0.00     0.149 C 
ENDBRANCH   5  21
BRANCH   3  27
HETATM   27  C   UNK N   1      -2.213   1.301  -0.141  0.00  0.00     0.419 C 
HETATM   28  F   UNK N   1      -2.992   1.085   0.980  0.00  0.00    -0.166 F 
HETATM   29  F   UNK N   1      -2.945   1.089  -1.296  0.00  0.00    -0.166 F 
HETATM   30  F   UNK N   1      -1.846   2.638  -0.131  0.00  0.00    -0.166 F 
ENDBRANCH   3  27
TORSDOF 6
