REMARK  5 active torsions:
REMARK  status: ('A' for Active; 'I' for Inactive)
REMARK    1  A    between atoms: C_4  and  C_17 
REMARK    2  A    between atoms: C_8  and  C_9 
REMARK    3  A    between atoms: C_17  and  C_18 
REMARK       I    between atoms: C_18  and  N_20 
REMARK    4  A    between atoms: N_20  and  C_21 
REMARK    5  A    between atoms: C_24  and  C_28 
ROOT
HETATM    1  C   UNK N   1       5.988  -6.583  -0.322  0.00  0.00     0.227 C 
HETATM    2  O   UNK N   1       5.377  -6.838  -1.352  0.00  0.00    -0.273 OA
HETATM    3  N   UNK N   1       6.667  -7.555   0.337  0.00  0.00    -0.313 N 
HETATM    4  H   UNK N   1       7.344  -7.294   1.002  0.00  0.00     0.170 HD
ENDROOT
BRANCH   1   5
HETATM    5  C   UNK N   1       5.904  -5.209   0.272  0.00  0.00     0.143 C 
BRANCH   5   6
HETATM    6  C   UNK N   1       4.464  -4.780   0.340  0.00  0.00    -0.034 A 
HETATM    7  C   UNK N   1       4.094  -3.521  -0.122  0.00  0.00     0.018 A 
HETATM    8  C   UNK N   1       2.750  -3.145  -0.157  0.00  0.00    -0.034 A 
HETATM    9  C   UNK N   1       2.435  -1.783  -0.674  0.00  0.00     0.050 C 
HETATM   10  C   UNK N   1       1.756  -4.079   0.254  0.00  0.00     0.048 A 
HETATM   11  N   UNK N   1       2.160  -5.300   0.711  0.00  0.00    -0.364 N 
HETATM   12  C   UNK N   1       3.467  -5.660   0.773  0.00  0.00     0.096 A 
ATOM     13  HN  UNK N   1       1.452  -5.968   1.017  1.00  0.00     0.165 HD
BRANCH  10  14
HETATM   14  C   UNK N   1       0.286  -3.809   0.195  0.00  0.00    -0.006 A 
HETATM   15  C   UNK N   1      -0.613  -4.854   0.459  0.00  0.00     0.030 A 
HETATM   16  C   UNK N   1      -1.989  -4.628   0.385  0.00  0.00     0.089 A 
HETATM   17  N   UNK N   1      -2.461  -3.392   0.070  0.00  0.00    -0.369 N 
HETATM   18  C   UNK N   1      -1.617  -2.357  -0.183  0.00  0.00     0.005 A 
ATOM     19  HN  UNK N   1      -3.469  -3.239   0.023  1.00  0.00     0.165 HD
HETATM   20  C   UNK N   1      -0.236  -2.550  -0.131  0.00  0.00     0.038 A 
HETATM   21  C   UNK N   1      -2.165  -1.015  -0.510  0.00  0.00     0.068 C 
ENDBRANCH  10  14
ENDBRANCH   5   6
ENDBRANCH   1   5
BRANCH   3  22
HETATM   22  C   UNK N   1       6.436  -8.934   0.102  0.00  0.00     0.107 A 
HETATM   23  C   UNK N   1       7.436  -9.873   0.368  0.00  0.00     0.049 A 
HETATM   24  C   UNK N   1       7.139 -11.236   0.263  0.00  0.00     0.019 A 
HETATM   25  C   UNK N   1       5.837 -11.647  -0.066  0.00  0.00     0.007 A 
HETATM   26  C   UNK N   1       4.871 -10.672  -0.321  0.00  0.00     0.103 A 
HETATM   27  N   UNK N   1       5.186  -9.356  -0.239  0.00  0.00    -0.351 N 
ATOM     28  HN  UNK N   1       4.466  -8.661  -0.438  1.00  0.00     0.166 HD
BRANCH  25  29
HETATM   29  C   UNK N   1       5.456 -13.073  -0.090  0.00  0.00     0.059 A 
HETATM   30  C   UNK N   1       6.410 -14.082   0.091  0.00  0.00     0.117 A 
HETATM   31  N   UNK N   1       6.018 -15.384   0.095  0.00  0.00    -0.372 N 
HETATM   32  C   UNK N   1       4.710 -15.723  -0.061  0.00  0.00     0.104 A 
ATOM     33  HN  UNK N   1       6.715 -16.118   0.217  1.00  0.00     0.164 HD
HETATM   34  C   UNK N   1       3.757 -14.721  -0.237  0.00  0.00     0.105 A 
HETATM   35  N   UNK N   1       4.148 -13.421  -0.251  0.00  0.00    -0.363 N 
ATOM     36  HN  UNK N   1       3.450 -12.691  -0.385  1.00  0.00     0.165 HD
ENDBRANCH  25  29
ENDBRANCH   3  22
TORSDOF 5
