REMARK  11 active torsions:
REMARK  status: ('A' for Active; 'I' for Inactive)
REMARK    1  A    between atoms: C_5  and  C_3 
REMARK    2  A    between atoms: N_12  and  C_3 
REMARK    3  A    between atoms: C_6  and  C_4 
REMARK    4  A    between atoms: O_15  and  C_4 
REMARK    5  A    between atoms: C_10  and  C_6 
REMARK    6  A    between atoms: N_11  and  C_6 
REMARK    7  A    between atoms: O_16  and  C_7 
REMARK    8  A    between atoms: O_17  and  C_8 
REMARK    9  A    between atoms: O_18  and  C_9 
REMARK   10  A    between atoms: O_19  and  C_10 
REMARK   11  A    between atoms: N_13  and  N_12 
ROOT
HETATM    1  N   UNK N   1       0.249  -2.055   0.049  0.00  0.00    -0.330 N 
HETATM    2  H   UNK N   1      -0.531  -1.517   0.317  0.00  0.00     0.180 HD
ENDROOT
BRANCH   1   3
HETATM    3  C   UNK N   1       1.529  -1.416  -0.074  0.00  0.00     0.180 C 
BRANCH   3   4
HETATM    4  C   UNK N   1       1.418   0.092  -0.035  0.00  0.00    -0.003 A 
HETATM    5  C   UNK N   1       2.614   0.819  -0.036  0.00  0.00     0.014 A 
HETATM    6  C   UNK N   1       2.602   2.215  -0.014  0.00  0.00     0.040 A 
HETATM    7  C   UNK N   1       1.390   2.906   0.006  0.00  0.00     0.101 A 
HETATM    8  C   UNK N   1       0.182   2.201   0.007  0.00  0.00     0.133 A 
HETATM    9  C   UNK N   1       0.185   0.800  -0.013  0.00  0.00     0.109 A 
BRANCH   7  10
HETATM   10  O   UNK N   1       1.388   4.250   0.021  0.00  0.00    -0.358 OA
HETATM   11  H   UNK N   1       2.199   4.720   0.032  0.00  0.00     0.217 HD
ENDBRANCH   7  10
BRANCH   8  12
HETATM   12  O   UNK N   1      -0.986   2.869   0.022  0.00  0.00    -0.356 OA
HETATM   13  H   UNK N   1      -0.990   3.806   0.034  0.00  0.00     0.218 HD
ENDBRANCH   8  12
BRANCH   9  14
HETATM   14  O   UNK N   1      -0.997   0.156  -0.017  0.00  0.00    -0.357 OA
HETATM   15  H   UNK N   1      -1.797   0.644  -0.020  0.00  0.00     0.217 HD
ENDBRANCH   9  14
ENDBRANCH   3   4
ENDBRANCH   1   3
BRANCH   1  16
HETATM   16  N   UNK N   1       0.082  -3.394  -0.197  0.00  0.00    -0.286 N 
HETATM   17  C   UNK N   1      -1.079  -3.928  -0.043  0.00  0.00     0.154 C 
ATOM     18  HN  UNK N   1       0.872  -3.963  -0.500  1.00  0.00     0.188 HD
BRANCH  17  19
HETATM   19  C   UNK N   1      -1.272  -5.396  -0.307  0.00  0.00     0.174 C 
BRANCH  19  20
HETATM   20  C   UNK N   1      -2.705  -5.816   0.008  0.00  0.00     0.197 C 
BRANCH  20  21
HETATM   21  O   UNK N   1      -2.885  -7.175  -0.245  0.00  0.00    -0.398 OA
HETATM   22  H   UNK N   1      -3.766  -7.540  -0.421  0.00  0.00     0.209 HD
ENDBRANCH  20  21
ENDBRANCH  19  20
BRANCH  19  23
HETATM   23  N   UNK N   1      -0.348  -6.166   0.509  0.00  0.00    -0.418 N 
HETATM   24  H   UNK N   1      -0.492  -6.998   1.082  0.00  0.00     0.150 HD
HETATM   25  H   UNK N   1       0.609  -5.815   0.509  0.00  0.00     0.150 HD
ENDBRANCH  19  23
ENDBRANCH  17  19
BRANCH  17  26
HETATM   26  O   UNK N   1      -2.123  -3.168   0.359  0.00  0.00    -0.347 OA
HETATM   27  H   UNK N   1      -2.028  -2.279   0.638  0.00  0.00     0.219 HD
ENDBRANCH  17  26
ENDBRANCH   1  16
TORSDOF 11
