REMARK  0 active torsions:
REMARK  status: ('A' for Active; 'I' for Inactive)
ROOT
HETATM    1 Si   UNK N   1       0.000   0.000   0.000  0.00  0.00     0.000 Si
HETATM    2  H   UNK N   1       0.000   0.000   0.000  0.00  0.00     0.000 HD
HETATM    3  H   UNK N   1       0.000   0.000   0.000  0.00  0.00     0.000 HD
HETATM    4  H   UNK N   1       0.000   0.000   0.000  0.00  0.00     0.000 HD
HETATM    5  H   UNK N   1       0.000   0.000   0.000  0.00  0.00     0.000 HD
ENDROOT
TORSDOF 0
