REMARK  8 active torsions:
REMARK  status: ('A' for Active; 'I' for Inactive)
REMARK    1  A    between atoms: C_3  and  N_32 
REMARK    2  A    between atoms: C_7  and  N_13 
REMARK    3  A    between atoms: N_13  and  C_14 
REMARK    4  A    between atoms: N_23  and  C_24 
REMARK    5  A    between atoms: C_24  and  C_25 
REMARK       I    between atoms: N_32  and  C_33 
REMARK    6  A    between atoms: C_33  and  O_35 
REMARK    7  A    between atoms: O_35  and  C_36 
REMARK    8  A    between atoms: C_37  and  C_36 
ROOT
HETATM    1  C   UNK N   1       7.574   3.431  -0.348  0.00  0.00     0.053 C 
HETATM    2  C   UNK N   1       6.758   4.431   0.402  0.00  0.00    -0.001 A 
HETATM    3  C   UNK N   1       7.120   5.720   0.701  0.00  0.00     0.062 A 
HETATM    4  C   UNK N   1       6.075   6.344   1.364  0.00  0.00     0.147 A 
HETATM    5  N   UNK N   1       5.092   5.431   1.465  0.00  0.00    -0.260 N 
HETATM    6  C   UNK N   1       5.494   4.294   0.873  0.00  0.00     0.108 A 
HETATM    7  C   UNK N   1       4.631   3.239   0.762  0.00  0.00     0.136 A 
HETATM    8  N   UNK N   1       3.384   3.389   1.312  0.00  0.00    -0.336 N 
ATOM      9  HN  UNK N   1       2.723   2.614   1.262  1.00  0.00     0.168 HD
HETATM   10  C   UNK N   1       3.007   4.549   1.925  0.00  0.00     0.199 A 
HETATM   11  N   UNK N   1       3.881   5.591   1.985  0.00  0.00    -0.289 N 
ATOM     12  HN  UNK N   1       3.613   6.475   2.418  1.00  0.00     0.188 HD
ENDROOT
BRANCH   7  13
HETATM   13  N   UNK N   1       4.977   2.065   0.017  0.00  0.00    -0.341 N 
HETATM   14  H   UNK N   1       5.917   1.811  -0.127  0.00  0.00     0.167 HD
BRANCH  13  15
HETATM   15  C   UNK N   1       3.924   1.286  -0.502  0.00  0.00     0.034 A 
HETATM   16  C   UNK N   1       3.903  -0.115  -0.289  0.00  0.00     0.032 A 
HETATM   17  C   UNK N   1       2.675  -0.814  -0.351  0.00  0.00     0.034 A 
HETATM   18  C   UNK N   1       1.524  -0.052  -0.582  0.00  0.00     0.062 A 
HETATM   19  C   UNK N   1       1.590   1.273  -0.865  0.00  0.00     0.011 A 
HETATM   20  N   UNK N   1       0.232  -0.396  -0.518  0.00  0.00    -0.288 N 
HETATM   21  C   UNK N   1       2.753   1.965  -0.862  0.00  0.00     0.044 A 
HETATM   22  C   UNK N   1       0.314   1.739  -0.980  0.00  0.00     0.121 A 
HETATM   23  N   UNK N   1      -0.500   0.692  -0.755  0.00  0.00    -0.308 N 
ATOM     24  HN  UNK N   1      -1.519   0.726  -0.765  1.00  0.00     0.186 HD
BRANCH  20  25
HETATM   25  C   UNK N   1      -0.328  -1.714  -0.194  0.00  0.00     0.187 C 
BRANCH  25  26
HETATM   26  C   UNK N   1      -1.789  -1.628   0.171  0.00  0.00    -0.035 A 
HETATM   27  C   UNK N   1      -2.283  -2.307   1.291  0.00  0.00     0.009 A 
HETATM   28  C   UNK N   1      -3.631  -2.172   1.650  0.00  0.00     0.004 A 
HETATM   29  C   UNK N   1      -4.475  -1.327   0.918  0.00  0.00     0.042 A 
HETATM   30  C   UNK N   1      -3.980  -0.645  -0.195  0.00  0.00     0.117 A 
HETATM   31  C   UNK N   1      -2.657  -0.817  -0.574  0.00  0.00     0.051 A 
HETATM   32  F   UNK N   1      -4.765   0.215  -0.886  0.00  0.00    -0.206 F 
ENDBRANCH  25  26
ENDBRANCH  20  25
ENDBRANCH  13  15
ENDBRANCH   7  13
BRANCH   3  33
HETATM   33  N   UNK N   1       8.296   6.286   0.213  0.00  0.00    -0.301 N 
HETATM   34  C   UNK N   1       8.329   6.868  -1.010  0.00  0.00     0.365 C 
HETATM   35  O   UNK N   1       7.293   7.207  -1.566  0.00  0.00    -0.238 OA
HETATM   36  H   UNK N   1       9.112   6.262   0.763  0.00  0.00     0.171 HD
BRANCH  34  37
HETATM   37  O   UNK N   1       9.507   6.969  -1.674  0.00  0.00    -0.302 OA
BRANCH  37  38
HETATM   38  C   UNK N   1      10.458   5.955  -1.637  0.00  0.00     0.207 C 
BRANCH  38  39
HETATM   39  C   UNK N   1      10.826   5.541  -0.211  0.00  0.00     0.124 C 
HETATM   40  C   UNK N   1      11.689   6.580   0.506  0.00  0.00     0.194 C 
HETATM   41  O   UNK N   1      12.990   6.552  -0.016  0.00  0.00    -0.387 OA
HETATM   42  C   UNK N   1      13.527   5.314   0.369  0.00  0.00     0.186 C 
HETATM   43  C   UNK N   1      12.841   4.210  -0.436  0.00  0.00     0.140 C 
HETATM   44  N   UNK N   1      11.406   4.193  -0.142  0.00  0.00    -0.411 N 
HETATM   45  H   UNK N   1      10.876   3.351   0.082  0.00  0.00     0.153 HD
ENDBRANCH  38  39
ENDBRANCH  37  38
ENDBRANCH  34  37
ENDBRANCH   3  33
TORSDOF 8
