REMARK  6 active torsions:
REMARK  status: ('A' for Active; 'I' for Inactive)
REMARK    1  A    between atoms: C_6  and  C_12 
REMARK    2  A    between atoms: N_16  and  C_18 
REMARK    3  A    between atoms: C_18  and  C_42 
REMARK    4  A    between atoms: N_20  and  C_22 
REMARK       I    between atoms: N_25  and  C_28 
REMARK    5  A    between atoms: C_28  and  C_30 
REMARK    6  A    between atoms: C_35  and  C_38 
ROOT
HETATM    1  C   UNK N   1       1.141   5.433   1.092  0.00  0.00     0.160 C 
HETATM    2  C   UNK N   1       0.008   6.063   0.398  0.00  0.00     0.061 C 
HETATM    3  N   UNK N   1      -0.867   6.560  -0.174  0.00  0.00    -0.197 NA
ENDROOT
BRANCH   1   4
HETATM    4  C   UNK N   1       1.571   4.131   0.414  0.00  0.00     0.117 C 
HETATM    5  C   UNK N   1       3.046   3.739   0.576  0.00  0.00     0.308 C 
HETATM    6  N   UNK N   1       3.025   3.243  -0.798  0.00  0.00     0.098 N 
HETATM    7  C   UNK N   1       1.920   4.149  -1.070  0.00  0.00     0.308 C 
BRANCH   4   8
HETATM    8  N   UNK N   1       0.714   2.945   0.637  0.00  0.00    -0.288 N 
HETATM    9  N   UNK N   1      -0.572   2.857   0.324  0.00  0.00    -0.308 N 
HETATM   10  C   UNK N   1      -0.905   1.543   0.266  0.00  0.00     0.122 A 
ATOM     11  HN  UNK N   1      -1.201   3.642   0.156  1.00  0.00     0.186 HD
HETATM   12  C   UNK N   1       0.242   0.804   0.522  0.00  0.00     0.026 A 
HETATM   13  C   UNK N   1       1.229   1.707   0.758  0.00  0.00     0.126 A 
BRANCH  12  14
HETATM   14  C   UNK N   1       0.515  -0.640   0.389  0.00  0.00     0.060 A 
HETATM   15  C   UNK N   1      -0.459  -1.584   0.080  0.00  0.00     0.037 A 
HETATM   16  C   UNK N   1      -0.109  -2.886  -0.080  0.00  0.00     0.118 A 
HETATM   17  C   UNK N   1      -1.816  -1.492  -0.125  0.00  0.00     0.034 A 
HETATM   18  N   UNK N   1      -1.169  -3.647  -0.374  0.00  0.00    -0.352 N 
HETATM   19  N   UNK N   1       1.168  -3.318   0.043  0.00  0.00    -0.338 N 
HETATM   20  C   UNK N   1      -2.228  -2.799  -0.404  0.00  0.00     0.090 A 
HETATM   21  H   UNK N   1      -1.179  -4.618  -0.536  0.00  0.00     0.166 HD
HETATM   22  C   UNK N   1       2.134  -2.403   0.343  0.00  0.00     0.182 A 
ATOM     23  HN  UNK N   1       1.402  -4.303  -0.086  1.00  0.00     0.168 HD
HETATM   24  N   UNK N   1       1.806  -1.084   0.513  0.00  0.00    -0.351 N 
ATOM     25  HN  UNK N   1       2.542  -0.414   0.737  1.00  0.00     0.166 HD
ENDBRANCH  12  14
ENDBRANCH   4   8
BRANCH   6  26
HETATM   26  C   UNK N   1       4.188   3.248  -1.670  0.00  0.00     0.226 C 
HETATM   27  C   UNK N   1       5.168   4.397  -1.426  0.00  0.00     0.055 C 
HETATM   28  C   UNK N   1       6.590   3.862  -1.444  0.00  0.00     0.128 C 
HETATM   29  N   UNK N   1       6.682   2.836  -0.418  0.00  0.00    -0.348 N 
HETATM   30  C   UNK N   1       5.858   1.647  -0.543  0.00  0.00     0.128 C 
HETATM   31  C   UNK N   1       7.332   3.120   0.746  0.00  0.00     0.257 C 
HETATM   32  C   UNK N   1       4.825   1.832  -1.669  0.00  0.00     0.055 C 
HETATM   33  O   UNK N   1       7.311   2.337   1.686  0.00  0.00    -0.267 OA
BRANCH  31  34
HETATM   34  C   UNK N   1       7.859   4.479   0.923  0.00  0.00     0.074 A 
HETATM   35  C   UNK N   1       7.040   5.415   1.553  0.00  0.00     0.037 A 
HETATM   36  C   UNK N   1       7.374   6.764   1.501  0.00  0.00     0.089 A 
HETATM   37  N   UNK N   1       8.479   7.166   0.821  0.00  0.00    -0.359 N 
HETATM   38  C   UNK N   1       9.303   6.278   0.196  0.00  0.00     0.156 A 
ATOM     39  HN  UNK N   1       8.698   8.161   0.777  1.00  0.00     0.165 HD
HETATM   40  C   UNK N   1       9.002   4.906   0.234  0.00  0.00     0.163 A 
HETATM   41  F   UNK N   1       9.779   4.009  -0.429  0.00  0.00    -0.203 F 
BRANCH  38  42
HETATM   42  C   UNK N   1      10.501   6.780  -0.554  0.00  0.00     0.435 C 
HETATM   43  F   UNK N   1      11.652   6.305   0.045  0.00  0.00    -0.165 F 
HETATM   44  F   UNK N   1      10.454   6.347  -1.867  0.00  0.00    -0.165 F 
HETATM   45  F   UNK N   1      10.528   8.164  -0.545  0.00  0.00    -0.165 F 
ENDBRANCH  38  42
ENDBRANCH  31  34
ENDBRANCH   6  26
ENDBRANCH   1   4
TORSDOF 6
