REMARK  8 active torsions:
REMARK  status: ('A' for Active; 'I' for Inactive)
REMARK    1  A    between atoms: N_2  and  C_4 
REMARK    2  A    between atoms: C_4  and  C_5 
REMARK    3  A    between atoms: C_5  and  O_6 
REMARK    4  A    between atoms: O_6  and  N_7 
REMARK    5  A    between atoms: C_9  and  C_10 
REMARK    6  A    between atoms: C_9  and  C_19 
REMARK    7  A    between atoms: C_11  and  C_12 
REMARK    8  A    between atoms: C_15  and  O_18 
ROOT
HETATM    1  N   UNK N   1      -0.530  -2.190   0.121  0.00  0.00    -0.266 N 
ATOM      2  HN  UNK N   1      -0.390  -3.200   0.074  1.00  0.00     0.194 HD
HETATM    3  C   UNK N   1       0.517  -1.424   0.167  0.00  0.00     0.067 C 
ENDROOT
BRANCH   3   4
HETATM    4  C   UNK N   1       1.807  -2.155   0.117  0.00  0.00     0.033 C 
HETATM    5  C   UNK N   1       2.930  -1.675  -0.407  0.00  0.00     0.014 C 
BRANCH   5   6
HETATM    6  C   UNK N   1       4.219  -2.372  -0.334  0.00  0.00    -0.036 A 
HETATM    7  C   UNK N   1       5.364  -1.692  -0.759  0.00  0.00     0.014 A 
HETATM    8  C   UNK N   1       6.622  -2.284  -0.636  0.00  0.00     0.037 A 
HETATM    9  C   UNK N   1       6.740  -3.562  -0.086  0.00  0.00     0.065 A 
HETATM   10  C   UNK N   1       5.599  -4.254   0.332  0.00  0.00     0.037 A 
HETATM   11  C   UNK N   1       4.338  -3.659   0.214  0.00  0.00     0.014 A 
BRANCH   9  12
HETATM   12  O   UNK N   1       7.952  -4.124   0.046  0.00  0.00    -0.361 OA
HETATM   13  H   UNK N   1       8.036  -5.052   0.138  0.00  0.00     0.217 HD
ENDBRANCH   9  12
ENDBRANCH   5   6
ENDBRANCH   3   4
BRANCH   3  14
HETATM   14  C   UNK N   1       0.381   0.111   0.225  0.00  0.00     0.031 A 
HETATM   15  C   UNK N   1      -0.910   0.676   0.174  0.00  0.00     0.017 A 
HETATM   16  C   UNK N   1      -1.132   2.049   0.228  0.00  0.00     0.001 A 
HETATM   17  C   UNK N   1      -0.056   2.918   0.331  0.00  0.00     0.003 A 
HETATM   18  C   UNK N   1       1.235   2.408   0.397  0.00  0.00     0.043 A 
HETATM   19  C   UNK N   1       1.471   1.029   0.352  0.00  0.00     0.129 A 
HETATM   20  F   UNK N   1       2.756   0.646   0.466  0.00  0.00    -0.205 F 
ENDBRANCH   3  14
BRANCH   1  21
HETATM   21  O   UNK N   1      -1.759  -1.732   0.131  0.00  0.00    -0.278 OA
BRANCH  21  22
HETATM   22  C   UNK N   1      -2.595  -2.002  -0.921  0.00  0.00     0.231 C 
BRANCH  22  23
HETATM   23  C   UNK N   1      -3.857  -1.161  -0.806  0.00  0.00     0.299 C 
BRANCH  23  24
HETATM   24  N   UNK N   1      -4.650  -1.580   0.340  0.00  0.00     0.082 N 
HETATM   25  C   UNK N   1      -5.735  -0.626   0.475  0.00  0.00     0.309 C 
HETATM   26  C   UNK N   1      -5.259  -2.862   0.023  0.00  0.00     0.309 C 
ENDBRANCH  23  24
ENDBRANCH  22  23
ENDBRANCH  21  22
ENDBRANCH   1  21
TORSDOF 8
