REMARK  3 active torsions:
REMARK  status: ('A' for Active; 'I' for Inactive)
REMARK       I    between atoms: N_2  and  C_3 
REMARK    1  A    between atoms: C_3  and  C_5 
REMARK    2  A    between atoms: C_15  and  C_10 
REMARK    3  A    between atoms: C_15  and  O_24 
ROOT
HETATM    1  C   UNK N   1       1.648   6.223   0.084  0.00  0.00     0.032 A 
HETATM    2  C   UNK N   1       2.410   5.067  -0.151  0.00  0.00     0.018 A 
HETATM    3  C   UNK N   1       1.808   3.814  -0.228  0.00  0.00     0.013 A 
HETATM    4  C   UNK N   1       0.431   3.695  -0.073  0.00  0.00    -0.025 A 
HETATM    5  C   UNK N   1      -0.165   2.447  -0.183  0.00  0.00     0.023 A 
HETATM    6  C   UNK N   1      -1.556   2.299  -0.078  0.00  0.00    -0.017 A 
HETATM    7  C   UNK N   1      -2.345   3.438   0.161  0.00  0.00     0.011 A 
HETATM    8  C   UNK N   1      -1.747   4.701   0.300  0.00  0.00     0.013 A 
HETATM    9  C   UNK N   1      -0.359   4.837   0.169  0.00  0.00    -0.025 A 
HETATM   10  C   UNK N   1       0.253   6.094   0.249  0.00  0.00     0.029 A 
ENDROOT
BRANCH   6  11
HETATM   11  C   UNK N   1      -2.195   0.945  -0.314  0.00  0.00     0.130 A 
HETATM   12  C   UNK N   1      -3.129   0.507   0.856  0.00  0.00     0.070 A 
HETATM   13  C   UNK N   1      -2.644  -0.879   1.366  0.00  0.00     0.133 A 
HETATM   14  N   UNK N   1      -1.470  -1.104   0.568  0.00  0.00    -0.342 N 
HETATM   15  C   UNK N   1      -1.228  -0.177  -0.315  0.00  0.00     0.067 A 
HETATM   16  C   UNK N   1      -0.514  -2.034   0.462  0.00  0.00     0.183 A 
HETATM   17  C   UNK N   1      -0.089  -0.510  -1.018  0.00  0.00     0.117 A 
HETATM   18  N   UNK N   1       0.362  -1.687  -0.515  0.00  0.00    -0.360 N 
ATOM     19  HN  UNK N   1       1.190  -2.205  -0.811  1.00  0.00     0.166 HD
BRANCH  11  20
HETATM   20  O   UNK N   1      -2.909   0.962  -1.514  0.00  0.00    -0.378 OA
HETATM   21  H   UNK N   1      -3.147   1.397  -2.347  0.00  0.00     0.211 HD
ENDBRANCH  11  20
ENDBRANCH   6  11
BRANCH   1  22
HETATM   22  C   UNK N   1       2.361   7.540   0.137  0.00  0.00     0.251 C 
HETATM   23  N   UNK N   1       1.732   8.738   0.282  0.00  0.00    -0.361 N 
HETATM   24  C   UNK N   1       0.308   8.922   0.385  0.00  0.00     0.149 C 
HETATM   25  H   UNK N   1       2.297   9.544   0.319  0.00  0.00     0.162 HD
HETATM   26  O   UNK N   1       3.579   7.541   0.034  0.00  0.00    -0.268 OA
ENDBRANCH   1  22
TORSDOF 3
