REMARK  7 active torsions:
REMARK  status: ('A' for Active; 'I' for Inactive)
REMARK    1  A    between atoms: P_4  and  N_10 
REMARK    2  A    between atoms: C_7  and  O_8 
REMARK    3  A    between atoms: O_8  and  O_9 
REMARK    4  A    between atoms: N_10  and  C_11 
REMARK    5  A    between atoms: N_10  and  C_14 
REMARK    6  A    between atoms: C_11  and  C_12 
REMARK    7  A    between atoms: C_14  and  C_15 
ROOT
HETATM    1  C   UNK N   1       3.766  -1.248   0.083  0.00  0.00     0.083 C 
HETATM    2  C   UNK N   1       2.313  -1.368  -0.344  0.00  0.00     0.183 C 
HETATM    3  O   UNK N   1       1.570  -0.417   0.375  0.00  0.00    -0.307 OA
HETATM    4  P   UNK N   1       1.709   1.075  -0.530  0.00  0.00     0.367 P 
HETATM    5  O   UNK N   1       0.462   1.178   0.396  0.00  0.00    -0.248 OA
HETATM    6  N   UNK N   1       3.136   1.048   0.601  0.00  0.00    -0.308 N 
HETATM    7  C   UNK N   1       4.171   0.218  -0.015  0.00  0.00     0.264 C 
HETATM    8  H   UNK N   1       3.202   1.524   1.500  0.00  0.00     0.166 HD
ENDROOT
BRANCH   4   9
HETATM    9  N   UNK N   1       1.808   2.825  -0.002  0.00  0.00    -0.221 NA
BRANCH   9  10
HETATM   10  C   UNK N   1       0.687   3.564  -0.589  0.00  0.00     0.116 C 
BRANCH  10  11
HETATM   11  C   UNK N   1       0.174   4.591   0.402  0.00  0.00     0.129 C 
HETATM   12 Cl   UNK N   1      -1.503   5.012  -0.007  0.00  0.00    -0.129 Cl
ENDBRANCH  10  11
ENDBRANCH   9  10
BRANCH   9  13
HETATM   13  C   UNK N   1       2.999   3.432  -0.599  0.00  0.00     0.116 C 
BRANCH  13  14
HETATM   14  C   UNK N   1       3.575   4.471   0.345  0.00  0.00     0.129 C 
HETATM   15 Cl   UNK N   1       5.260   4.811  -0.105  0.00  0.00    -0.129 Cl
ENDBRANCH  13  14
ENDBRANCH   9  13
ENDBRANCH   4   9
BRANCH   7  16
HETATM   16  O   UNK N   1       5.389   0.415   0.637  0.00  0.00    -0.217 OA
BRANCH  16  17
HETATM   17  O   UNK N   1       6.296   0.321  -0.310  0.00  0.00    -0.248 OA
HETATM   18  H   UNK N   1       6.570  -0.293  -1.008  0.00  0.00     0.253 HD
ENDBRANCH  16  17
ENDBRANCH   7  16
TORSDOF 7
