REMARK  2 active torsions:
REMARK  status: ('A' for Active; 'I' for Inactive)
REMARK    1  A    between atoms: C_3  and  C_11 
REMARK    2  A    between atoms: C_4  and  C_5 
ROOT
HETATM    1  O   UNK N   1       1.248   1.018   0.000  0.00  0.00    -0.287 OA
HETATM    2  C   UNK N   1       0.421   0.121  -0.000  0.00  0.00     0.196 A 
HETATM    3  C   UNK N   1       1.148  -1.229  -0.000  0.00  0.00     0.040 A 
HETATM    4  C   UNK N   1      -0.067  -1.314  -0.000  0.00  0.00     0.040 A 
ENDROOT
BRANCH   3   5
HETATM    5  C   UNK N   1       2.285  -2.155   0.000  0.00  0.00    -0.021 A 
HETATM    6  C   UNK N   1       3.585  -1.644   0.001  0.00  0.00     0.012 A 
HETATM    7  C   UNK N   1       4.679  -2.515   0.001  0.00  0.00     0.001 A 
HETATM    8  C   UNK N   1       4.473  -3.898   0.000  0.00  0.00     0.000 A 
HETATM    9  C   UNK N   1       3.173  -4.411  -0.000  0.00  0.00     0.001 A 
HETATM   10  C   UNK N   1       2.081  -3.541  -0.000  0.00  0.00     0.012 A 
ENDBRANCH   3   5
BRANCH   4  11
HETATM   11  C   UNK N   1      -1.197  -2.243  -0.000  0.00  0.00    -0.021 A 
HETATM   12  C   UNK N   1      -0.993  -3.628  -0.000  0.00  0.00     0.012 A 
HETATM   13  C   UNK N   1      -2.087  -4.497  -0.000  0.00  0.00     0.001 A 
HETATM   14  C   UNK N   1      -3.386  -3.981  -0.000  0.00  0.00     0.000 A 
HETATM   15  C   UNK N   1      -3.590  -2.598  -0.000  0.00  0.00     0.001 A 
HETATM   16  C   UNK N   1      -2.496  -1.730  -0.000  0.00  0.00     0.012 A 
ENDBRANCH   4  11
TORSDOF 2
