REMARK  6 active torsions:
REMARK  status: ('A' for Active; 'I' for Inactive)
REMARK    1  A    between atoms: C_6  and  C_7 
REMARK    2  A    between atoms: C_7  and  C_8 
REMARK    3  A    between atoms: C_7  and  C_12 
REMARK    4  A    between atoms: C_8  and  C_9 
REMARK    5  A    between atoms: C_9  and  O_11 
REMARK    6  A    between atoms: C_12  and  N_13 
ROOT
HETATM    1  C   UNK N   1       3.645  -0.045   0.191  0.00  0.00     0.045 C 
ENDROOT
BRANCH   1   2
HETATM    2  C   UNK N   1       3.369  -1.532   0.101  0.00  0.00    -0.052 A 
HETATM    3  C   UNK N   1       2.071  -2.012   0.336  0.00  0.00     0.009 A 
HETATM    4  C   UNK N   1       1.801  -3.384   0.279  0.00  0.00     0.024 A 
HETATM    5  C   UNK N   1       2.830  -4.289   0.002  0.00  0.00     0.034 A 
HETATM    6  C   UNK N   1       4.127  -3.824  -0.224  0.00  0.00     0.024 A 
HETATM    7 Cl   UNK N   1       2.496  -6.006  -0.058  0.00  0.00    -0.084 Cl
HETATM    8  C   UNK N   1       4.395  -2.454  -0.177  0.00  0.00     0.009 A 
ENDBRANCH   1   2
BRANCH   1   9
HETATM    9  C   UNK N   1       2.692   0.733  -0.720  0.00  0.00     0.120 C 
BRANCH   9  10
HETATM   10  C   UNK N   1       2.325   2.070  -0.150  0.00  0.00     0.140 C 
HETATM   11  O   UNK N   1       1.178   2.281   0.206  0.00  0.00    -0.650 OA
BRANCH  10  12
HETATM   12  O   UNK N   1       3.240   3.053  -0.061  0.00  0.00    -0.776 OA
HETATM   13  H   UNK N   1       4.151   2.844   0.001  0.00  0.00     0.167 HD
ENDBRANCH  10  12
ENDBRANCH   9  10
ENDBRANCH   1   9
BRANCH   1  14
HETATM   14  C   UNK N   1       5.106   0.285  -0.138  0.00  0.00     0.120 C 
BRANCH  14  15
HETATM   15  N   UNK N   1       5.496   1.568   0.414  0.00  0.00    -0.429 N 
HETATM   16  H   UNK N   1       6.415   1.782   0.802  0.00  0.00     0.149 HD
HETATM   17  H   UNK N   1       4.799   2.313   0.414  0.00  0.00     0.149 HD
ENDBRANCH  14  15
ENDBRANCH   1  14
TORSDOF 6
