REMARK  27 active torsions:
REMARK  status: ('A' for Active; 'I' for Inactive)
REMARK    1  A    between atoms: C_5  and  C_3 
REMARK    2  A    between atoms: C_6  and  C_4 
REMARK    3  A    between atoms: C_7  and  C_5 
REMARK    4  A    between atoms: C_8  and  C_6 
REMARK    5  A    between atoms: C_9  and  C_7 
REMARK    6  A    between atoms: C_10  and  C_8 
REMARK    7  A    between atoms: C_15  and  C_9 
REMARK    8  A    between atoms: C_16  and  C_10 
REMARK    9  A    between atoms: C_12  and  C_11 
REMARK   10  A    between atoms: C_13  and  C_11 
REMARK   11  A    between atoms: C_14  and  C_12 
REMARK   12  A    between atoms: C_17  and  C_13 
REMARK   13  A    between atoms: C_18  and  C_14 
REMARK   14  A    between atoms: C_19  and  C_15 
REMARK   15  A    between atoms: C_20  and  C_16 
REMARK   16  A    between atoms: C_21  and  C_17 
REMARK   17  A    between atoms: C_22  and  C_18 
REMARK   18  A    between atoms: C_27  and  C_19 
REMARK   19  A    between atoms: C_28  and  C_20 
REMARK   20  A    between atoms: C_29  and  C_21 
REMARK   21  A    between atoms: C_30  and  C_22 
REMARK   22  A    between atoms: N_37  and  C_27 
REMARK   23  A    between atoms: N_39  and  C_28 
REMARK   24  A    between atoms: N_41  and  C_29 
REMARK   25  A    between atoms: N_42  and  C_30 
REMARK   26  A    between atoms: N_37  and  C_35 
REMARK   27  A    between atoms: N_39  and  C_36 
ROOT
HETATM    1  C   UNK N   1       5.597   0.755  -0.380  0.00  0.00     0.000 C 
ENDROOT
BRANCH   1   2
HETATM    2  C   UNK N   1       6.097  -0.666  -0.567  0.00  0.00     0.000 C 
BRANCH   2   3
HETATM    3  C   UNK N   1       5.507  -1.589   0.486  0.00  0.00     0.000 C 
BRANCH   3   4
HETATM    4  C   UNK N   1       4.791  -2.746  -0.193  0.00  0.00     0.002 C 
BRANCH   4   5
HETATM    5  C   UNK N   1       3.400  -2.328  -0.640  0.00  0.00     0.020 C 
BRANCH   5   6
HETATM    6  C   UNK N   1       2.384  -2.720   0.423  0.00  0.00     0.128 C 
BRANCH   6   7
HETATM    7  N   UNK N   1       1.105  -2.062   0.207  0.00  0.00    -0.366 N 
HETATM    8  C   UNK N   1      -0.016  -2.816   0.007  0.00  0.00     0.092 A 
HETATM    9  C   UNK N   1      -1.266  -2.206  -0.142  0.00  0.00     0.046 A 
HETATM   10  C   UNK N   1      -1.370  -0.811  -0.078  0.00  0.00     0.030 A 
HETATM   11  C   UNK N   1      -0.196  -0.059   0.124  0.00  0.00     0.046 A 
HETATM   12  C   UNK N   1       1.028  -0.703   0.268  0.00  0.00     0.092 A 
BRANCH  10  13
HETATM   13  N   UNK N   1      -2.518  -0.245  -0.185  0.00  0.00    -0.390 N 
ATOM     14  HN  UNK N   1      -3.345  -0.824  -0.333  1.00  0.00     0.159 HD
BRANCH  13  15
HETATM   15  C   UNK N   1      -2.669   1.193  -0.101  0.00  0.00     0.119 C 
BRANCH  15  16
HETATM   16  C   UNK N   1      -4.122   1.618  -0.111  0.00  0.00     0.020 C 
BRANCH  16  17
HETATM   17  C   UNK N   1      -4.184   2.959   0.595  0.00  0.00     0.002 C 
BRANCH  17  18
HETATM   18  C   UNK N   1      -5.159   3.914  -0.063  0.00  0.00     0.000 C 
BRANCH  18  19
HETATM   19  C   UNK N   1      -4.436   5.232  -0.256  0.00  0.00     0.000 C 
BRANCH  19  20
HETATM   20  C   UNK N   1      -5.362   6.414  -0.060  0.00  0.00    -0.000 C 
BRANCH  20  21
HETATM   21  C   UNK N   1      -4.520   7.675  -0.056  0.00  0.00    -0.005 C 
HETATM   22  C   UNK N   1      -5.404   8.897   0.065  0.00  0.00     0.005 C 
ENDBRANCH  20  21
ENDBRANCH  19  20
ENDBRANCH  18  19
ENDBRANCH  17  18
ENDBRANCH  16  17
ENDBRANCH  15  16
ENDBRANCH  13  15
ENDBRANCH  10  13
ENDBRANCH   6   7
ENDBRANCH   5   6
ENDBRANCH   4   5
ENDBRANCH   3   4
ENDBRANCH   2   3
ENDBRANCH   1   2
BRANCH   1  23
HETATM   23  C   UNK N   1       6.380   1.464   0.712  0.00  0.00     0.000 C 
BRANCH  23  24
HETATM   24  C   UNK N   1       7.026   2.725   0.156  0.00  0.00     0.002 C 
BRANCH  24  25
HETATM   25  C   UNK N   1       8.275   2.397  -0.647  0.00  0.00     0.020 C 
BRANCH  25  26
HETATM   26  C   UNK N   1       9.449   2.145   0.289  0.00  0.00     0.128 C 
BRANCH  26  27
HETATM   27  N   UNK N   1       9.956   0.789   0.140  0.00  0.00    -0.366 N 
HETATM   28  C   UNK N   1      11.233   0.607  -0.296  0.00  0.00     0.092 A 
HETATM   29  C   UNK N   1      11.757  -0.680  -0.419  0.00  0.00     0.046 A 
HETATM   30  C   UNK N   1      10.963  -1.788  -0.086  0.00  0.00     0.030 A 
HETATM   31  C   UNK N   1       9.657  -1.577   0.355  0.00  0.00     0.046 A 
HETATM   32  C   UNK N   1       9.169  -0.275   0.467  0.00  0.00     0.092 A 
BRANCH  30  33
HETATM   33  N   UNK N   1      11.412  -2.993  -0.162  0.00  0.00    -0.390 N 
ATOM     34  HN  UNK N   1      10.788  -3.758   0.095  1.00  0.00     0.159 HD
BRANCH  33  35
HETATM   35  C   UNK N   1      12.753  -3.319  -0.593  0.00  0.00     0.119 C 
BRANCH  35  36
HETATM   36  C   UNK N   1      13.702  -3.330   0.599  0.00  0.00     0.020 C 
BRANCH  36  37
HETATM   37  C   UNK N   1      14.471  -2.022   0.718  0.00  0.00     0.002 C 
BRANCH  37  38
HETATM   38  C   UNK N   1      15.415  -1.860  -0.461  0.00  0.00     0.000 C 
BRANCH  38  39
HETATM   39  C   UNK N   1      16.537  -0.908  -0.110  0.00  0.00     0.000 C 
BRANCH  39  40
HETATM   40  C   UNK N   1      17.839  -1.682  -0.083  0.00  0.00    -0.000 C 
BRANCH  40  41
HETATM   41  C   UNK N   1      19.001  -0.733   0.119  0.00  0.00    -0.005 C 
HETATM   42  C   UNK N   1      20.297  -1.514   0.071  0.00  0.00     0.005 C 
ENDBRANCH  40  41
ENDBRANCH  39  40
ENDBRANCH  38  39
ENDBRANCH  37  38
ENDBRANCH  36  37
ENDBRANCH  35  36
ENDBRANCH  33  35
ENDBRANCH  30  33
ENDBRANCH  26  27
ENDBRANCH  25  26
ENDBRANCH  24  25
ENDBRANCH  23  24
ENDBRANCH   1  23
TORSDOF 27
