REMARK  10 active torsions:
REMARK  status: ('A' for Active; 'I' for Inactive)
REMARK    1  A    between atoms: C_2  and  N_3 
REMARK    2  A    between atoms: N_3  and  C_4 
REMARK    3  A    between atoms: N_3  and  C_6 
REMARK    4  A    between atoms: C_6  and  C_7 
REMARK    5  A    between atoms: C_12  and  C_17 
REMARK    6  A    between atoms: C_17  and  O_18 
REMARK    7  A    between atoms: O_18  and  C_19 
REMARK       I    between atoms: C_19  and  N_21 
REMARK    8  A    between atoms: N_21  and  C_22 
REMARK    9  A    between atoms: C_25  and  C_28 
REMARK       I    between atoms: C_28  and  N_30 
REMARK   10  A    between atoms: N_30  and  O_31 
ROOT
HETATM    1  C   UNK N   1      -2.568  -0.844   1.587  0.00  0.00     0.219 C 
ENDROOT
BRANCH   1   2
HETATM    2  C   UNK N   1      -3.434   0.040   0.780  0.00  0.00    -0.033 A 
HETATM    3  C   UNK N   1      -3.429   1.407   1.070  0.00  0.00     0.021 A 
HETATM    4  C   UNK N   1      -4.232   2.272   0.362  0.00  0.00    -0.025 A 
HETATM    5  C   UNK N   1      -4.268   3.621   0.712  0.00  0.00     0.013 A 
HETATM    6  C   UNK N   1      -5.064   1.770  -0.658  0.00  0.00    -0.025 A 
HETATM    7  C   UNK N   1      -5.210   4.457   0.118  0.00  0.00     0.010 A 
HETATM    8  C   UNK N   1      -6.073   3.949  -0.858  0.00  0.00    -0.029 A 
HETATM    9  C   UNK N   1      -5.978   2.615  -1.265  0.00  0.00     0.021 A 
HETATM   10  C   UNK N   1      -5.038   0.409  -0.986  0.00  0.00     0.013 A 
HETATM   11  C   UNK N   1      -4.211  -0.460  -0.268  0.00  0.00     0.010 A 
BRANCH   8  12
HETATM   12  C   UNK N   1      -7.310   4.700  -1.194  0.00  0.00     0.311 C 
BRANCH  12  13
HETATM   13  N   UNK N   1      -8.350   4.290  -0.242  0.00  0.00     0.091 N 
BRANCH  13  14
HETATM   14  C   UNK N   1      -9.452   5.234  -0.318  0.00  0.00     0.268 C 
HETATM   15  C   UNK N   1     -10.392   5.035   0.864  0.00  0.00     0.037 C 
ENDBRANCH  13  14
BRANCH  13  16
HETATM   16  C   UNK N   1      -8.861   2.969  -0.607  0.00  0.00     0.268 C 
HETATM   17  C   UNK N   1      -8.535   1.970   0.492  0.00  0.00     0.037 C 
ENDBRANCH  13  16
ENDBRANCH  12  13
ENDBRANCH   8  12
ENDBRANCH   1   2
BRANCH   1  18
HETATM   18  O   UNK N   1      -1.400  -0.152   1.750  0.00  0.00    -0.299 OA
BRANCH  18  19
HETATM   19  C   UNK N   1      -0.367  -0.337   0.926  0.00  0.00     0.365 C 
HETATM   20  O   UNK N   1      -0.211  -1.430   0.390  0.00  0.00    -0.238 OA
HETATM   21  N   UNK N   1       0.533   0.669   0.761  0.00  0.00    -0.303 N 
HETATM   22  H   UNK N   1       0.322   1.560   1.124  0.00  0.00     0.171 HD
BRANCH  21  23
HETATM   23  C   UNK N   1       1.759   0.482   0.087  0.00  0.00     0.036 C 
HETATM   24  C   UNK N   1       2.898   1.018   0.683  0.00  0.00     0.030 C 
HETATM   25  C   UNK N   1       4.141   0.443   0.435  0.00  0.00     0.019 C 
HETATM   26  C   UNK N   1       4.233  -0.673  -0.407  0.00  0.00     0.034 C 
HETATM   27  C   UNK N   1       3.114  -1.106  -1.119  0.00  0.00     0.019 C 
HETATM   28  C   UNK N   1       1.883  -0.529  -0.876  0.00  0.00     0.030 C 
BRANCH  26  29
HETATM   29  C   UNK N   1       5.416  -1.538  -0.350  0.00  0.00     0.275 C 
HETATM   30  O   UNK N   1       6.384  -1.212   0.321  0.00  0.00    -0.265 OA
HETATM   31  N   UNK N   1       5.359  -2.772  -0.905  0.00  0.00    -0.233 N 
HETATM   32  H   UNK N   1       4.579  -3.021  -1.452  0.00  0.00     0.197 HD
BRANCH  31  33
HETATM   33  O   UNK N   1       6.345  -3.658  -0.720  0.00  0.00    -0.287 OA
HETATM   34  H   UNK N   1       6.146  -4.598  -0.586  0.00  0.00     0.244 HD
ENDBRANCH  31  33
ENDBRANCH  26  29
ENDBRANCH  21  23
ENDBRANCH  18  19
ENDBRANCH   1  18
TORSDOF 10
