REMARK  15 active torsions:
REMARK  status: ('A' for Active; 'I' for Inactive)
REMARK    1  A    between atoms: C_6  and  C_43 
REMARK    2  A    between atoms: C_14  and  O_19 
REMARK    3  A    between atoms: C_20  and  O_19 
REMARK    4  A    between atoms: C_21  and  O_30 
REMARK    5  A    between atoms: C_22  and  O_29 
REMARK    6  A    between atoms: C_23  and  O_28 
REMARK    7  A    between atoms: C_24  and  C_26 
REMARK    8  A    between atoms: C_26  and  O_27 
REMARK    9  A    between atoms: C_31  and  O_30 
REMARK   10  A    between atoms: C_32  and  O_41 
REMARK   11  A    between atoms: C_33  and  O_40 
REMARK   12  A    between atoms: C_34  and  O_39 
REMARK   13  A    between atoms: C_35  and  C_37 
REMARK   14  A    between atoms: C_37  and  O_38 
REMARK   15  A    between atoms: C_43  and  O_45 
ROOT
HETATM    1  C   UNK N   1       0.166  -2.669  -1.132  0.00  0.00     0.293 C 
HETATM    2  C   UNK N   1      -0.886  -3.649  -0.593  0.00  0.00     0.211 C 
HETATM    3  C   UNK N   1      -0.424  -5.110  -0.539  0.00  0.00     0.183 C 
HETATM    4  C   UNK N   1       1.053  -5.274  -0.186  0.00  0.00     0.180 C 
HETATM    5  C   UNK N   1       1.756  -3.931   0.012  0.00  0.00     0.179 C 
HETATM    6  O   UNK N   1       1.534  -3.066  -1.085  0.00  0.00    -0.348 OA
ENDROOT
BRANCH   1   7
HETATM    7  O   UNK N   1      -0.156  -1.305  -0.862  0.00  0.00    -0.343 OA
BRANCH   7   8
HETATM    8  C   UNK N   1       0.837  -0.533  -0.205  0.00  0.00     0.087 C 
HETATM    9  C   UNK N   1       1.568  -1.223   0.976  0.00  0.00     0.043 C 
HETATM   10  C   UNK N   1       2.601  -0.306   1.658  0.00  0.00     0.009 C 
HETATM   11  C   UNK N   1       3.377   0.597   0.667  0.00  0.00     0.003 C 
HETATM   12  C   UNK N   1       2.447   1.183  -0.436  0.00  0.00    -0.029 C 
HETATM   13  C   UNK N   1       4.666  -0.070   0.097  0.00  0.00    -0.035 C 
HETATM   14  C   UNK N   1       3.221   2.160  -1.317  0.00  0.00     0.011 C 
HETATM   15  C   UNK N   1       1.832   0.025  -1.212  0.00  0.00     0.053 C 
HETATM   16  C   UNK N   1       1.217   1.882   0.158  0.00  0.00     0.046 C 
HETATM   17  C   UNK N   1       4.462   1.519  -1.930  0.00  0.00     0.007 C 
HETATM   18  C   UNK N   1       5.397   0.898  -0.875  0.00  0.00     0.013 C 
HETATM   19  C   UNK N   1       6.439   1.824  -0.195  0.00  0.00     0.046 C 
HETATM   20  C   UNK N   1       7.512   0.936   0.475  0.00  0.00     0.020 C 
HETATM   21  C   UNK N   1       7.169   2.645  -1.248  0.00  0.00     0.027 C 
HETATM   22  C   UNK N   1       7.041  -0.466   0.896  0.00  0.00     0.002 C 
HETATM   23  C   UNK N   1       5.570  -0.445   1.283  0.00  0.00     0.010 C 
HETATM   24  C   UNK N   1       0.257   0.748   0.306  0.00  0.00    -0.054 C 
HETATM   25  C   UNK N   1      -0.722   0.785   1.211  0.00  0.00     0.017 C 
HETATM   26  C   UNK N   1       4.370  -1.344  -0.684  0.00  0.00     0.016 C 
BRANCH  19  27
HETATM   27  C   UNK N   1       5.809   2.776   0.807  0.00  0.00     0.148 C 
HETATM   28  O   UNK N   1       5.004   3.609   0.444  0.00  0.00    -0.649 OA
BRANCH  27  29
HETATM   29  O   UNK N   1       6.160   2.719   2.112  0.00  0.00    -0.776 OA
HETATM   30  H   UNK N   1       6.247   2.489   3.016  0.00  0.00     0.167 HD
ENDBRANCH  27  29
ENDBRANCH  19  27
ENDBRANCH   7   8
ENDBRANCH   1   7
BRANCH   2  31
HETATM   31  O   UNK N   1      -1.459  -3.225   0.609  0.00  0.00    -0.346 OA
BRANCH  31  32
HETATM   32  C   UNK N   1      -2.818  -3.369   0.322  0.00  0.00     0.292 C 
HETATM   33  C   UNK N   1      -3.682  -2.135   0.575  0.00  0.00     0.204 C 
HETATM   34  C   UNK N   1      -5.046  -2.452  -0.058  0.00  0.00     0.183 C 
HETATM   35  C   UNK N   1      -5.579  -3.825   0.382  0.00  0.00     0.180 C 
HETATM   36  C   UNK N   1      -4.455  -4.860   0.213  0.00  0.00     0.179 C 
HETATM   37  O   UNK N   1      -3.355  -4.473   0.994  0.00  0.00    -0.348 OA
BRANCH  33  38
HETATM   38  O   UNK N   1      -3.131  -1.019  -0.056  0.00  0.00    -0.388 OA
HETATM   39  H   UNK N   1      -2.268  -0.963  -0.495  0.00  0.00     0.210 HD
ENDBRANCH  33  38
BRANCH  34  40
HETATM   40  O   UNK N   1      -5.971  -1.448   0.231  0.00  0.00    -0.390 OA
HETATM   41  H   UNK N   1      -5.689  -0.542   0.432  0.00  0.00     0.210 HD
ENDBRANCH  34  40
BRANCH  35  42
HETATM   42  O   UNK N   1      -6.672  -4.172  -0.415  0.00  0.00    -0.390 OA
HETATM   43  H   UNK N   1      -7.260  -3.636  -0.969  0.00  0.00     0.210 HD
ENDBRANCH  35  42
BRANCH  36  44
HETATM   44  C   UNK N   1      -4.895  -6.255   0.618  0.00  0.00     0.198 C 
BRANCH  44  45
HETATM   45  O   UNK N   1      -3.859  -7.160   0.378  0.00  0.00    -0.398 OA
HETATM   46  H   UNK N   1      -4.044  -8.097   0.211  0.00  0.00     0.209 HD
ENDBRANCH  44  45
ENDBRANCH  36  44
ENDBRANCH  31  32
ENDBRANCH   2  31
BRANCH   3  47
HETATM   47  O   UNK N   1      -0.674  -5.731  -1.761  0.00  0.00    -0.390 OA
HETATM   48  H   UNK N   1      -1.135  -5.796  -2.611  0.00  0.00     0.210 HD
ENDBRANCH   3  47
BRANCH   5  49
HETATM   49  C   UNK N   1       3.252  -4.138   0.221  0.00  0.00     0.198 C 
BRANCH  49  50
HETATM   50  O   UNK N   1       3.832  -4.712  -0.913  0.00  0.00    -0.398 OA
HETATM   51  H   UNK N   1       3.689  -5.260  -1.700  0.00  0.00     0.209 HD
ENDBRANCH  49  50
ENDBRANCH   5  49
BRANCH   4  52
HETATM   52  O   UNK N   1       1.180  -6.066   0.956  0.00  0.00    -0.390 OA
HETATM   53  H   UNK N   1       0.748  -6.417   1.750  0.00  0.00     0.210 HD
ENDBRANCH   4  52
TORSDOF 15
