REMARK  0 active torsions:
REMARK  status: ('A' for Active; 'I' for Inactive)
ROOT
HETATM    1  C   UNK N   1       0.664   0.102   0.292  0.00  0.00     0.095 A 
HETATM    2  C   UNK N   1       2.056  -0.110   0.323  0.00  0.00     0.026 A 
HETATM    3  C   UNK N   1       2.568  -1.384   0.032  0.00  0.00     0.002 A 
HETATM    4  C   UNK N   1       1.696  -2.444  -0.269  0.00  0.00     0.001 A 
HETATM    5  C   UNK N   1       0.312  -2.234  -0.268  0.00  0.00     0.018 A 
HETATM    6  C   UNK N   1      -0.168  -0.956   0.019  0.00  0.00     0.056 A 
HETATM    7  C   UNK N   1      -1.507  -0.537   0.096  0.00  0.00     0.266 A 
HETATM    8  O   UNK N   1      -2.470  -1.265  -0.097  0.00  0.00    -0.267 OA
HETATM    9  N   UNK N   1      -1.637   0.753   0.419  0.00  0.00    -0.246 N 
HETATM   10  S   UNK N   1      -0.153   1.719   0.689  0.00  0.00     0.266 S 
HETATM   11  O   UNK N   1      -1.004   2.698  -0.134  0.00  0.00    -0.200 OA
HETATM   12  O   UNK N   1       0.468   1.749  -0.719  0.00  0.00    -0.200 OA
HETATM   13  H   UNK N   1      -2.527   1.163   0.507  0.00  0.00     0.182 HD
ENDROOT
TORSDOF 0
