REMARK  6 active torsions:
REMARK  status: ('A' for Active; 'I' for Inactive)
REMARK    1  A    between atoms: C_8  and  C_7 
REMARK    2  A    between atoms: C_10  and  N_34 
REMARK       I    between atoms: N_13  and  C_14 
REMARK       I    between atoms: C_14  and  N_16 
REMARK    3  A    between atoms: N_16  and  C_18 
REMARK    4  A    between atoms: C_18  and  C_20 
REMARK    5  A    between atoms: C_22  and  C_30 
REMARK    6  A    between atoms: C_24  and  C_26 
ROOT
HETATM    1  C   UNK N   1       6.130   1.984  -0.665  0.00  0.00     0.124 C 
HETATM    2  C   UNK N   1       4.787   1.626  -1.299  0.00  0.00     0.066 C 
HETATM    3  C   UNK N   1       3.692   1.472  -0.248  0.00  0.00     0.227 C 
HETATM    4  C   UNK N   1       3.727   2.529   0.890  0.00  0.00     0.056 C 
HETATM    5  C   UNK N   1       5.120   2.603   1.493  0.00  0.00     0.130 C 
HETATM    6  N   UNK N   1       6.018   2.937   0.417  0.00  0.00    -0.325 N 
HETATM    7  C   UNK N   1       6.968   3.902   0.570  0.00  0.00     0.321 C 
HETATM    8  O   UNK N   1       7.235   4.301   1.695  0.00  0.00    -0.247 OA
HETATM    9  N   UNK N   1       7.684   4.376  -0.505  0.00  0.00    -0.330 N 
HETATM   10  C   UNK N   1       8.978   4.960  -0.226  0.00  0.00     0.155 C 
ENDROOT
BRANCH   1  11
HETATM   11  C   UNK N   1       7.173   0.926  -0.354  0.00  0.00    -0.029 A 
HETATM   12  C   UNK N   1       8.513   1.283  -0.565  0.00  0.00     0.013 A 
HETATM   13  C   UNK N   1       9.552   0.417  -0.225  0.00  0.00     0.043 A 
HETATM   14  C   UNK N   1       9.266  -0.826   0.336  0.00  0.00     0.117 A 
HETATM   15  C   UNK N   1       7.940  -1.204   0.552  0.00  0.00     0.049 A 
HETATM   16  F   UNK N   1      10.275  -1.662   0.678  0.00  0.00    -0.206 F 
HETATM   17  C   UNK N   1       6.888  -0.341   0.218  0.00  0.00    -0.051 A 
HETATM   18  C   UNK N   1       5.502  -0.796   0.506  0.00  0.00     0.049 C 
ENDBRANCH   1  11
BRANCH   9  19
HETATM   19  C   UNK N   1       6.960   4.981  -1.644  0.00  0.00     0.117 C 
HETATM   20  C   UNK N   1       5.883   4.179  -2.354  0.00  0.00     0.037 C 
BRANCH  19  21
HETATM   21  C   UNK N   1       6.490   6.357  -1.233  0.00  0.00    -0.034 A 
HETATM   22  C   UNK N   1       5.155   6.656  -0.888  0.00  0.00     0.025 A 
HETATM   23  C   UNK N   1       4.846   7.893  -0.281  0.00  0.00     0.049 A 
HETATM   24  C   UNK N   1       5.881   8.806  -0.013  0.00  0.00     0.032 A 
HETATM   25  C   UNK N   1       7.198   8.509  -0.381  0.00  0.00     0.049 A 
HETATM   26  C   UNK N   1       7.480   7.296  -0.981  0.00  0.00     0.025 A 
BRANCH  23  27
HETATM   27  C   UNK N   1       3.433   8.218   0.128  0.00  0.00     0.417 C 
HETATM   28  F   UNK N   1       2.672   8.482  -0.995  0.00  0.00    -0.166 F 
HETATM   29  F   UNK N   1       3.403   9.329   0.956  0.00  0.00    -0.166 F 
HETATM   30  F   UNK N   1       2.879   7.151   0.812  0.00  0.00    -0.166 F 
ENDBRANCH  23  27
BRANCH  25  31
HETATM   31  C   UNK N   1       8.341   9.429  -0.097  0.00  0.00     0.417 C 
HETATM   32  F   UNK N   1       8.958   9.773  -1.287  0.00  0.00    -0.166 F 
HETATM   33  F   UNK N   1       7.919  10.577   0.546  0.00  0.00    -0.166 F 
HETATM   34  F   UNK N   1       9.256   8.772   0.708  0.00  0.00    -0.166 F 
ENDBRANCH  25  31
ENDBRANCH  19  21
ENDBRANCH   9  19
BRANCH   3  35
HETATM   35  N   UNK N   1       2.395   1.248  -0.902  0.00  0.00     0.096 N 
HETATM   36  C   UNK N   1       2.110  -0.167  -0.602  0.00  0.00     0.292 C 
HETATM   37  C   UNK N   1       0.676  -0.573  -0.893  0.00  0.00     0.156 C 
HETATM   38  N   UNK N   1      -0.149   0.427  -0.292  0.00  0.00    -0.344 N 
HETATM   39  C   UNK N   1      -0.053   1.782  -0.701  0.00  0.00     0.116 A 
HETATM   40  C   UNK N   1      -0.887   0.253   0.803  0.00  0.00     0.220 A 
HETATM   41  C   UNK N   1       1.377   2.209  -0.412  0.00  0.00     0.298 C 
HETATM   42  C   UNK N   1      -1.011   2.524   0.253  0.00  0.00     0.036 A 
HETATM   43  C   UNK N   1      -1.495   1.500   1.304  0.00  0.00     0.105 A 
HETATM   44  O   UNK N   1      -0.984  -0.824   1.371  0.00  0.00    -0.273 OA
ENDBRANCH   3  35
TORSDOF 6
