REMARK  13 active torsions:
REMARK  status: ('A' for Active; 'I' for Inactive)
REMARK    1  A    between atoms: C_20  and  C_11 
REMARK    2  A    between atoms: O_34  and  C_11 
REMARK    3  A    between atoms: C_17  and  N_33 
REMARK    4  A    between atoms: C_18  and  O_35 
REMARK    5  A    between atoms: C_19  and  O_45 
REMARK    6  A    between atoms: C_32  and  C_20 
REMARK    7  A    between atoms: C_21  and  O_46 
REMARK    8  A    between atoms: C_22  and  O_45 
REMARK    9  A    between atoms: C_26  and  O_37 
REMARK   10  A    between atoms: O_40  and  C_29 
REMARK   11  A    between atoms: O_41  and  C_30 
REMARK   12  A    between atoms: C_31  and  O_46 
REMARK   13  A    between atoms: C_32  and  O_42 
ROOT
HETATM    1  C   UNK N   1      -2.250   2.044   0.095  0.00  0.00     0.001 A 
HETATM    2  C   UNK N   1      -2.140   3.335   0.613  0.00  0.00     0.001 A 
HETATM    3  C   UNK N   1      -1.106   1.354  -0.318  0.00  0.00     0.016 A 
HETATM    4  C   UNK N   1      -0.887   3.935   0.726  0.00  0.00     0.016 A 
HETATM    5  C   UNK N   1       6.378   0.960  -1.052  0.00  0.00     0.088 C 
HETATM    6  C   UNK N   1       7.734   2.669   0.251  0.00  0.00     0.083 C 
HETATM    7  C   UNK N   1       0.159   1.952  -0.210  0.00  0.00     0.029 A 
HETATM    8  C   UNK N   1       0.265   3.246   0.320  0.00  0.00     0.029 A 
HETATM    9  C   UNK N   1       5.160   1.758  -0.668  0.00  0.00    -0.009 A 
HETATM   10  C   UNK N   1       6.589   3.685   0.210  0.00  0.00     0.164 C 
HETATM   11  C   UNK N   1       5.253   3.038  -0.085  0.00  0.00     0.014 A 
HETATM   12  C   UNK N   1       2.720   1.850  -0.491  0.00  0.00     0.066 A 
HETATM   13  C   UNK N   1       2.817   3.138   0.072  0.00  0.00     0.066 A 
HETATM   14  C   UNK N   1       1.372   1.221  -0.648  0.00  0.00     0.197 A 
HETATM   15  C   UNK N   1       1.582   3.882   0.464  0.00  0.00     0.197 A 
HETATM   16  C   UNK N   1       3.901   1.165  -0.865  0.00  0.00     0.088 A 
HETATM   17  C   UNK N   1       4.079   3.712   0.290  0.00  0.00     0.090 A 
HETATM   18  C   UNK N   1       7.749   1.596  -0.833  0.00  0.00     0.127 C 
HETATM   19  O   UNK N   1       1.261   0.096  -1.110  0.00  0.00    -0.286 OA
HETATM   20  O   UNK N   1       1.649   5.020   0.903  0.00  0.00    -0.286 OA
ENDROOT
BRANCH  10  21
HETATM   21  O   UNK N   1       6.872   4.768  -0.681  0.00  0.00    -0.351 OA
BRANCH  21  22
HETATM   22  C   UNK N   1       6.656   6.066  -0.105  0.00  0.00     0.263 C 
HETATM   23  C   UNK N   1       7.183   7.189  -1.025  0.00  0.00     0.095 C 
HETATM   24  C   UNK N   1       8.655   7.537  -0.791  0.00  0.00     0.154 C 
HETATM   25  C   UNK N   1       9.320   6.349  -0.088  0.00  0.00     0.182 C 
HETATM   26  C   UNK N   1       8.617   6.180   1.283  0.00  0.00     0.152 C 
HETATM   27  C   UNK N   1       9.098   4.926   1.992  0.00  0.00     0.042 C 
HETATM   28  O   UNK N   1       7.188   6.190   1.215  0.00  0.00    -0.354 OA
BRANCH  24  29
HETATM   29  O   UNK N   1       8.746   8.690  -0.004  0.00  0.00    -0.393 OA
HETATM   30  H   UNK N   1       9.470   9.035   0.542  0.00  0.00     0.210 HD
ENDBRANCH  24  29
BRANCH  25  31
HETATM   31  O   UNK N   1      10.723   6.510   0.062  0.00  0.00    -0.351 OA
BRANCH  31  32
HETATM   32  C   UNK N   1      11.401   6.034  -1.101  0.00  0.00     0.262 C 
HETATM   33  C   UNK N   1      11.272   4.507  -1.302  0.00  0.00     0.088 C 
HETATM   34  C   UNK N   1      12.027   3.760  -0.221  0.00  0.00     0.110 C 
HETATM   35  C   UNK N   1      13.475   4.238  -0.267  0.00  0.00     0.169 C 
HETATM   36  C   UNK N   1      13.497   5.768  -0.068  0.00  0.00     0.151 C 
HETATM   37  C   UNK N   1      14.930   6.267  -0.133  0.00  0.00     0.042 C 
HETATM   38  O   UNK N   1      12.762   6.433  -1.083  0.00  0.00    -0.354 OA
BRANCH  34  39
HETATM   39  N   UNK N   1      11.950   2.332  -0.477  0.00  0.00    -0.423 N 
HETATM   40  H   UNK N   1      11.054   1.878  -0.656  0.00  0.00     0.150 HD
HETATM   41  H   UNK N   1      12.804   1.775  -0.477  0.00  0.00     0.150 HD
ENDBRANCH  34  39
BRANCH  35  42
HETATM   42  O   UNK N   1      14.216   3.603   0.733  0.00  0.00    -0.391 OA
HETATM   43  H   UNK N   1      14.092   2.937   1.427  0.00  0.00     0.210 HD
ENDBRANCH  35  42
ENDBRANCH  31  32
ENDBRANCH  25  31
ENDBRANCH  21  22
ENDBRANCH  10  21
BRANCH  18  44
HETATM   44  C   UNK N   1       8.680   0.496  -0.359  0.00  0.00     0.184 C 
HETATM   45  O   UNK N   1       9.653   0.178  -1.024  0.00  0.00    -0.292 OA
BRANCH  44  46
HETATM   46  C   UNK N   1       8.443  -0.200   0.957  0.00  0.00     0.245 C 
BRANCH  46  47
HETATM   47  O   UNK N   1       7.218  -0.871   0.959  0.00  0.00    -0.393 OA
HETATM   48  H   UNK N   1       6.389  -0.368   0.961  0.00  0.00     0.209 HD
ENDBRANCH  46  47
ENDBRANCH  44  46
ENDBRANCH  18  44
BRANCH  18  49
HETATM   49  O   UNK N   1       8.199   2.144  -2.037  0.00  0.00    -0.382 OA
HETATM   50  H   UNK N   1       8.684   2.064  -2.873  0.00  0.00     0.211 HD
ENDBRANCH  18  49
BRANCH  17  51
HETATM   51  O   UNK N   1       4.163   4.895   0.915  0.00  0.00    -0.359 OA
HETATM   52  H   UNK N   1       4.908   5.257   1.352  0.00  0.00     0.217 HD
ENDBRANCH  17  51
BRANCH  16  53
HETATM   53  O   UNK N   1       3.832  -0.068  -1.401  0.00  0.00    -0.359 OA
HETATM   54  H   UNK N   1       3.065  -0.456  -1.773  0.00  0.00     0.217 HD
ENDBRANCH  16  53
TORSDOF 13
