REMARK  3 active torsions:
REMARK  status: ('A' for Active; 'I' for Inactive)
REMARK    1  A    between atoms: C_4  and  C_7 
REMARK    2  A    between atoms: C_10  and  C_13 
REMARK    3  A    between atoms: C_16  and  C_19 
ROOT
HETATM    1  C   UNK N   1       0.866  -6.860   0.000  0.00  0.00    -0.026 A 
HETATM    2  C   UNK N   1      -0.310  -6.104   0.000  0.00  0.00     0.013 A 
HETATM    3  C   UNK N   1      -0.260  -4.718   0.000  0.00  0.00     0.013 A 
HETATM    4  C   UNK N   1       0.967  -4.040   0.000  0.00  0.00    -0.026 A 
HETATM    5  C   UNK N   1       2.157  -4.789  -0.000  0.00  0.00     0.013 A 
HETATM    6  C   UNK N   1       2.106  -6.192  -0.000  0.00  0.00     0.013 A 
ENDROOT
BRANCH   4   7
HETATM    7  C   UNK N   1       0.967  -2.560  -0.000  0.00  0.00    -0.026 A 
HETATM    8  C   UNK N   1      -0.260  -1.882  -0.000  0.00  0.00     0.013 A 
HETATM    9  C   UNK N   1      -0.310  -0.496  -0.000  0.00  0.00     0.013 A 
HETATM   10  C   UNK N   1       0.866   0.260  -0.000  0.00  0.00    -0.026 A 
HETATM   11  C   UNK N   1       2.106  -0.408   0.000  0.00  0.00     0.013 A 
HETATM   12  C   UNK N   1       2.157  -1.811   0.000  0.00  0.00     0.013 A 
BRANCH  10  13
HETATM   13  C   UNK N   1       0.778   1.738  -0.000  0.00  0.00    -0.026 A 
HETATM   14  C   UNK N   1      -0.482   2.366  -0.000  0.00  0.00     0.012 A 
HETATM   15  C   UNK N   1      -0.583   3.758  -0.000  0.00  0.00     0.001 A 
HETATM   16  C   UNK N   1       0.573   4.540   0.000  0.00  0.00     0.000 A 
HETATM   17  C   UNK N   1       1.830   3.929   0.000  0.00  0.00     0.001 A 
HETATM   18  C   UNK N   1       1.934   2.534   0.000  0.00  0.00     0.012 A 
ENDBRANCH  10  13
ENDBRANCH   4   7
BRANCH   1  19
HETATM   19  C   UNK N   1       0.778  -8.338   0.000  0.00  0.00    -0.026 A 
HETATM   20  C   UNK N   1      -0.482  -8.966   0.000  0.00  0.00     0.012 A 
HETATM   21  C   UNK N   1      -0.583 -10.358   0.000  0.00  0.00     0.001 A 
HETATM   22  C   UNK N   1       0.573 -11.140  -0.000  0.00  0.00     0.000 A 
HETATM   23  C   UNK N   1       1.830 -10.529  -0.000  0.00  0.00     0.001 A 
HETATM   24  C   UNK N   1       1.934  -9.134  -0.000  0.00  0.00     0.012 A 
ENDBRANCH   1  19
TORSDOF 3
