REMARK  9 active torsions:
REMARK  status: ('A' for Active; 'I' for Inactive)
REMARK    1  A    between atoms: O_2  and  C_3 
REMARK    2  A    between atoms: C_6  and  C_10 
REMARK    3  A    between atoms: C_8  and  O_9 
REMARK    4  A    between atoms: C_10  and  C_11 
REMARK    5  A    between atoms: C_11  and  C_12 
REMARK    6  A    between atoms: C_11  and  O_24 
REMARK    7  A    between atoms: C_14  and  O_22 
REMARK    8  A    between atoms: C_15  and  O_20 
REMARK    9  A    between atoms: C_16  and  O_18 
ROOT
HETATM    1  C   UNK N   1       2.736  -4.876  -0.433  0.00  0.00     0.155 C 
ENDROOT
BRANCH   1   2
HETATM    2  C   UNK N   1       1.998  -4.257   0.746  0.00  0.00     0.075 C 
BRANCH   2   3
HETATM    3  C   UNK N   1       1.649  -2.838   0.496  0.00  0.00    -0.053 A 
HETATM    4  C   UNK N   1       2.571  -1.825   0.758  0.00  0.00     0.010 A 
HETATM    5  C   UNK N   1       2.217  -0.491   0.551  0.00  0.00     0.040 A 
HETATM    6  C   UNK N   1       0.942  -0.151   0.082  0.00  0.00     0.101 A 
HETATM    7  C   UNK N   1       0.008  -1.189  -0.181  0.00  0.00     0.099 A 
HETATM    8  C   UNK N   1       0.372  -2.519   0.034  0.00  0.00     0.046 A 
BRANCH   6   9
HETATM    9  O   UNK N   1       0.667   1.167  -0.097  0.00  0.00    -0.353 OA
HETATM   10  C   UNK N   1      -0.528   1.677  -0.548  0.00  0.00     0.210 C 
ENDBRANCH   6   9
BRANCH   7  11
HETATM   11  O   UNK N   1      -1.230  -0.925  -0.634  0.00  0.00    -0.358 OA
HETATM   12  H   UNK N   1      -1.502  -0.086  -0.950  0.00  0.00     0.217 HD
ENDBRANCH   7  11
ENDBRANCH   2   3
ENDBRANCH   1   2
BRANCH   1  13
HETATM   13  C   UNK N   1       2.485  -6.353  -0.399  0.00  0.00    -0.024 A 
HETATM   14  C   UNK N   1       3.514  -7.268  -0.186  0.00  0.00     0.049 A 
HETATM   15  C   UNK N   1       3.245  -8.643  -0.070  0.00  0.00     0.104 A 
HETATM   16  C   UNK N   1       1.899  -9.104  -0.166  0.00  0.00     0.135 A 
HETATM   17  C   UNK N   1       0.860  -8.162  -0.408  0.00  0.00     0.104 A 
HETATM   18  C   UNK N   1       1.175  -6.810  -0.521  0.00  0.00     0.049 A 
BRANCH  15  19
HETATM   19  O   UNK N   1       4.261  -9.516   0.139  0.00  0.00    -0.353 OA
HETATM   20  C   UNK N   1       5.583  -9.141   0.232  0.00  0.00     0.210 C 
ENDBRANCH  15  19
BRANCH  16  21
HETATM   21  O   UNK N   1       1.572 -10.420  -0.029  0.00  0.00    -0.351 OA
HETATM   22  C   UNK N   1       2.426 -11.434   0.339  0.00  0.00     0.210 C 
ENDBRANCH  16  21
BRANCH  17  23
HETATM   23  O   UNK N   1      -0.454  -8.495  -0.519  0.00  0.00    -0.353 OA
HETATM   24  C   UNK N   1      -0.985  -9.754  -0.366  0.00  0.00     0.210 C 
ENDBRANCH  17  23
ENDBRANCH   1  13
BRANCH   1  25
HETATM   25  O   UNK N   1       4.099  -4.575  -0.341  0.00  0.00    -0.391 OA
HETATM   26  H   UNK N   1       4.752  -5.290  -0.276  0.00  0.00     0.210 HD
ENDBRANCH   1  25
TORSDOF 9
