REMARK  7 active torsions:
REMARK  status: ('A' for Active; 'I' for Inactive)
REMARK    1  A    between atoms: C_1  and  C_2 
REMARK    2  A    between atoms: C_1  and  C_3 
REMARK    3  A    between atoms: C_2  and  C_4 
REMARK    4  A    between atoms: C_3  and  C_5 
REMARK    5  A    between atoms: C_4  and  C_6 
REMARK    6  A    between atoms: C_5  and  C_7 
REMARK    7  A    between atoms: C_7  and  O_9 
ROOT
HETATM    1  C   UNK N   1       0.009  -0.312   0.000  0.00  0.00     0.000 C 
ENDROOT
BRANCH   1   2
HETATM    2  C   UNK N   1      -1.268   0.492   0.000  0.00  0.00     0.000 C 
BRANCH   2   3
HETATM    3  C   UNK N   1      -2.406  -0.504  -0.000  0.00  0.00    -0.000 C 
BRANCH   3   4
HETATM    4  C   UNK N   1      -3.741   0.200   0.000  0.00  0.00    -0.005 C 
HETATM    5  C   UNK N   1      -4.833  -0.848   0.000  0.00  0.00     0.005 C 
ENDBRANCH   3   4
ENDBRANCH   2   3
ENDBRANCH   1   2
BRANCH   1   6
HETATM    6  C   UNK N   1       1.229   0.576  -0.000  0.00  0.00     0.002 C 
BRANCH   6   7
HETATM    7  C   UNK N   1       2.435  -0.334   0.000  0.00  0.00     0.026 C 
BRANCH   7   8
HETATM    8  C   UNK N   1       3.715   0.472  -0.000  0.00  0.00     0.164 C 
BRANCH   8   9
HETATM    9  O   UNK N   1       4.796  -0.395   0.000  0.00  0.00    -0.401 OA
HETATM   10  H   UNK N   1       4.649  -1.354   0.000  0.00  0.00     0.209 HD
ENDBRANCH   8   9
ENDBRANCH   7   8
ENDBRANCH   6   7
ENDBRANCH   1   6
TORSDOF 7
