REMARK  3 active torsions:
REMARK  status: ('A' for Active; 'I' for Inactive)
REMARK    1  A    between atoms: N_2  and  C_3 
REMARK    2  A    between atoms: C_3  and  C_4 
REMARK    3  A    between atoms: C_7  and  C_10 
ROOT
HETATM    1  C   UNK N   1       0.987   3.281  -0.256  0.00  0.00     0.050 A 
HETATM    2  C   UNK N   1       1.531   1.997  -0.263  0.00  0.00    -0.015 A 
HETATM    3  C   UNK N   1       0.478   1.130  -0.135  0.00  0.00     0.015 A 
HETATM    4  C   UNK N   1       0.436  -0.270  -0.027  0.00  0.00     0.048 A 
HETATM    5  C   UNK N   1      -0.845  -0.860   0.055  0.00  0.00     0.060 A 
HETATM    6  C   UNK N   1      -2.014  -0.069   0.063  0.00  0.00     0.119 A 
HETATM    7  C   UNK N   1      -1.926   1.332  -0.010  0.00  0.00     0.072 A 
HETATM    8  C   UNK N   1      -0.659   1.899  -0.111  0.00  0.00     0.047 A 
HETATM    9  N   UNK N   1      -0.366   3.213  -0.176  0.00  0.00    -0.354 N 
HETATM   10  F   UNK N   1      -3.226  -0.665   0.165  0.00  0.00    -0.206 F 
HETATM   11  C   UNK N   1       1.644  -1.157   0.033  0.00  0.00     0.252 C 
HETATM   12  O   UNK N   1       1.488  -2.355  -0.134  0.00  0.00    -0.268 OA
HETATM   13  N   UNK N   1       2.902  -0.713   0.323  0.00  0.00    -0.357 N 
HETATM   14  C   UNK N   1       3.266   0.626   0.723  0.00  0.00     0.127 C 
HETATM   15  C   UNK N   1       2.959   1.607  -0.373  0.00  0.00     0.061 C 
HETATM   16  H   UNK N   1      -1.001   3.966  -0.166  0.00  0.00     0.166 HD
HETATM   17  H   UNK N   1       3.632  -1.369   0.253  0.00  0.00     0.162 HD
ENDROOT
BRANCH   1  18
HETATM   18  C   UNK N   1       1.747   4.552  -0.264  0.00  0.00    -0.009 A 
HETATM   19  C   UNK N   1       3.148   4.531  -0.260  0.00  0.00     0.014 A 
HETATM   20  C   UNK N   1       3.880   5.712  -0.169  0.00  0.00     0.010 A 
HETATM   21  C   UNK N   1       3.225   6.939  -0.077  0.00  0.00    -0.041 A 
HETATM   22  C   UNK N   1       1.820   6.976  -0.094  0.00  0.00     0.010 A 
HETATM   23  C   UNK N   1       1.084   5.786  -0.184  0.00  0.00     0.014 A 
BRANCH  21  24
HETATM   24  C   UNK N   1       4.062   8.176   0.049  0.00  0.00     0.152 C 
BRANCH  24  25
HETATM   25  N   UNK N   1       3.262   9.382   0.170  0.00  0.00    -0.422 N 
HETATM   26  C   UNK N   1       4.201  10.488   0.207  0.00  0.00     0.140 C 
HETATM   27  H   UNK N   1       2.245   9.440   0.220  0.00  0.00     0.153 HD
ENDBRANCH  24  25
ENDBRANCH  21  24
ENDBRANCH   1  18
TORSDOF 3
