REMARK  6 active torsions:
REMARK  status: ('A' for Active; 'I' for Inactive)
REMARK    1  A    between atoms: C_2  and  C_4 
REMARK    2  A    between atoms: C_4  and  C_5 
REMARK    3  A    between atoms: C_4  and  C_11 
REMARK       I    between atoms: C_11  and  N_13 
REMARK    4  A    between atoms: N_13  and  C_14 
REMARK    5  A    between atoms: C_17  and  C_20 
REMARK       I    between atoms: C_20  and  N_22 
REMARK    6  A    between atoms: N_22  and  O_23 
ROOT
HETATM    1  C   UNK N   1       1.678  -2.283   0.474  0.00  0.00     0.231 C 
HETATM    2  O   UNK N   1       1.548  -3.246   1.219  0.00  0.00    -0.272 OA
HETATM    3  N   UNK N   1       2.914  -1.848   0.115  0.00  0.00    -0.327 N 
HETATM    4  H   UNK N   1       2.984  -0.949  -0.280  0.00  0.00     0.169 HD
ENDROOT
BRANCH   3   5
HETATM    5  C   UNK N   1       4.114  -2.595   0.269  0.00  0.00     0.034 A 
HETATM    6  C   UNK N   1       5.339  -1.974   0.004  0.00  0.00     0.030 A 
HETATM    7  C   UNK N   1       6.509  -2.735  -0.093  0.00  0.00     0.019 A 
HETATM    8  C   UNK N   1       6.460  -4.130   0.045  0.00  0.00     0.034 A 
HETATM    9  C   UNK N   1       5.238  -4.748   0.336  0.00  0.00     0.019 A 
HETATM   10  C   UNK N   1       4.075  -3.988   0.444  0.00  0.00     0.030 A 
BRANCH   8  11
HETATM   11  C   UNK N   1       7.662  -4.952  -0.198  0.00  0.00     0.275 C 
HETATM   12  O   UNK N   1       8.731  -4.412  -0.457  0.00  0.00    -0.265 OA
HETATM   13  N   UNK N   1       7.573  -6.302  -0.191  0.00  0.00    -0.233 N 
HETATM   14  H   UNK N   1       6.712  -6.730   0.023  0.00  0.00     0.197 HD
BRANCH  13  15
HETATM   15  O   UNK N   1       8.637  -7.066  -0.472  0.00  0.00    -0.287 OA
HETATM   16  H   UNK N   1       8.543  -8.010  -0.675  0.00  0.00     0.244 HD
ENDBRANCH  13  15
ENDBRANCH   8  11
ENDBRANCH   3   5
BRANCH   1  17
HETATM   17  C   UNK N   1       0.468  -1.678  -0.211  0.00  0.00     0.114 C 
BRANCH  17  18
HETATM   18  C   UNK N   1       0.142  -0.230   0.214  0.00  0.00    -0.005 C 
HETATM   19  C   UNK N   1      -0.901   0.364  -0.720  0.00  0.00     0.011 C 
HETATM   20  C   UNK N   1       1.362   0.672   0.140  0.00  0.00     0.011 C 
ENDBRANCH  17  18
BRANCH  17  21
HETATM   21  C   UNK N   1      -0.700  -2.651  -0.229  0.00  0.00    -0.045 A 
HETATM   22  C   UNK N   1      -0.513  -3.924  -0.792  0.00  0.00     0.008 A 
HETATM   23  C   UNK N   1      -1.558  -4.849  -0.823  0.00  0.00     0.001 A 
HETATM   24  C   UNK N   1      -2.807  -4.506  -0.300  0.00  0.00     0.000 A 
HETATM   25  C   UNK N   1      -3.007  -3.240   0.257  0.00  0.00     0.001 A 
HETATM   26  C   UNK N   1      -1.958  -2.317   0.298  0.00  0.00     0.008 A 
ENDBRANCH  17  21
ENDBRANCH   1  17
TORSDOF 6
