REMARK  14 active torsions:
REMARK  status: ('A' for Active; 'I' for Inactive)
REMARK    1  A    between atoms: C_6  and  N_7 
REMARK    2  A    between atoms: C_13  and  C_37 
REMARK    3  A    between atoms: C_17  and  C_32 
REMARK    4  A    between atoms: C_21  and  C_25 
REMARK       I    between atoms: C_25  and  N_27 
REMARK    5  A    between atoms: N_27  and  C_28 
REMARK    6  A    between atoms: C_28  and  C_29 
REMARK    7  A    between atoms: C_29  and  O_31 
REMARK    8  A    between atoms: C_32  and  C_33 
REMARK    9  A    between atoms: C_33  and  C_34 
REMARK   10  A    between atoms: C_34  and  C_35 
REMARK   11  A    between atoms: C_35  and  N_36 
REMARK   12  A    between atoms: C_37  and  C_38 
REMARK   13  A    between atoms: C_38  and  C_39 
REMARK   14  A    between atoms: C_39  and  O_41 
ROOT
HETATM    1  C   UNK N   1      -4.815   1.004   0.631  0.00  0.00     0.039 A 
HETATM    2  C   UNK N   1      -3.617   0.283   0.750  0.00  0.00     0.040 A 
HETATM    3  C   UNK N   1      -2.384   0.947   0.644  0.00  0.00     0.084 A 
HETATM    4  C   UNK N   1      -2.369   2.345   0.415  0.00  0.00     0.067 A 
HETATM    5  C   UNK N   1      -3.566   3.046   0.296  0.00  0.00     0.056 A 
HETATM    6  C   UNK N   1      -4.791   2.393   0.404  0.00  0.00     0.104 A 
HETATM    7  C   UNK N   1      -1.096   3.049   0.187  0.00  0.00     0.255 C 
HETATM    8  O   UNK N   1      -0.062   2.417   0.295  0.00  0.00    -0.268 OA
HETATM    9  N   UNK N   1      -1.075   4.353  -0.231  0.00  0.00    -0.344 N 
HETATM   10  C   UNK N   1       0.116   5.018  -0.758  0.00  0.00     0.177 C 
HETATM   11  C   UNK N   1       1.401   4.455  -0.238  0.00  0.00     0.241 C 
HETATM   12  O   UNK N   1       1.712   4.613   0.935  0.00  0.00    -0.271 OA
HETATM   13  N   UNK N   1       2.023   3.527  -1.003  0.00  0.00    -0.346 N 
HETATM   14  C   UNK N   1       2.850   2.500  -0.422  0.00  0.00     0.176 C 
HETATM   15  C   UNK N   1       2.418   1.159  -0.966  0.00  0.00     0.241 C 
HETATM   16  O   UNK N   1       2.606   0.893  -2.145  0.00  0.00    -0.271 OA
HETATM   17  N   UNK N   1       1.785   0.267  -0.152  0.00  0.00    -0.346 N 
HETATM   18  C   UNK N   1       1.397  -1.056  -0.609  0.00  0.00     0.178 C 
HETATM   19  C   UNK N   1      -0.138  -1.238  -0.746  0.00  0.00     0.061 C 
HETATM   20  C   UNK N   1      -0.998  -1.061   0.513  0.00  0.00     0.178 C 
HETATM   21  O   UNK N   1      -1.198   0.281   0.715  0.00  0.00    -0.350 OA
HETATM   22  H   UNK N   1      -1.909   4.872  -0.174  0.00  0.00     0.163 HD
HETATM   23  H   UNK N   1       1.909   3.555  -1.980  0.00  0.00     0.163 HD
HETATM   24  H   UNK N   1       1.584   0.528   0.776  0.00  0.00     0.163 HD
ENDROOT
BRANCH  18  25
HETATM   25  C   UNK N   1       2.089  -2.131   0.206  0.00  0.00     0.240 C 
HETATM   26  O   UNK N   1       1.424  -2.942   0.831  0.00  0.00    -0.271 OA
HETATM   27  N   UNK N   1       3.444  -2.235   0.230  0.00  0.00    -0.349 N 
HETATM   28  H   UNK N   1       3.852  -2.954   0.763  0.00  0.00     0.163 HD
BRANCH  27  29
HETATM   29  C   UNK N   1       4.311  -1.335  -0.494  0.00  0.00     0.232 C 
BRANCH  29  30
HETATM   30  C   UNK N   1       5.379  -0.814   0.408  0.00  0.00     0.158 C 
HETATM   31  O   UNK N   1       5.403   0.367   0.708  0.00  0.00    -0.649 OA
BRANCH  30  32
HETATM   32  O   UNK N   1       6.331  -1.643   0.874  0.00  0.00    -0.775 OA
HETATM   33  H   UNK N   1       6.162  -2.506   1.199  0.00  0.00     0.167 HD
ENDBRANCH  30  32
ENDBRANCH  29  30
ENDBRANCH  27  29
ENDBRANCH  18  25
BRANCH  14  34
HETATM   34  C   UNK N   1       4.319   2.800  -0.651  0.00  0.00     0.035 C 
BRANCH  34  35
HETATM   35  C   UNK N   1       4.721   3.913   0.303  0.00  0.00     0.004 C 
BRANCH  35  36
HETATM   36  C   UNK N   1       5.967   4.627  -0.175  0.00  0.00     0.019 C 
BRANCH  36  37
HETATM   37  C   UNK N   1       7.200   3.803   0.126  0.00  0.00     0.111 C 
BRANCH  37  38
HETATM   38  N   UNK N   1       8.378   4.547  -0.277  0.00  0.00    -0.430 N 
HETATM   39  H   UNK N   1       9.245   4.091  -0.560  0.00  0.00     0.149 HD
HETATM   40  H   UNK N   1       8.337   5.566  -0.277  0.00  0.00     0.149 HD
ENDBRANCH  37  38
ENDBRANCH  36  37
ENDBRANCH  35  36
ENDBRANCH  34  35
ENDBRANCH  14  34
BRANCH  10  41
HETATM   41  C   UNK N   1       0.003   6.533  -0.802  0.00  0.00     0.045 C 
BRANCH  41  42
HETATM   42  C   UNK N   1       0.050   7.163   0.577  0.00  0.00     0.112 C 
BRANCH  42  43
HETATM   43  C   UNK N   1       0.829   8.431   0.493  0.00  0.00     0.139 C 
HETATM   44  O   UNK N   1       0.292   9.495   0.747  0.00  0.00    -0.650 OA
BRANCH  43  45
HETATM   45  O   UNK N   1       2.126   8.401   0.131  0.00  0.00    -0.776 OA
HETATM   46  H   UNK N   1       2.560   7.610  -0.121  0.00  0.00     0.167 HD
ENDBRANCH  43  45
ENDBRANCH  42  43
ENDBRANCH  41  42
ENDBRANCH  10  41
BRANCH   6  47
HETATM   47  N   UNK N   1      -5.994   3.136   0.251  0.00  0.00    -0.116 N 
HETATM   48  O   UNK N   1      -7.053   2.588   0.281  0.00  0.00    -0.532 OA
HETATM   49  O   UNK N   1      -5.943   4.436   0.040  0.00  0.00    -0.532 OA
ENDBRANCH   6  47
TORSDOF 14
