REMARK  22 active torsions:
REMARK  status: ('A' for Active; 'I' for Inactive)
REMARK    1  A    between atoms: C_2  and  C_3 
REMARK    2  A    between atoms: C_5  and  C_3 
REMARK    3  A    between atoms: C_9  and  C_67 
REMARK    4  A    between atoms: C_13  and  C_63 
REMARK    5  A    between atoms: C_17  and  C_38 
REMARK    6  A    between atoms: C_22  and  N_37 
REMARK    7  A    between atoms: C_26  and  C_30 
REMARK    8  A    between atoms: C_30  and  C_31 
REMARK       I    between atoms: C_38  and  N_40 
REMARK    9  A    between atoms: C_44  and  C_45 
REMARK       I    between atoms: C_45  and  N_47 
REMARK   10  A    between atoms: C_48  and  N_47 
REMARK   11  A    between atoms: C_48  and  C_49 
REMARK   12  A    between atoms: C_48  and  C_56 
REMARK   13  A    between atoms: C_49  and  C_50 
REMARK   14  A    between atoms: C_50  and  C_51 
REMARK   15  A    between atoms: C_51  and  N_52 
REMARK   16  A    between atoms: N_52  and  C_53 
REMARK       I    between atoms: C_56  and  N_58 
REMARK   17  A    between atoms: N_58  and  C_59 
REMARK   18  A    between atoms: C_59  and  C_60 
REMARK       I    between atoms: C_60  and  N_62 
REMARK   19  A    between atoms: C_63  and  C_64 
REMARK       I    between atoms: C_64  and  N_66 
REMARK   20  A    between atoms: C_67  and  C_68 
REMARK   21  A    between atoms: C_68  and  C_69 
REMARK   22  A    between atoms: C_69  and  C_70 
REMARK       I    between atoms: C_70  and  N_72 
ROOT
HETATM    1  C   UNK N   1      14.394  11.876  -0.128  0.00  0.00     0.180 C 
HETATM    2  C   UNK N   1      14.762  10.412  -0.298  0.00  0.00     0.241 C 
HETATM    3  O   UNK N   1      15.805  10.116  -0.864  0.00  0.00    -0.271 OA
HETATM    4  N   UNK N   1      13.978   9.416   0.170  0.00  0.00    -0.346 N 
HETATM    5  C   UNK N   1      12.603   9.598   0.575  0.00  0.00     0.176 C 
HETATM    6  C   UNK N   1      11.767   9.862  -0.663  0.00  0.00     0.241 C 
HETATM    7  O   UNK N   1      12.319   9.968  -1.751  0.00  0.00    -0.271 OA
HETATM    8  N   UNK N   1      10.419   9.996  -0.579  0.00  0.00    -0.346 N 
HETATM    9  C   UNK N   1       9.613  10.356  -1.736  0.00  0.00     0.185 C 
HETATM   10  C   UNK N   1       8.163  10.496  -1.373  0.00  0.00     0.241 C 
HETATM   11  O   UNK N   1       7.310   9.879  -1.995  0.00  0.00    -0.271 OA
HETATM   12  N   UNK N   1       7.807  11.339  -0.369  0.00  0.00    -0.345 N 
HETATM   13  C   UNK N   1       6.438  11.566   0.041  0.00  0.00     0.186 C 
HETATM   14  C   UNK N   1       6.387  12.604   1.149  0.00  0.00     0.120 C 
HETATM   15  S   UNK N   1       5.947  14.259   0.491  0.00  0.00    -0.095 SA
HETATM   16  S   UNK N   1       7.036  14.097  -1.359  0.00  0.00    -0.095 SA
HETATM   17  C   UNK N   1       8.658  14.795  -0.857  0.00  0.00     0.120 C 
HETATM   18  C   UNK N   1       9.274  14.352   0.476  0.00  0.00     0.177 C 
HETATM   19  C   UNK N   1      10.027  13.055   0.704  0.00  0.00     0.241 C 
HETATM   20  O   UNK N   1       9.533  12.212   1.435  0.00  0.00    -0.271 OA
HETATM   21  N   UNK N   1      11.284  12.842   0.223  0.00  0.00    -0.346 N 
HETATM   22  C   UNK N   1      12.019  13.811  -0.556  0.00  0.00     0.180 C 
HETATM   23  C   UNK N   1      12.873  13.184  -1.647  0.00  0.00     0.241 C 
HETATM   24  O   UNK N   1      12.595  13.461  -2.802  0.00  0.00    -0.271 OA
HETATM   25  N   UNK N   1      13.967  12.393  -1.415  0.00  0.00    -0.346 N 
HETATM   26  H   UNK N   1      14.366   8.514   0.239  0.00  0.00     0.163 HD
HETATM   27  H   UNK N   1       9.975   9.845   0.287  0.00  0.00     0.163 HD
HETATM   28  H   UNK N   1       8.521  11.823   0.106  0.00  0.00     0.163 HD
HETATM   29  H   UNK N   1      11.716  11.979   0.417  0.00  0.00     0.163 HD
HETATM   30  H   UNK N   1      14.517  12.153  -2.195  0.00  0.00     0.163 HD
ENDROOT
BRANCH  13  31
HETATM   31  C   UNK N   1       5.833  10.274   0.419  0.00  0.00     0.244 C 
HETATM   32  O   UNK N   1       6.323   9.641   1.346  0.00  0.00    -0.271 OA
HETATM   33  N   UNK N   1       4.813   9.765  -0.333  0.00  0.00    -0.337 N 
HETATM   34  C   UNK N   1       4.033  10.597  -1.197  0.00  0.00     0.127 C 
HETATM   35  C   UNK N   1       4.230   8.467  -0.225  0.00  0.00     0.179 C 
HETATM   36  C   UNK N   1       2.618  10.029  -0.997  0.00  0.00     0.022 C 
HETATM   37  C   UNK N   1       2.763   8.777  -0.093  0.00  0.00     0.037 C 
BRANCH  35  38
HETATM   38  C   UNK N   1       4.954   7.486   0.648  0.00  0.00     0.241 C 
HETATM   39  O   UNK N   1       4.434   7.023   1.650  0.00  0.00    -0.271 OA
HETATM   40  N   UNK N   1       6.216   7.144   0.286  0.00  0.00    -0.346 N 
HETATM   41  H   UNK N   1       6.569   7.519  -0.553  0.00  0.00     0.163 HD
BRANCH  40  42
HETATM   42  C   UNK N   1       7.080   6.268   1.043  0.00  0.00     0.176 C 
BRANCH  42  43
HETATM   43  C   UNK N   1       7.072   4.865   0.439  0.00  0.00     0.036 C 
BRANCH  43  44
HETATM   44  C   UNK N   1       6.991   4.874  -1.084  0.00  0.00     0.022 C 
BRANCH  44  45
HETATM   45  C   UNK N   1       5.911   3.908  -1.544  0.00  0.00     0.114 C 
BRANCH  45  46
HETATM   46  N   UNK N   1       4.571   4.419  -1.248  0.00  0.00    -0.418 N 
HETATM   47  H   UNK N   1       3.978   4.916  -1.913  0.00  0.00     0.153 HD
BRANCH  46  48
HETATM   48  C   UNK N   1       4.202   4.115   0.135  0.00  0.00     0.068 C 
HETATM   49  C   UNK N   1       2.848   4.720   0.440  0.00  0.00     0.031 C 
HETATM   50  C   UNK N   1       4.137   2.617   0.380  0.00  0.00     0.031 C 
ENDBRANCH  46  48
ENDBRANCH  45  46
ENDBRANCH  44  45
ENDBRANCH  43  44
ENDBRANCH  42  43
BRANCH  42  51
HETATM   51  C   UNK N   1       8.431   6.944   1.260  0.00  0.00     0.240 C 
HETATM   52  O   UNK N   1       8.446   7.987   1.891  0.00  0.00    -0.271 OA
HETATM   53  N   UNK N   1       9.619   6.460   0.806  0.00  0.00    -0.351 N 
HETATM   54  H   UNK N   1      10.426   6.971   1.042  0.00  0.00     0.163 HD
BRANCH  53  55
HETATM   55  C   UNK N   1       9.812   5.270   0.012  0.00  0.00     0.225 C 
BRANCH  55  56
HETATM   56  C   UNK N   1      10.659   4.260   0.723  0.00  0.00     0.233 C 
HETATM   57  O   UNK N   1      11.057   4.463   1.859  0.00  0.00    -0.272 OA
HETATM   58  N   UNK N   1      10.983   3.113   0.098  0.00  0.00    -0.369 N 
HETATM   59  H   UNK N   1      10.375   2.488  -0.360  0.00  0.00     0.159 HD
HETATM   60  H   UNK N   1      11.938   2.871   0.098  0.00  0.00     0.159 HD
ENDBRANCH  55  56
ENDBRANCH  53  55
ENDBRANCH  42  51
ENDBRANCH  40  42
ENDBRANCH  35  38
ENDBRANCH  13  31
BRANCH   9  61
HETATM   61  C   UNK N   1       9.851   9.446  -2.962  0.00  0.00     0.137 C 
BRANCH  61  62
HETATM   62  C   UNK N   1       9.804   7.973  -2.683  0.00  0.00     0.217 C 
HETATM   63  O   UNK N   1      10.661   7.451  -1.991  0.00  0.00    -0.274 OA
HETATM   64  N   UNK N   1       8.863   7.211  -3.269  0.00  0.00    -0.370 N 
HETATM   65  H   UNK N   1       8.035   7.528  -3.697  0.00  0.00     0.159 HD
HETATM   66  H   UNK N   1       9.017   6.238  -3.269  0.00  0.00     0.159 HD
ENDBRANCH  61  62
ENDBRANCH   9  61
BRANCH  18  67
HETATM   67  N   UNK N   1       8.613  14.880   1.657  0.00  0.00    -0.418 N 
HETATM   68  H   UNK N   1       8.702  15.468   2.486  0.00  0.00     0.150 HD
HETATM   69  H   UNK N   1       7.663  14.509   1.657  0.00  0.00     0.150 HD
ENDBRANCH  18  67
BRANCH   5  70
HETATM   70  C   UNK N   1      12.130   8.350   1.323  0.00  0.00     0.035 C 
BRANCH  70  71
HETATM   71  C   UNK N   1      12.515   7.061   0.609  0.00  0.00     0.012 C 
BRANCH  71  72
HETATM   72  C   UNK N   1      13.736   6.446   1.267  0.00  0.00     0.103 C 
BRANCH  72  73
HETATM   73  C   UNK N   1      14.774   6.131   0.242  0.00  0.00     0.215 C 
HETATM   74  O   UNK N   1      15.868   6.664   0.304  0.00  0.00    -0.274 OA
HETATM   75  N   UNK N   1      14.509   5.253  -0.746  0.00  0.00    -0.370 N 
HETATM   76  H   UNK N   1      13.858   5.099  -1.468  0.00  0.00     0.159 HD
HETATM   77  H   UNK N   1      15.184   4.536  -0.746  0.00  0.00     0.159 HD
ENDBRANCH  72  73
ENDBRANCH  71  72
ENDBRANCH  70  71
ENDBRANCH   5  70
BRANCH  22  78
HETATM   78  C   UNK N   1      12.863  14.690   0.350  0.00  0.00     0.073 C 
BRANCH  78  79
HETATM   79  C   UNK N   1      12.120  15.871   0.859  0.00  0.00    -0.056 A 
HETATM   80  C   UNK N   1      11.453  15.808   2.086  0.00  0.00     0.007 A 
HETATM   81  C   UNK N   1      10.756  16.923   2.560  0.00  0.00     0.001 A 
HETATM   82  C   UNK N   1      10.745  18.107   1.817  0.00  0.00     0.000 A 
HETATM   83  C   UNK N   1      11.436  18.179   0.604  0.00  0.00     0.001 A 
HETATM   84  C   UNK N   1      12.122  17.060   0.124  0.00  0.00     0.007 A 
ENDBRANCH  78  79
ENDBRANCH  22  78
BRANCH   1  85
HETATM   85  C   UNK N   1      15.684  12.559   0.397  0.00  0.00     0.013 C 
HETATM   86  C   UNK N   1      16.018  12.053   1.792  0.00  0.00     0.012 C 
BRANCH  85  87
HETATM   87  C   UNK N   1      15.692  14.075   0.423  0.00  0.00     0.002 C 
HETATM   88  C   UNK N   1      15.939  14.638  -0.963  0.00  0.00     0.005 C 
ENDBRANCH  85  87
ENDBRANCH   1  85
TORSDOF 22
