REMARK  10 active torsions:
REMARK  status: ('A' for Active; 'I' for Inactive)
REMARK       I    between atoms: C_2  and  N_4 
REMARK    1  A    between atoms: C_5  and  N_4 
REMARK    2  A    between atoms: C_5  and  C_6 
REMARK    3  A    between atoms: C_5  and  C_8 
REMARK    4  A    between atoms: C_8  and  O_9 
REMARK    5  A    between atoms: C_8  and  C_10 
REMARK    6  A    between atoms: C_10  and  O_11 
REMARK    7  A    between atoms: C_10  and  C_12 
REMARK    8  A    between atoms: C_12  and  O_13 
REMARK    9  A    between atoms: C_12  and  C_14 
REMARK   10  A    between atoms: C_14  and  O_15 
ROOT
HETATM    1  C   UNK N   1       5.773   3.050   0.136  0.00  0.00     0.178 C 
ENDROOT
BRANCH   1   2
HETATM    2  C   UNK N   1       4.541   2.144  -0.118  0.00  0.00     0.177 C 
BRANCH   2   3
HETATM    3  N   UNK N   1       3.350   2.948   0.092  0.00  0.00    -0.348 N 
HETATM    4  C   UNK N   1       2.089   2.513  -0.158  0.00  0.00     0.214 C 
HETATM    5  C   UNK N   1       0.935   3.408   0.138  0.00  0.00     0.117 C 
HETATM    6  O   UNK N   1       1.888   1.403  -0.623  0.00  0.00    -0.274 OA
HETATM    7  H   UNK N   1       3.465   3.863   0.438  0.00  0.00     0.163 HD
ENDBRANCH   2   3
BRANCH   2   8
HETATM    8  C   UNK N   1       4.485   0.940   0.787  0.00  0.00     0.258 C 
HETATM    9  O   UNK N   1       5.296   0.033   0.681  0.00  0.00    -0.305 OA
ENDBRANCH   2   8
ENDBRANCH   1   2
BRANCH   1  10
HETATM   10  O   UNK N   1       5.751   4.087  -0.802  0.00  0.00    -0.390 OA
HETATM   11  H   UNK N   1       6.366   4.460  -1.453  0.00  0.00     0.210 HD
ENDBRANCH   1  10
BRANCH   1  12
HETATM   12  C   UNK N   1       7.141   2.326   0.090  0.00  0.00     0.180 C 
BRANCH  12  13
HETATM   13  O   UNK N   1       7.288   1.634  -1.117  0.00  0.00    -0.390 OA
HETATM   14  H   UNK N   1       6.923   1.306  -1.954  0.00  0.00     0.210 HD
ENDBRANCH  12  13
BRANCH  12  15
HETATM   15  C   UNK N   1       8.323   3.300   0.295  0.00  0.00     0.173 C 
BRANCH  15  16
HETATM   16  O   UNK N   1       8.475   4.138  -0.813  0.00  0.00    -0.391 OA
HETATM   17  H   UNK N   1       9.032   4.338  -1.582  0.00  0.00     0.210 HD
ENDBRANCH  15  16
BRANCH  15  18
HETATM   18  C   UNK N   1       9.636   2.565   0.563  0.00  0.00     0.198 C 
BRANCH  18  19
HETATM   19  O   UNK N   1      10.005   1.760  -0.515  0.00  0.00    -0.398 OA
HETATM   20  H   UNK N   1       9.648   1.258  -1.265  0.00  0.00     0.209 HD
ENDBRANCH  18  19
ENDBRANCH  15  18
ENDBRANCH  12  15
ENDBRANCH   1  12
TORSDOF 10
