REMARK  3 active torsions:
REMARK  status: ('A' for Active; 'I' for Inactive)
REMARK    1  A    between atoms: C_8  and  N_10 
REMARK    2  A    between atoms: N_10  and  C_11 
REMARK    3  A    between atoms: C_11  and  C_12 
REMARK       I    between atoms: C_12  and  N_14 
ROOT
HETATM    1  C   UNK N   1       4.880   2.496  -0.057  0.00  0.00     0.001 A 
HETATM    2  C   UNK N   1       4.970   1.093  -0.103  0.00  0.00     0.001 A 
HETATM    3  C   UNK N   1       3.804   0.313  -0.079  0.00  0.00     0.007 A 
HETATM    4  C   UNK N   1       2.570   0.958   0.004  0.00  0.00    -0.050 A 
HETATM    5  C   UNK N   1       2.480   2.321   0.051  0.00  0.00    -0.050 A 
HETATM    6  C   UNK N   1       3.624   3.120   0.016  0.00  0.00     0.007 A 
HETATM    7  C   UNK N   1       1.082   2.795   0.129  0.00  0.00     0.064 C 
HETATM    8  C   UNK N   1       0.316   1.481   0.387  0.00  0.00     0.085 C 
HETATM    9  C   UNK N   1       1.254   0.302   0.036  0.00  0.00     0.064 C 
ENDROOT
BRANCH   8  10
HETATM   10  N   UNK N   1      -0.950   1.441  -0.339  0.00  0.00    -0.408 N 
HETATM   11  H   UNK N   1      -1.298   2.159  -0.975  0.00  0.00     0.154 HD
BRANCH  10  12
HETATM   12  C   UNK N   1      -1.632   0.194   0.001  0.00  0.00     0.217 C 
BRANCH  12  13
HETATM   13  C   UNK N   1      -3.123   0.334  -0.011  0.00  0.00     0.232 C 
HETATM   14  O   UNK N   1      -3.816  -0.660   0.136  0.00  0.00    -0.272 OA
HETATM   15  N   UNK N   1      -3.709   1.537  -0.171  0.00  0.00    -0.369 N 
HETATM   16  H   UNK N   1      -3.162   2.347  -0.287  0.00  0.00     0.159 HD
HETATM   17  H   UNK N   1      -4.691   1.607  -0.171  0.00  0.00     0.159 HD
ENDBRANCH  12  13
ENDBRANCH  10  12
ENDBRANCH   8  10
TORSDOF 3
