REMARK  5 active torsions:
REMARK  status: ('A' for Active; 'I' for Inactive)
REMARK    1  A    between atoms: C_9  and  C_1 
REMARK    2  A    between atoms: O_7  and  C_4 
REMARK    3  A    between atoms: O_8  and  C_5 
REMARK    4  A    between atoms: C_10  and  C_9 
REMARK    5  A    between atoms: O_11  and  C_10 
ROOT
HETATM    1  C   UNK N   1      16.763  -8.802  -0.000  0.00  0.00    -0.053 A 
HETATM    2  C   UNK N   1      18.161  -8.826  -0.000  0.00  0.00     0.010 A 
HETATM    3  C   UNK N   1      18.842 -10.047  -0.000  0.00  0.00     0.040 A 
HETATM    4  C   UNK N   1      18.127 -11.248   0.000  0.00  0.00     0.098 A 
HETATM    5  C   UNK N   1      16.727 -11.231  -0.000  0.00  0.00     0.099 A 
HETATM    6  C   UNK N   1      16.050 -10.010  -0.000  0.00  0.00     0.046 A 
ENDROOT
BRANCH   1   7
HETATM    7  C   UNK N   1      16.064  -7.477  -0.000  0.00  0.00     0.064 C 
BRANCH   7   8
HETATM    8  C   UNK N   1      14.549  -7.603   0.000  0.00  0.00     0.168 C 
BRANCH   8   9
HETATM    9  O   UNK N   1      13.978  -6.334  -0.000  0.00  0.00    -0.401 OA
HETATM   10  H   UNK N   1      14.546  -5.547  -0.000  0.00  0.00     0.209 HD
ENDBRANCH   8   9
ENDBRANCH   7   8
ENDBRANCH   1   7
BRANCH   5  11
HETATM   11  O   UNK N   1      16.028 -12.377  -0.000  0.00  0.00    -0.358 OA
HETATM   12  H   UNK N   1      15.092 -12.356  -0.000  0.00  0.00     0.217 HD
ENDBRANCH   5  11
BRANCH   4  13
HETATM   13  O   UNK N   1      18.790 -12.418   0.000  0.00  0.00    -0.358 OA
HETATM   14  H   UNK N   1      18.314 -13.225   0.000  0.00  0.00     0.217 HD
ENDBRANCH   4  13
TORSDOF 5
