REMARK  6 active torsions:
REMARK  status: ('A' for Active; 'I' for Inactive)
REMARK    1  A    between atoms: C_6  and  N_21 
REMARK    2  A    between atoms: C_15  and  O_20 
REMARK    3  A    between atoms: N_21  and  C_22 
REMARK    4  A    between atoms: C_22  and  C_23 
REMARK    5  A    between atoms: C_23  and  C_24 
REMARK    6  A    between atoms: C_24  and  N_25 
ROOT
HETATM    1  C   UNK N   1      -5.961   2.036   0.082  0.00  0.00     0.052 C 
HETATM    2  C   UNK N   1      -4.607   1.420   0.034  0.00  0.00    -0.019 A 
HETATM    3  C   UNK N   1      -3.454   2.222   0.025  0.00  0.00     0.098 A 
HETATM    4  N   UNK N   1      -2.210   1.650  -0.005  0.00  0.00    -0.351 N 
ATOM      5  HN  UNK N   1      -1.387   2.253  -0.004  1.00  0.00     0.166 HD
HETATM    6  C   UNK N   1      -2.042   0.291  -0.037  0.00  0.00     0.114 A 
HETATM    7  C   UNK N   1      -3.178  -0.528  -0.035  0.00  0.00     0.048 A 
HETATM    8  C   UNK N   1      -4.432   0.037   0.006  0.00  0.00     0.055 A 
HETATM    9  N   UNK N   1      -5.402  -0.902   0.023  0.00  0.00    -0.354 N 
HETATM   10  C   UNK N   1      -4.748  -2.084  -0.007  0.00  0.00     0.044 A 
HETATM   11  C   UNK N   1      -3.376  -1.910  -0.049  0.00  0.00     0.018 A 
HETATM   12  C   UNK N   1      -2.518  -3.030  -0.090  0.00  0.00    -0.012 A 
HETATM   13  C   UNK N   1      -1.126  -2.922  -0.147  0.00  0.00     0.016 A 
HETATM   14  C   UNK N   1      -0.319  -4.059  -0.184  0.00  0.00     0.037 A 
HETATM   15  C   UNK N   1      -0.898  -5.328  -0.163  0.00  0.00     0.066 A 
HETATM   16  C   UNK N   1      -2.289  -5.462  -0.109  0.00  0.00     0.048 A 
HETATM   17  C   UNK N   1      -3.106  -4.326  -0.074  0.00  0.00    -0.022 A 
HETATM   18  C   UNK N   1      -4.505  -4.471  -0.023  0.00  0.00     0.014 A 
HETATM   19  C   UNK N   1      -5.340  -3.343   0.008  0.00  0.00     0.031 A 
HETATM   20  H   UNK N   1      -6.376  -0.757   0.051  0.00  0.00     0.166 HD
ENDROOT
BRANCH   6  21
HETATM   21  N   UNK N   1      -0.755  -0.277  -0.045  0.00  0.00    -0.376 N 
HETATM   22  H   UNK N   1      -0.693  -1.250  -0.181  0.00  0.00     0.161 HD
BRANCH  21  23
HETATM   23  C   UNK N   1       0.472   0.442   0.128  0.00  0.00     0.123 C 
BRANCH  23  24
HETATM   24  C   UNK N   1       1.576  -0.591   0.039  0.00  0.00     0.050 C 
BRANCH  24  25
HETATM   25  C   UNK N   1       2.928  -0.024   0.412  0.00  0.00     0.273 C 
BRANCH  25  26
HETATM   26  N   UNK N   1       3.976  -0.815  -0.219  0.00  0.00     0.080 N 
HETATM   27  C   UNK N   1       5.212  -0.068  -0.088  0.00  0.00     0.309 C 
HETATM   28  C   UNK N   1       4.146  -2.054   0.523  0.00  0.00     0.309 C 
ENDBRANCH  25  26
ENDBRANCH  24  25
ENDBRANCH  23  24
ENDBRANCH  21  23
ENDBRANCH   6  21
BRANCH  15  29
HETATM   29  O   UNK N   1      -0.117  -6.419  -0.195  0.00  0.00    -0.361 OA
HETATM   30  H   UNK N   1      -0.505  -7.272  -0.217  0.00  0.00     0.217 HD
ENDBRANCH  15  29
TORSDOF 6
