REMARK  5 active torsions:
REMARK  status: ('A' for Active; 'I' for Inactive)
REMARK    1  A    between atoms: N_5  and  C_17 
REMARK    2  A    between atoms: C_8  and  C_9 
REMARK    3  A    between atoms: C_8  and  C_11 
REMARK    4  A    between atoms: C_9  and  O_10 
REMARK    5  A    between atoms: C_21  and  C_23 
ROOT
HETATM    1  C   UNK N   1       0.048  -3.873   0.801  0.00  0.00     0.048 A 
HETATM    2  C   UNK N   1       0.586  -5.171   0.795  0.00  0.00     0.032 A 
HETATM    3  C   UNK N   1      -0.250  -6.269   0.508  0.00  0.00     0.026 A 
HETATM    4  C   UNK N   1      -1.594  -6.057   0.104  0.00  0.00     0.059 A 
HETATM    5  C   UNK N   1      -2.085  -4.742   0.012  0.00  0.00     0.070 A 
HETATM    6  C   UNK N   1      -1.271  -3.708   0.392  0.00  0.00     0.048 A 
HETATM    7  C   UNK N   1      -2.420  -7.187  -0.221  0.00  0.00     0.100 C 
HETATM    8  N   UNK N   1      -3.084  -8.105  -0.460  0.00  0.00    -0.191 NA
ENDROOT
BRANCH   5   9
HETATM    9  C   UNK N   1      -3.432  -4.318  -0.538  0.00  0.00     0.419 C 
HETATM   10  F   UNK N   1      -3.224  -3.398  -1.556  0.00  0.00    -0.166 F 
HETATM   11  F   UNK N   1      -4.152  -3.694   0.466  0.00  0.00    -0.166 F 
HETATM   12  F   UNK N   1      -4.176  -5.356  -1.055  0.00  0.00    -0.166 F 
ENDBRANCH   5   9
BRANCH   1  13
HETATM   13  N   UNK N   1       0.831  -2.690   0.698  0.00  0.00    -0.231 N 
HETATM   14  C   UNK N   1       1.882  -2.584  -0.120  0.00  0.00     0.333 C 
HETATM   15  N   UNK N   1       2.007  -1.340  -0.608  0.00  0.00    -0.313 N 
HETATM   16  O   UNK N   1       2.542  -3.533  -0.520  0.00  0.00    -0.246 OA
HETATM   17  C   UNK N   1       2.926  -0.977  -1.660  0.00  0.00     0.156 C 
HETATM   18  C   UNK N   1       0.916  -0.492  -0.128  0.00  0.00     0.167 C 
HETATM   19  C   UNK N   1       0.308  -1.452   0.865  0.00  0.00     0.268 C 
HETATM   20  O   UNK N   1      -0.705  -1.231   1.520  0.00  0.00    -0.269 OA
BRANCH  18  21
HETATM   21  C   UNK N   1      -0.133  -0.372  -1.260  0.00  0.00     0.210 C 
BRANCH  21  22
HETATM   22  O   UNK N   1      -1.350   0.138  -0.788  0.00  0.00    -0.398 OA
HETATM   23  H   UNK N   1      -1.466   1.044  -0.462  0.00  0.00     0.209 HD
ENDBRANCH  21  22
ENDBRANCH  18  21
BRANCH  18  24
HETATM   24  C   UNK N   1       1.447   0.870   0.284  0.00  0.00    -0.018 A 
HETATM   25  C   UNK N   1       0.779   2.023  -0.175  0.00  0.00     0.010 A 
HETATM   26  C   UNK N   1       1.420   3.257  -0.221  0.00  0.00     0.001 A 
HETATM   27  C   UNK N   1       2.760   3.354   0.149  0.00  0.00     0.000 A 
HETATM   28  C   UNK N   1       3.439   2.227   0.616  0.00  0.00     0.001 A 
HETATM   29  C   UNK N   1       2.792   0.991   0.671  0.00  0.00     0.010 A 
ENDBRANCH  18  24
ENDBRANCH   1  13
TORSDOF 5
