REMARK  4 active torsions:
REMARK  status: ('A' for Active; 'I' for Inactive)
REMARK    1  A    between atoms: C_2  and  C_3 
REMARK    2  A    between atoms: C_3  and  N_4 
REMARK    3  A    between atoms: N_4  and  C_5 
REMARK    4  A    between atoms: N_4  and  N_13 
ROOT
HETATM    1  N   UNK N   1      -0.305   0.903  -0.000  0.00  0.00    -0.283 N 
ENDROOT
BRANCH   1   2
HETATM    2  C   UNK N   1       0.859   1.804  -0.002  0.00  0.00     0.149 C 
BRANCH   2   3
HETATM    3  C   UNK N   1       0.874   3.304   0.002  0.00  0.00     0.017 C 
HETATM    4  C   UNK N   1       2.319   3.759   0.000  0.00  0.00     0.007 C 
ENDBRANCH   2   3
ENDBRANCH   1   2
BRANCH   1   5
HETATM    5  C   UNK N   1      -1.729   1.322   0.000  0.00  0.00     0.092 A 
HETATM    6  C   UNK N   1      -2.722   0.320   0.000  0.00  0.00     0.051 A 
HETATM    7  C   UNK N   1      -4.084   0.606   0.000  0.00  0.00     0.090 A 
HETATM    8  N   UNK N   1      -4.504   1.890   0.000  0.00  0.00    -0.372 N 
HETATM    9  C   UNK N   1      -3.614   2.908  -0.000  0.00  0.00     0.132 A 
ATOM     10  HN  UNK N   1      -5.503   2.093   0.000  1.00  0.00     0.164 HD
HETATM   11  C   UNK N   1      -2.233   2.670  -0.000  0.00  0.00     0.159 A 
HETATM   12  F   UNK N   1      -1.484   3.778  -0.001  0.00  0.00    -0.202 F 
ENDBRANCH   1   5
BRANCH   1  13
HETATM   13  N   UNK N   1       0.039  -0.482  -0.000  0.00  0.00    -0.264 N 
HETATM   14  C   UNK N   1      -0.812  -1.548  -0.000  0.00  0.00     0.124 A 
HETATM   15  C   UNK N   1      -0.083  -2.729   0.000  0.00  0.00    -0.032 A 
HETATM   16  C   UNK N   1       1.242  -2.381   0.000  0.00  0.00    -0.000 A 
HETATM   17  C   UNK N   1      -0.643  -4.108   0.000  0.00  0.00     0.050 C 
HETATM   18  C   UNK N   1       1.300  -1.013  -0.000  0.00  0.00     0.067 A 
HETATM   19  C   UNK N   1       2.386  -3.178   0.000  0.00  0.00     0.014 A 
HETATM   20  C   UNK N   1       2.538  -0.358  -0.000  0.00  0.00     0.032 A 
HETATM   21  C   UNK N   1       3.711  -1.129   0.000  0.00  0.00     0.002 A 
HETATM   22  C   UNK N   1       3.635  -2.536   0.000  0.00  0.00     0.001 A 
ENDBRANCH   1  13
TORSDOF 4
