REMARK  2 active torsions:
REMARK  status: ('A' for Active; 'I' for Inactive)
REMARK    1  A    between atoms: C_18  and  O_30 
REMARK    2  A    between atoms: N_29  and  C_24 
ROOT
HETATM    1  C   UNK N   1       6.034  -0.254  -2.328  0.00  0.00     0.020 C 
HETATM    2  C   UNK N   1       2.083   0.397   2.327  0.00  0.00     0.022 C 
HETATM    3  C   UNK N   1       5.671  -2.273  -0.135  0.00  0.00    -0.023 C 
HETATM    4  C   UNK N   1       4.242  -2.101  -0.637  0.00  0.00     0.033 C 
HETATM    5  C   UNK N   1       1.085  -1.395   0.217  0.00  0.00     0.035 C 
HETATM    6  C   UNK N   1      -0.018  -0.359   0.228  0.00  0.00     0.000 C 
HETATM    7  C   UNK N   1       7.941   1.178   0.455  0.00  0.00     0.033 C 
HETATM    8  C   UNK N   1       4.337   1.542   0.594  0.00  0.00     0.007 C 
HETATM    9  C   UNK N   1       6.959   1.289  -0.702  0.00  0.00     0.016 C 
HETATM   10  C   UNK N   1       2.849   1.953   0.540  0.00  0.00     0.016 C 
HETATM   11  C   UNK N   1       7.866  -1.322   0.491  0.00  0.00     0.066 C 
HETATM   12  C   UNK N   1       6.514  -1.216  -0.169  0.00  0.00    -0.072 C 
HETATM   13  C   UNK N   1       8.752  -0.096   0.269  0.00  0.00     0.122 C 
HETATM   14  C   UNK N   1       3.739  -0.842   0.081  0.00  0.00    -0.001 C 
HETATM   15  C   UNK N   1       2.260  -0.452  -0.074  0.00  0.00     0.008 C 
HETATM   16  C   UNK N   1       4.556   0.405  -0.414  0.00  0.00     0.003 C 
HETATM   17  C   UNK N   1       0.478   0.845   0.542  0.00  0.00     0.023 C 
HETATM   18  C   UNK N   1       6.030   0.071  -0.830  0.00  0.00    -0.017 C 
HETATM   19  C   UNK N   1       1.939   0.751   0.840  0.00  0.00     0.003 C 
ENDROOT
BRANCH  17  20
HETATM   20  N   UNK N   1      -0.247   2.087   0.377  0.00  0.00    -0.309 N 
HETATM   21  C   UNK N   1       0.276   3.331   0.526  0.00  0.00     0.189 A 
HETATM   22  N   UNK N   1      -0.639   4.298   0.256  0.00  0.00    -0.350 N 
HETATM   23  C   UNK N   1      -1.754   3.625  -0.064  0.00  0.00     0.060 A 
ATOM     24  HN  UNK N   1      -0.507   5.309   0.290  1.00  0.00     0.166 HD
HETATM   25  C   UNK N   1      -2.988   4.151  -0.431  0.00  0.00     0.032 A 
HETATM   26  C   UNK N   1      -1.526   2.284   0.010  0.00  0.00     0.067 A 
HETATM   27  C   UNK N   1      -4.019   3.241  -0.725  0.00  0.00     0.002 A 
HETATM   28  C   UNK N   1      -3.788   1.847  -0.647  0.00  0.00     0.002 A 
HETATM   29  C   UNK N   1      -2.521   1.352  -0.278  0.00  0.00     0.032 A 
ENDBRANCH  17  20
BRANCH  13  30
HETATM   30  O   UNK N   1       9.804  -0.116   1.182  0.00  0.00    -0.395 OA
HETATM   31  H   UNK N   1      10.158  -0.757   1.817  0.00  0.00     0.210 HD
ENDBRANCH  13  30
TORSDOF 2
