REMARK  13 active torsions:
REMARK  status: ('A' for Active; 'I' for Inactive)
REMARK    1  A    between atoms: C_2  and  C_4 
REMARK    2  A    between atoms: C_4  and  C_5 
REMARK    3  A    between atoms: C_4  and  N_61 
REMARK       I    between atoms: C_5  and  N_7 
REMARK    4  A    between atoms: C_11  and  C_12 
REMARK    5  A    between atoms: C_16  and  C_22 
REMARK    6  A    between atoms: C_29  and  C_30 
REMARK    7  A    between atoms: C_33  and  C_36 
REMARK    8  A    between atoms: C_42  and  C_40 
REMARK       I    between atoms: N_46  and  C_47 
REMARK    9  A    between atoms: C_47  and  C_49 
REMARK   10  A    between atoms: C_49  and  C_50 
REMARK   11  A    between atoms: C_49  and  N_56 
REMARK       I    between atoms: N_56  and  C_57 
REMARK   12  A    between atoms: C_57  and  O_59 
REMARK       I    between atoms: N_61  and  C_62 
REMARK   13  A    between atoms: C_62  and  O_64 
ROOT
HETATM    1  C   UNK N   1      -2.939   1.743  -0.188  0.00  0.00    -0.022 A 
HETATM    2  C   UNK N   1      -3.117   0.785  -1.204  0.00  0.00     0.060 A 
HETATM    3  S   UNK N   1      -1.624   0.022  -1.352  0.00  0.00    -0.099 SA
HETATM    4  C   UNK N   1      -0.750   0.914  -0.259  0.00  0.00     0.034 A 
HETATM    5  C   UNK N   1      -1.607   1.775   0.312  0.00  0.00     0.030 A 
HETATM    6  S   UNK N   1      -0.732   2.733   1.349  0.00  0.00    -0.099 SA
HETATM    7  C   UNK N   1       0.779   2.056   1.138  0.00  0.00     0.064 A 
HETATM    8  C   UNK N   1       0.602   1.045   0.169  0.00  0.00    -0.001 A 
ENDROOT
BRANCH   8   9
HETATM    9  C   UNK N   1       1.658   0.160  -0.287  0.00  0.00    -0.024 C 
HETATM   10  C   UNK N   1       2.873   0.074   0.409  0.00  0.00     0.013 C 
HETATM   11  C   UNK N   1       3.666  -1.065   0.250  0.00  0.00     0.014 C 
HETATM   12  C   UNK N   1       3.228  -2.085  -0.607  0.00  0.00    -0.008 C 
HETATM   13  C   UNK N   1       2.104  -1.902  -1.405  0.00  0.00     0.014 C 
HETATM   14  C   UNK N   1       1.331  -0.786  -1.250  0.00  0.00     0.013 C 
BRANCH  12  15
HETATM   15  C   UNK N   1       3.520  -3.463  -0.265  0.00  0.00     0.059 A 
HETATM   16  C   UNK N   1       4.481  -3.926   0.606  0.00  0.00     0.119 A 
HETATM   17  N   UNK N   1       4.116  -5.167   0.989  0.00  0.00    -0.352 N 
HETATM   18  C   UNK N   1       2.932  -5.396   0.379  0.00  0.00     0.105 A 
ATOM     19  HN  UNK N   1       4.625  -5.799   1.607  1.00  0.00     0.166 HD
HETATM   20  N   UNK N   1       2.555  -4.385  -0.400  0.00  0.00    -0.342 N 
HETATM   21  H   UNK N   1       1.744  -4.326  -0.955  0.00  0.00     0.167 HD
BRANCH  18  22
HETATM   22  C   UNK N   1       2.053  -6.566   0.681  0.00  0.00     0.155 C 
HETATM   23  C   UNK N   1       2.697  -7.815   0.114  0.00  0.00     0.035 C 
HETATM   24  C   UNK N   1       1.627  -8.534  -0.698  0.00  0.00     0.022 C 
HETATM   25  C   UNK N   1       0.431  -7.607  -0.784  0.00  0.00     0.127 C 
HETATM   26  N   UNK N   1       0.726  -6.507   0.091  0.00  0.00    -0.338 N 
HETATM   27  C   UNK N   1      -0.234  -5.570   0.408  0.00  0.00     0.248 C 
HETATM   28  O   UNK N   1       0.035  -4.635   1.150  0.00  0.00    -0.271 OA
BRANCH  27  29
HETATM   29  C   UNK N   1      -1.660  -5.743  -0.109  0.00  0.00     0.212 C 
BRANCH  29  30
HETATM   30  C   UNK N   1      -2.653  -4.615   0.147  0.00  0.00    -0.026 A 
HETATM   31  C   UNK N   1      -3.826  -4.840   0.896  0.00  0.00     0.010 A 
HETATM   32  C   UNK N   1      -4.785  -3.835   1.049  0.00  0.00     0.001 A 
HETATM   33  C   UNK N   1      -4.591  -2.594   0.446  0.00  0.00     0.000 A 
HETATM   34  C   UNK N   1      -3.435  -2.361  -0.301  0.00  0.00     0.001 A 
HETATM   35  C   UNK N   1      -2.469  -3.364  -0.454  0.00  0.00     0.010 A 
ENDBRANCH  29  30
BRANCH  29  36
HETATM   36  N   UNK N   1      -2.164  -6.997   0.413  0.00  0.00    -0.320 N 
HETATM   37  C   UNK N   1      -3.136  -7.713  -0.197  0.00  0.00     0.361 C 
HETATM   38  O   UNK N   1      -3.630  -7.319  -1.247  0.00  0.00    -0.239 OA
HETATM   39  H   UNK N   1      -1.781  -7.344   1.251  0.00  0.00     0.166 HD
BRANCH  37  40
HETATM   40  O   UNK N   1      -3.551  -8.871   0.369  0.00  0.00    -0.309 OA
HETATM   41  C   UNK N   1      -4.528  -9.658  -0.192  0.00  0.00     0.215 C 
ENDBRANCH  37  40
ENDBRANCH  29  36
ENDBRANCH  27  29
ENDBRANCH  18  22
ENDBRANCH  12  15
ENDBRANCH   8   9
BRANCH   1  42
HETATM   42  C   UNK N   1      -3.699   2.956  -0.032  0.00  0.00     0.068 C 
HETATM   43  C   UNK N   1      -3.083   3.886  -0.886  0.00  0.00     0.018 C 
HETATM   44  C   UNK N   1      -2.560   5.014  -0.327  0.00  0.00     0.057 A 
HETATM   45  N   UNK N   1      -1.725   5.874  -0.906  0.00  0.00    -0.343 N 
HETATM   46  C   UNK N   1      -2.749   5.339   0.974  0.00  0.00     0.060 A 
HETATM   47  C   UNK N   1      -1.418   6.727   0.093  0.00  0.00     0.105 A 
HETATM   48  H   UNK N   1      -1.408   5.886  -1.839  0.00  0.00     0.167 HD
HETATM   49  N   UNK N   1      -2.060   6.444   1.258  0.00  0.00    -0.342 N 
ATOM     50  HN  UNK N   1      -2.022   6.956   2.140  1.00  0.00     0.167 HD
HETATM   51  C   UNK N   1      -3.527   4.565   1.824  0.00  0.00     0.029 C 
HETATM   52  C   UNK N   1      -3.965   3.328   1.318  0.00  0.00    -0.011 C 
BRANCH  47  53
HETATM   53  C   UNK N   1      -0.826   8.049  -0.152  0.00  0.00     0.155 C 
HETATM   54  C   UNK N   1       0.484   8.484  -0.727  0.00  0.00     0.035 C 
HETATM   55  C   UNK N   1       0.389  10.018  -0.549  0.00  0.00     0.022 C 
HETATM   56  C   UNK N   1      -1.080  10.371  -0.196  0.00  0.00     0.127 C 
HETATM   57  N   UNK N   1      -1.753   9.115  -0.293  0.00  0.00    -0.339 N 
HETATM   58  C   UNK N   1      -3.063   8.932  -0.704  0.00  0.00     0.243 C 
HETATM   59  O   UNK N   1      -3.397   7.862  -1.186  0.00  0.00    -0.271 OA
BRANCH  58  60
HETATM   60  C   UNK N   1      -4.160   9.958  -0.537  0.00  0.00     0.182 C 
BRANCH  60  61
HETATM   61  C   UNK N   1      -5.297   9.338   0.319  0.00  0.00     0.009 C 
HETATM   62  C   UNK N   1      -6.425  10.326   0.529  0.00  0.00     0.012 C 
HETATM   63  C   UNK N   1      -5.911   8.073  -0.272  0.00  0.00     0.012 C 
ENDBRANCH  60  61
BRANCH  60  64
HETATM   64  N   UNK N   1      -3.659  11.113   0.156  0.00  0.00    -0.323 N 
HETATM   65  C   UNK N   1      -3.870  12.374  -0.280  0.00  0.00     0.360 C 
HETATM   66  O   UNK N   1      -4.584  12.578  -1.252  0.00  0.00    -0.239 OA
HETATM   67  H   UNK N   1      -3.141  10.980   0.982  0.00  0.00     0.165 HD
BRANCH  65  68
HETATM   68  O   UNK N   1      -3.295  13.420   0.356  0.00  0.00    -0.309 OA
HETATM   69  C   UNK N   1      -2.416  13.245   1.402  0.00  0.00     0.215 C 
ENDBRANCH  65  68
ENDBRANCH  60  64
ENDBRANCH  58  60
ENDBRANCH  47  53
ENDBRANCH   1  42
TORSDOF 13
