REMARK  6 active torsions:
REMARK  status: ('A' for Active; 'I' for Inactive)
REMARK    1  A    between atoms: N_9  and  C_14 
REMARK    2  A    between atoms: C_14  and  C_15 
REMARK    3  A    between atoms: C_15  and  C_16 
REMARK    4  A    between atoms: C_16  and  C_17 
REMARK    5  A    between atoms: C_17  and  N_18 
REMARK    6  A    between atoms: C_21  and  C_24 
ROOT
HETATM    1  C   UNK N   1       3.047   0.997   0.175  0.00  0.00     0.022 C 
ENDROOT
BRANCH   1   2
HETATM    2  C   UNK N   1       3.218  -0.223  -0.721  0.00  0.00     0.133 C 
BRANCH   2   3
HETATM    3  N   UNK N   1       2.195  -1.216  -0.429  0.00  0.00    -0.302 N 
HETATM    4  C   UNK N   1       0.895  -0.899  -0.751  0.00  0.00     0.261 C 
HETATM    5  C   UNK N   1      -0.327  -1.685  -0.442  0.00  0.00     0.066 A 
HETATM    6  O   UNK N   1       0.696   0.169  -1.328  0.00  0.00    -0.267 OA
HETATM    7  C   UNK N   1      -0.390  -3.029  -0.006  0.00  0.00     0.090 A 
HETATM    8  C   UNK N   1      -1.546  -0.995  -0.622  0.00  0.00     0.020 A 
HETATM    9  C   UNK N   1      -1.643  -3.620   0.214  0.00  0.00     0.038 A 
HETATM   10  O   UNK N   1       0.672  -3.818   0.209  0.00  0.00    -0.319 OA
HETATM   11  C   UNK N   1      -2.826  -2.909   0.040  0.00  0.00     0.003 A 
HETATM   12  C   UNK N   1      -2.777  -1.588  -0.376  0.00  0.00     0.001 A 
HETATM   13  C   UNK N   1       1.967  -3.535   0.428  0.00  0.00     0.185 C 
HETATM   14  C   UNK N   1       2.663  -2.425   0.199  0.00  0.00     0.131 C 
HETATM   15 Cl   UNK N   1       4.362  -2.538   0.680  0.00  0.00    -0.062 Cl
ENDBRANCH   2   3
ENDBRANCH   1   2
BRANCH   1  16
HETATM   16  C   UNK N   1       2.437   2.158  -0.602  0.00  0.00     0.032 C 
BRANCH  16  17
HETATM   17  C   UNK N   1       1.558   2.995   0.327  0.00  0.00     0.273 C 
BRANCH  17  18
HETATM   18  N   UNK N   1       2.292   3.961   1.153  0.00  0.00     0.092 N 
HETATM   19  C   UNK N   1       2.062   5.336   0.693  0.00  0.00     0.277 C 
HETATM   20  C   UNK N   1       2.986   5.681  -0.461  0.00  0.00     0.070 C 
HETATM   21  C   UNK N   1       4.407   5.509  -0.013  0.00  0.00    -0.032 C 
HETATM   22  C   UNK N   1       4.725   4.516   0.827  0.00  0.00     0.012 C 
HETATM   23  C   UNK N   1       3.699   3.590   1.421  0.00  0.00     0.300 C 
BRANCH  21  24
HETATM   24  C   UNK N   1       5.422   6.543  -0.281  0.00  0.00     0.038 A 
HETATM   25  C   UNK N   1       5.033   7.810  -0.732  0.00  0.00     0.030 A 
HETATM   26  C   UNK N   1       5.982   8.828  -0.815  0.00  0.00     0.004 A 
HETATM   27  C   UNK N   1       7.308   8.572  -0.463  0.00  0.00     0.017 A 
HETATM   28  C   UNK N   1       7.667   7.291  -0.042  0.00  0.00     0.088 A 
HETATM   29  N   UNK N   1       6.725   6.318   0.056  0.00  0.00    -0.365 N 
ATOM     30  HN  UNK N   1       6.998   5.394   0.390  1.00  0.00     0.165 HD
ENDBRANCH  21  24
ENDBRANCH  17  18
ENDBRANCH  16  17
ENDBRANCH   1  16
TORSDOF 6
