REMARK  8 active torsions:
REMARK  status: ('A' for Active; 'I' for Inactive)
REMARK    1  A    between atoms: C_26  and  C_14 
REMARK    2  A    between atoms: N_39  and  C_14 
REMARK    3  A    between atoms: C_15  and  C_17 
REMARK    4  A    between atoms: N_40  and  C_16 
REMARK    5  A    between atoms: C_19  and  N_34 
REMARK    6  A    between atoms: N_38  and  C_24 
REMARK    7  A    between atoms: C_24  and  O_42 
REMARK    8  A    between atoms: O_43  and  C_25 
ROOT
HETATM    1  C   UNK N   1       1.117   3.733   0.831  0.00  0.00     0.215 C 
HETATM    2  N   UNK N   1      -0.105   3.873   0.432  0.00  0.00    -0.343 N 
ATOM      3  HN  UNK N   1      -0.680   3.030   0.443  1.00  0.00     0.164 HD
ENDROOT
BRANCH   2   4
HETATM    4  C   UNK N   1      -0.757   5.083  -0.029  0.00  0.00     0.177 C 
HETATM    5  C   UNK N   1      -1.618   5.559   1.135  0.00  0.00     0.035 C 
HETATM    6  C   UNK N   1      -2.693   6.571   0.771  0.00  0.00     0.013 C 
HETATM    7  C   UNK N   1      -2.189   7.724  -0.089  0.00  0.00     0.040 C 
HETATM    8  C   UNK N   1      -0.779   8.085   0.405  0.00  0.00     0.135 C 
HETATM    9  N   UNK N   1       0.241   7.431  -0.386  0.00  0.00    -0.341 N 
HETATM   10  C   UNK N   1       0.223   6.085  -0.673  0.00  0.00     0.242 C 
HETATM   11  O   UNK N   1       1.011   5.645  -1.500  0.00  0.00    -0.271 OA
BRANCH   7  12
HETATM   12  C   UNK N   1      -3.209   8.845  -0.039  0.00  0.00    -0.011 A 
HETATM   13  C   UNK N   1      -4.540   8.530  -0.369  0.00  0.00     0.011 A 
HETATM   14  C   UNK N   1      -5.538   9.503  -0.331  0.00  0.00     0.004 A 
HETATM   15  C   UNK N   1      -5.218  10.813   0.021  0.00  0.00     0.045 A 
HETATM   16  C   UNK N   1      -3.901  11.153   0.333  0.00  0.00     0.155 A 
HETATM   17  C   UNK N   1      -2.894  10.181   0.309  0.00  0.00     0.161 A 
HETATM   18  F   UNK N   1      -3.599  12.433   0.657  0.00  0.00    -0.203 F 
HETATM   19  F   UNK N   1      -1.626  10.559   0.609  0.00  0.00    -0.202 F 
ENDBRANCH   7  12
BRANCH   9  20
HETATM   20  C   UNK N   1       1.268   8.295  -0.933  0.00  0.00     0.243 C 
BRANCH  20  21
HETATM   21  C   UNK N   1       2.617   8.076  -0.238  0.00  0.00     0.403 C 
HETATM   22  F   UNK N   1       2.436   7.820   1.111  0.00  0.00    -0.169 F 
HETATM   23  F   UNK N   1       3.381   9.219  -0.370  0.00  0.00    -0.169 F 
HETATM   24  F   UNK N   1       3.293   7.019  -0.817  0.00  0.00    -0.169 F 
ENDBRANCH  20  21
ENDBRANCH   9  20
ENDBRANCH   2   4
BRANCH   1  25
HETATM   25  N   UNK N   1       1.611   2.429   1.090  0.00  0.00    -0.348 N 
HETATM   26  C   UNK N   1       2.880   2.105   0.499  0.00  0.00     0.128 C 
HETATM   27  C   UNK N   1       2.594   1.649  -0.945  0.00  0.00     0.045 C 
HETATM   28  C   UNK N   1       1.592   0.471  -0.954  0.00  0.00     0.097 C 
HETATM   29  C   UNK N   1       0.323   0.832  -0.164  0.00  0.00     0.045 C 
HETATM   30  C   UNK N   1       0.676   1.336   1.229  0.00  0.00     0.128 C 
BRANCH  28  31
HETATM   31  N   UNK N   1       2.186  -0.790  -0.476  0.00  0.00    -0.305 N 
HETATM   32  C   UNK N   1       3.479  -1.092  -0.244  0.00  0.00     0.082 A 
HETATM   33  C   UNK N   1       4.627  -0.317  -0.392  0.00  0.00     0.035 A 
HETATM   34  C   UNK N   1       3.559  -2.383   0.171  0.00  0.00     0.135 A 
HETATM   35  C   UNK N   1       5.858  -0.918  -0.086  0.00  0.00     0.019 A 
HETATM   36  C   UNK N   1       5.892  -2.262   0.351  0.00  0.00     0.090 A 
HETATM   37  N   UNK N   1       4.735  -2.984   0.472  0.00  0.00    -0.350 N 
ATOM     38  HN  UNK N   1       4.758  -3.955   0.783  1.00  0.00     0.166 HD
HETATM   39  N   UNK N   1       2.337  -2.942   0.212  0.00  0.00    -0.306 N 
HETATM   40  C   UNK N   1       1.517  -1.942  -0.198  0.00  0.00     0.226 A 
ATOM     41  HN  UNK N   1       2.087  -3.892   0.486  1.00  0.00     0.171 HD
BRANCH  40  42
HETATM   42  O   UNK N   1       0.185  -2.084  -0.308  0.00  0.00    -0.332 OA
HETATM   43  H   UNK N   1      -0.365  -1.329  -0.385  0.00  0.00     0.221 HD
ENDBRANCH  40  42
ENDBRANCH  28  31
ENDBRANCH   1  25
BRANCH   1  44
HETATM   44  O   UNK N   1       1.960   4.785   0.909  0.00  0.00    -0.333 OA
HETATM   45  H   UNK N   1       2.884   4.644   0.962  0.00  0.00     0.220 HD
ENDBRANCH   1  44
TORSDOF 8
