REMARK  9 active torsions:
REMARK  status: ('A' for Active; 'I' for Inactive)
REMARK    1  A    between atoms: C_2  and  C_5 
REMARK    2  A    between atoms: C_6  and  C_5 
REMARK    3  A    between atoms: C_7  and  C_35 
REMARK    4  A    between atoms: C_8  and  C_25 
REMARK    5  A    between atoms: C_9  and  C_11 
REMARK       I    between atoms: C_11  and  N_13 
REMARK    6  A    between atoms: N_13  and  C_14 
REMARK    7  A    between atoms: C_17  and  C_22 
REMARK    8  A    between atoms: C_19  and  O_20 
REMARK    9  A    between atoms: C_22  and  O_24 
ROOT
HETATM    1  C   UNK N   1      -0.078  -1.469  -0.772  0.00  0.00     0.106 C 
HETATM    2  C   UNK N   1       0.512  -0.525   0.326  0.00  0.00     0.109 C 
HETATM    3  C   UNK N   1       1.797  -1.334   0.740  0.00  0.00     0.083 C 
HETATM    4  C   UNK N   1       1.549  -2.740   0.262  0.00  0.00     0.181 C 
HETATM    5  N   UNK N   1       0.742  -2.658  -0.940  0.00  0.00    -0.402 N 
HETATM    6  C   UNK N   1      -0.406  -0.450   1.478  0.00  0.00     0.077 C 
HETATM    7  N   UNK N   1      -1.114  -0.334   2.387  0.00  0.00    -0.196 NA
HETATM    8  H   UNK N   1       0.748  -3.298  -1.734  0.00  0.00     0.154 HD
ENDROOT
BRANCH   2   9
HETATM    9  C   UNK N   1       0.905   0.892  -0.032  0.00  0.00     0.006 A 
HETATM   10  C   UNK N   1       0.677   1.402  -1.319  0.00  0.00     0.014 A 
HETATM   11  C   UNK N   1       1.194   2.652  -1.678  0.00  0.00     0.024 A 
HETATM   12  C   UNK N   1       1.943   3.394  -0.758  0.00  0.00     0.036 A 
HETATM   13  C   UNK N   1       2.146   2.910   0.532  0.00  0.00     0.066 A 
HETATM   14 Cl   UNK N   1       2.683   4.904  -1.235  0.00  0.00    -0.084 Cl
HETATM   15  C   UNK N   1       1.623   1.675   0.906  0.00  0.00     0.126 A 
HETATM   16  F   UNK N   1       1.897   1.196   2.147  0.00  0.00    -0.205 F 
ENDBRANCH   2   9
BRANCH   1  17
HETATM   17  C   UNK N   1      -1.592  -1.770  -1.004  0.00  0.00     0.035 C 
BRANCH  17  18
HETATM   18  C   UNK N   1      -2.551  -2.380   0.061  0.00  0.00    -0.050 C 
HETATM   19  C   UNK N   1      -3.405  -3.453  -0.583  0.00  0.00     0.014 C 
HETATM   20  C   UNK N   1      -3.472  -1.285   0.545  0.00  0.00     0.014 C 
HETATM   21  C   UNK N   1      -1.923  -3.034   1.263  0.00  0.00     0.014 C 
ENDBRANCH  17  18
ENDBRANCH   1  17
BRANCH   3  22
HETATM   22  C   UNK N   1       3.201  -1.028   0.197  0.00  0.00    -0.009 A 
HETATM   23  C   UNK N   1       3.457  -0.029  -0.757  0.00  0.00     0.011 A 
HETATM   24  C   UNK N   1       4.748   0.200  -1.232  0.00  0.00     0.002 A 
HETATM   25  C   UNK N   1       5.805  -0.593  -0.789  0.00  0.00     0.027 A 
HETATM   26  C   UNK N   1       5.576  -1.603   0.144  0.00  0.00     0.073 A 
HETATM   27  C   UNK N   1       4.287  -1.813   0.649  0.00  0.00     0.144 A 
HETATM   28 Cl   UNK N   1       6.906  -2.624   0.656  0.00  0.00    -0.081 Cl
HETATM   29  F   UNK N   1       4.084  -2.797   1.563  0.00  0.00    -0.204 F 
ENDBRANCH   3  22
BRANCH   4  30
HETATM   30  C   UNK N   1       0.918  -3.659   1.254  0.00  0.00     0.245 C 
HETATM   31  O   UNK N   1       0.551  -3.238   2.338  0.00  0.00    -0.271 OA
HETATM   32  N   UNK N   1       0.784  -4.976   0.972  0.00  0.00    -0.323 N 
HETATM   33  H   UNK N   1      -0.016  -5.451   1.294  0.00  0.00     0.169 HD
BRANCH  32  34
HETATM   34  C   UNK N   1       1.756  -5.696   0.229  0.00  0.00     0.068 A 
HETATM   35  C   UNK N   1       3.064  -5.193   0.193  0.00  0.00     0.033 A 
HETATM   36  C   UNK N   1       4.126  -5.978  -0.202  0.00  0.00     0.021 A 
HETATM   37  C   UNK N   1       3.912  -7.303  -0.557  0.00  0.00     0.040 A 
HETATM   38  C   UNK N   1       2.602  -7.810  -0.603  0.00  0.00     0.057 A 
HETATM   39  C   UNK N   1       1.508  -7.017  -0.222  0.00  0.00     0.096 A 
BRANCH  37  40
HETATM   40  C   UNK N   1       5.078  -8.167  -0.785  0.00  0.00     0.176 C 
HETATM   41  O   UNK N   1       4.928  -9.344  -1.069  0.00  0.00    -0.646 OA
BRANCH  40  42
HETATM   42  O   UNK N   1       6.322  -7.678  -0.604  0.00  0.00    -0.773 OA
HETATM   43  H   UNK N   1       7.048  -8.257  -0.479  0.00  0.00     0.167 HD
ENDBRANCH  40  42
ENDBRANCH  37  40
BRANCH  39  44
HETATM   44  O   UNK N   1       0.270  -7.577  -0.253  0.00  0.00    -0.354 OA
HETATM   45  C   UNK N   1      -0.911  -6.873  -0.179  0.00  0.00     0.210 C 
ENDBRANCH  39  44
ENDBRANCH  32  34
ENDBRANCH   4  30
TORSDOF 9
