REMARK  11 active torsions:
REMARK  status: ('A' for Active; 'I' for Inactive)
REMARK    1  A    between atoms: N_33  and  C_11 
REMARK    2  A    between atoms: O_41  and  C_11 
REMARK    3  A    between atoms: N_27  and  C_12 
REMARK    4  A    between atoms: O_38  and  C_15 
REMARK    5  A    between atoms: O_39  and  C_16 
REMARK    6  A    between atoms: N_28  and  C_17 
REMARK    7  A    between atoms: O_40  and  C_18 
REMARK    8  A    between atoms: N_28  and  C_19 
REMARK       I    between atoms: N_27  and  C_22 
REMARK    9  A    between atoms: P_43  and  O_35 
REMARK   10  A    between atoms: P_43  and  O_36 
REMARK   11  A    between atoms: P_43  and  O_41 
ROOT
HETATM    1  N   UNK N   1      -2.154   0.118   0.083  0.00  0.00    -0.326 N 
ATOM      2  HN  UNK N   1      -2.950   0.731  -0.089  1.00  0.00     0.169 HD
ENDROOT
BRANCH   1   3
HETATM    3  C   UNK N   1      -0.949   0.570  -0.045  0.00  0.00     0.108 A 
HETATM    4  C   UNK N   1      -0.697   1.933  -0.242  0.00  0.00     0.051 A 
HETATM    5  C   UNK N   1       0.639   2.373  -0.301  0.00  0.00     0.044 A 
HETATM    6  C   UNK N   1       1.689   1.448  -0.185  0.00  0.00     0.115 A 
HETATM    7  C   UNK N   1       1.386   0.098  -0.036  0.00  0.00     0.147 A 
HETATM    8  O   UNK N   1       2.982   1.852  -0.208  0.00  0.00    -0.327 OA
HETATM    9  N   UNK N   1       0.098  -0.291   0.029  0.00  0.00    -0.326 N 
HETATM   10  N   UNK N   1       2.416  -0.865   0.066  0.00  0.00    -0.276 N 
HETATM   11  H   UNK N   1      -0.094  -1.251   0.136  0.00  0.00     0.169 HD
HETATM   12  C   UNK N   1       3.718  -0.472   0.045  0.00  0.00     0.262 A 
HETATM   13  C   UNK N   1       4.082   1.003  -0.085  0.00  0.00     0.141 A 
HETATM   14  O   UNK N   1       4.610  -1.305   0.150  0.00  0.00    -0.269 OA
HETATM   15  C   UNK N   1       4.867   1.416   1.147  0.00  0.00     0.057 C 
HETATM   16  C   UNK N   1       4.963   1.191  -1.305  0.00  0.00     0.057 C 
BRANCH  10  17
HETATM   17  C   UNK N   1       2.056  -2.260   0.246  0.00  0.00     0.316 C 
BRANCH  17  18
HETATM   18  O   UNK N   1       2.413  -3.019  -0.870  0.00  0.00    -0.277 OA
BRANCH  18  19
HETATM   19  P   UNK N   1       2.231  -4.681  -0.373  0.00  0.00     0.392 P 
HETATM   20  O   UNK N   1       3.652  -5.301  -0.322  0.00  0.00    -0.632 OA
BRANCH  19  21
HETATM   21  O   UNK N   1       1.551  -4.854   1.219  0.00  0.00    -0.307 OA
HETATM   22  H   UNK N   1       1.278  -4.574   2.106  0.00  0.00     0.222 HD
ENDBRANCH  19  21
BRANCH  19  23
HETATM   23  O   UNK N   1       1.320  -5.601  -1.529  0.00  0.00    -0.307 OA
HETATM   24  H   UNK N   1       0.620  -5.418  -2.175  0.00  0.00     0.222 HD
ENDBRANCH  19  23
ENDBRANCH  18  19
ENDBRANCH  17  18
ENDBRANCH  10  17
ENDBRANCH   1   3
BRANCH   1  25
HETATM   25  C   UNK N   1      -2.368  -1.243   0.466  0.00  0.00     0.163 A 
HETATM   26  C   UNK N   1      -1.687  -1.773   1.585  0.00  0.00     0.176 A 
HETATM   27  C   UNK N   1      -1.821  -3.112   1.881  0.00  0.00     0.152 A 
HETATM   28  F   UNK N   1      -0.893  -1.001   2.369  0.00  0.00    -0.201 F 
HETATM   29  N   UNK N   1      -2.599  -3.889   1.102  0.00  0.00    -0.199 N 
HETATM   30  C   UNK N   1      -3.276  -3.384   0.032  0.00  0.00     0.684 A 
ATOM     31  HN  UNK N   1      -2.684  -4.882   1.319  1.00  0.00     0.183 HD
HETATM   32  N   UNK N   1      -4.091  -4.253  -0.740  0.00  0.00    -0.191 N 
HETATM   33  N   UNK N   1      -3.171  -2.058  -0.278  0.00  0.00    -0.173 N 
HETATM   34  H   UNK N   1      -4.788  -3.883  -1.329  0.00  0.00     0.184 HD
ATOM     35  HN  UNK N   1      -3.693  -1.677  -1.067  1.00  0.00     0.186 HD
BRANCH  32  36
HETATM   36  C   UNK N   1      -3.898  -5.660  -0.660  0.00  0.00     0.054 A 
HETATM   37  C   UNK N   1      -2.609  -6.182  -0.532  0.00  0.00     0.069 A 
HETATM   38  C   UNK N   1      -2.381  -7.541  -0.348  0.00  0.00     0.106 A 
HETATM   39  C   UNK N   1      -3.489  -8.430  -0.279  0.00  0.00     0.135 A 
HETATM   40  C   UNK N   1      -4.809  -7.902  -0.414  0.00  0.00     0.106 A 
HETATM   41  C   UNK N   1      -4.990  -6.519  -0.611  0.00  0.00     0.069 A 
BRANCH  38  42
HETATM   42  O   UNK N   1      -1.084  -7.933  -0.224  0.00  0.00    -0.353 OA
HETATM   43  C   UNK N   1      -0.645  -9.210   0.037  0.00  0.00     0.210 C 
ENDBRANCH  38  42
BRANCH  39  44
HETATM   44  O   UNK N   1      -3.251  -9.756  -0.079  0.00  0.00    -0.351 OA
HETATM   45  C   UNK N   1      -4.199 -10.747   0.027  0.00  0.00     0.210 C 
ENDBRANCH  39  44
BRANCH  40  46
HETATM   46  O   UNK N   1      -5.887  -8.721  -0.332  0.00  0.00    -0.353 OA
HETATM   47  C   UNK N   1      -7.189  -8.275  -0.376  0.00  0.00     0.210 C 
ENDBRANCH  40  46
ENDBRANCH  32  36
ENDBRANCH   1  25
TORSDOF 11
