REMARK  6 active torsions:
REMARK  status: ('A' for Active; 'I' for Inactive)
REMARK    1  A    between atoms: C_2  and  N_3 
REMARK    2  A    between atoms: C_4  and  C_10 
REMARK    3  A    between atoms: C_10  and  O_11 
REMARK    4  A    between atoms: O_11  and  C_12 
REMARK    5  A    between atoms: C_13  and  C_31 
REMARK    6  A    between atoms: C_20  and  C_24 
ROOT
HETATM    1  C   UNK N   1       3.435   1.631   0.057  0.00  0.00     0.165 A 
HETATM    2  C   UNK N   1       3.300   0.189  -0.006  0.00  0.00     0.005 A 
HETATM    3  C   UNK N   1       1.987  -0.348  -0.053  0.00  0.00     0.064 A 
HETATM    4  C   UNK N   1       0.917   0.533  -0.022  0.00  0.00     0.144 A 
HETATM    5  N   UNK N   1      -0.396   0.248  -0.063  0.00  0.00    -0.282 N 
ATOM      6  HN  UNK N   1      -0.817  -0.680  -0.115  1.00  0.00     0.188 HD
HETATM    7  N   UNK N   1      -1.040   1.416  -0.023  0.00  0.00    -0.282 N 
ATOM      8  HN  UNK N   1      -2.052   1.547  -0.042  1.00  0.00     0.188 HD
HETATM    9  C   UNK N   1      -0.106   2.398   0.048  0.00  0.00     0.157 A 
HETATM   10  N   UNK N   1       1.117   1.842   0.042  0.00  0.00    -0.218 N 
HETATM   11  N   UNK N   1       2.314   2.394   0.066  0.00  0.00    -0.269 N 
ATOM     12  HN  UNK N   1       2.399   3.410   0.091  1.00  0.00     0.190 HD
ENDROOT
BRANCH   1  13
HETATM   13  O   UNK N   1       4.606   2.305   0.059  0.00  0.00    -0.327 OA
BRANCH  13  14
HETATM   14  C   UNK N   1       5.748   1.975   0.729  0.00  0.00     0.255 C 
BRANCH  14  15
HETATM   15  C   UNK N   1       6.834   2.870   0.251  0.00  0.00     0.123 A 
HETATM   16  N   UNK N   1       7.968   2.449  -0.320  0.00  0.00    -0.278 N 
HETATM   17  N   UNK N   1       8.676   3.510  -0.652  0.00  0.00    -0.293 N 
HETATM   18  C   UNK N   1       7.960   4.592  -0.270  0.00  0.00     0.199 A 
ATOM     19  HN  UNK N   1       9.588   3.515  -1.108  1.00  0.00     0.188 HD
HETATM   20  N   UNK N   1       6.793   4.214   0.303  0.00  0.00    -0.338 N 
ATOM     21  HN  UNK N   1       6.056   4.808   0.683  1.00  0.00     0.168 HD
BRANCH  16  22
HETATM   22  C   UNK N   1       8.380   1.075  -0.572  0.00  0.00     0.146 C 
HETATM   23  C   UNK N   1       8.529   0.319   0.738  0.00  0.00     0.028 C 
ENDBRANCH  16  22
ENDBRANCH  14  15
ENDBRANCH  13  14
ENDBRANCH   1  13
BRANCH   2  24
HETATM   24  C   UNK N   1       4.488  -0.774  -0.081  0.00  0.00    -0.020 C 
HETATM   25  C   UNK N   1       5.398  -0.398  -1.238  0.00  0.00     0.019 C 
HETATM   26  C   UNK N   1       4.060  -2.217  -0.320  0.00  0.00     0.019 C 
HETATM   27  C   UNK N   1       5.268  -0.787   1.220  0.00  0.00     0.019 C 
ENDBRANCH   2  24
BRANCH   9  28
HETATM   28  C   UNK N   1      -0.449   3.856   0.105  0.00  0.00     0.050 A 
HETATM   29  C   UNK N   1      -1.799   4.198  -0.071  0.00  0.00     0.018 A 
HETATM   30  C   UNK N   1      -2.218   5.529  -0.045  0.00  0.00     0.001 A 
HETATM   31  C   UNK N   1      -1.294   6.549   0.164  0.00  0.00     0.003 A 
HETATM   32  C   UNK N   1       0.049   6.238   0.355  0.00  0.00     0.043 A 
HETATM   33  C   UNK N   1       0.484   4.911   0.329  0.00  0.00     0.130 A 
HETATM   34  F   UNK N   1       1.798   4.702   0.550  0.00  0.00    -0.205 F 
ENDBRANCH   9  28
TORSDOF 6
