REMARK  9 active torsions:
REMARK  status: ('A' for Active; 'I' for Inactive)
REMARK       I    between atoms: C_1  and  N_17 
REMARK    1  A    between atoms: C_8  and  C_1 
REMARK    2  A    between atoms: N_21  and  C_7 
REMARK    3  A    between atoms: C_12  and  C_9 
REMARK    4  A    between atoms: O_16  and  C_9 
REMARK    5  A    between atoms: C_15  and  C_10 
REMARK    6  A    between atoms: O_18  and  C_10 
REMARK    7  A    between atoms: C_14  and  C_12 
REMARK    8  A    between atoms: C_12  and  N_17 
REMARK    9  A    between atoms: C_15  and  C_14 
REMARK       I    between atoms: N_33  and  C_30 
ROOT
HETATM    1  C   UNK N   1       4.196   1.344  -0.253  0.00  0.00     0.019 A 
HETATM    2  C   UNK N   1       2.885   3.366  -0.053  0.00  0.00     0.019 A 
HETATM    3  C   UNK N   1       3.073   0.629  -0.564  0.00  0.00     0.030 A 
HETATM    4  C   UNK N   1       1.720   2.623  -0.340  0.00  0.00     0.030 A 
HETATM    5  C   UNK N   1       1.821   1.241  -0.604  0.00  0.00     0.031 A 
HETATM    6  C   UNK N   1       4.128   2.709   0.006  0.00  0.00     0.032 A 
ENDROOT
BRANCH   5   7
HETATM    7  N   UNK N   1       0.688   0.418  -0.843  0.00  0.00    -0.362 N 
HETATM    8  C   UNK N   1       0.913  -0.997  -1.020  0.00  0.00     0.151 C 
HETATM    9  C   UNK N   1       0.214  -1.552   0.185  0.00  0.00     0.122 A 
HETATM   10  C   UNK N   1      -0.038  -3.052   0.053  0.00  0.00     0.148 A 
HETATM   11  N   UNK N   1      -0.922  -0.663   0.280  0.00  0.00    -0.349 N 
HETATM   12  N   UNK N   1      -1.424  -3.430  -0.041  0.00  0.00    -0.372 N 
HETATM   13  C   UNK N   1      -2.495  -2.519   0.056  0.00  0.00     0.149 A 
HETATM   14  H   UNK N   1      -1.637  -4.381  -0.181  0.00  0.00     0.161 HD
HETATM   15  C   UNK N   1      -2.262  -1.148   0.220  0.00  0.00     0.146 A 
HETATM   16  N   UNK N   1      -3.764  -2.988  -0.042  0.00  0.00    -0.175 N 
HETATM   17  C   UNK N   1      -3.379  -0.293   0.293  0.00  0.00     0.290 A 
HETATM   18  N   UNK N   1      -4.641  -0.820   0.194  0.00  0.00    -0.154 N 
HETATM   19  O   UNK N   1      -3.245   0.906   0.453  0.00  0.00    -0.265 OA
HETATM   20  C   UNK N   1      -4.828  -2.152   0.023  0.00  0.00     0.680 A 
HETATM   21  H   UNK N   1      -5.422  -0.223   0.247  0.00  0.00     0.187 HD
HETATM   22  N   UNK N   1      -6.132  -2.671  -0.094  0.00  0.00    -0.234 N 
HETATM   23  H   UNK N   1      -6.902  -2.064  -0.176  0.00  0.00     0.174 HD
HETATM   24  H   UNK N   1      -6.274  -3.646  -0.094  0.00  0.00     0.174 HD
ATOM     25  HN  UNK N   1      -3.920  -3.988  -0.167  1.00  0.00     0.186 HD
HETATM   26  C   UNK N   1      -0.564   0.664  -0.174  0.00  0.00     0.250 C 
ENDBRANCH   5   7
BRANCH   6  27
HETATM   27  C   UNK N   1       5.403   3.372   0.303  0.00  0.00     0.252 C 
HETATM   28  N   UNK N   1       6.492   2.566   0.397  0.00  0.00    -0.343 N 
HETATM   29  H   UNK N   1       6.288   1.605   0.341  0.00  0.00     0.163 HD
HETATM   30  O   UNK N   1       5.483   4.585   0.408  0.00  0.00    -0.268 OA
BRANCH  28  31
HETATM   31  C   UNK N   1       7.894   2.861   0.563  0.00  0.00     0.183 C 
BRANCH  31  32
HETATM   32  C   UNK N   1       8.650   1.680  -0.005  0.00  0.00     0.163 C 
HETATM   33  O   UNK N   1       8.048   0.725  -0.480  0.00  0.00    -0.648 OA
BRANCH  32  34
HETATM   34  O   UNK N   1       9.994   1.672   0.002  0.00  0.00    -0.775 OA
HETATM   35  H   UNK N   1      10.457   0.857   0.007  0.00  0.00     0.167 HD
ENDBRANCH  32  34
ENDBRANCH  31  32
BRANCH  31  36
HETATM   36  C   UNK N   1       8.296   4.113  -0.194  0.00  0.00     0.046 C 
BRANCH  36  37
HETATM   37  C   UNK N   1       8.303   5.297   0.755  0.00  0.00     0.112 C 
BRANCH  37  38
HETATM   38  C   UNK N   1       7.913   6.535   0.023  0.00  0.00     0.139 C 
HETATM   39  O   UNK N   1       6.942   7.176   0.391  0.00  0.00    -0.650 OA
BRANCH  38  40
HETATM   40  O   UNK N   1       8.625   6.946  -1.042  0.00  0.00    -0.776 OA
HETATM   41  H   UNK N   1       9.120   6.660  -1.784  0.00  0.00     0.167 HD
ENDBRANCH  38  40
ENDBRANCH  37  38
ENDBRANCH  36  37
ENDBRANCH  31  36
ENDBRANCH  28  31
ENDBRANCH   6  27
TORSDOF 9
