REMARK  7 active torsions:
REMARK  status: ('A' for Active; 'I' for Inactive)
REMARK    1  A    between atoms: C_4  and  C_7 
REMARK    2  A    between atoms: C_10  and  S_13 
REMARK    3  A    between atoms: S_13  and  C_14 
REMARK    4  A    between atoms: C_15  and  C_26 
REMARK    5  A    between atoms: C_20  and  C_23 
REMARK    6  A    between atoms: C_23  and  O_25 
REMARK    7  A    between atoms: C_26  and  O_28 
ROOT
HETATM    1  C   UNK N   1       1.519   0.718   0.314  0.00  0.00     0.025 C 
HETATM    2  C   UNK N   1       0.643  -0.277   0.270  0.00  0.00     0.125 C 
HETATM    3  N   UNK N   1      -0.614   0.300   0.370  0.00  0.00    -0.304 N 
HETATM    4  C   UNK N   1      -0.614   1.616   0.859  0.00  0.00     0.117 A 
HETATM    5  C   UNK N   1       0.761   2.055   0.307  0.00  0.00     0.048 C 
HETATM    6  C   UNK N   1       0.707   2.561  -1.132  0.00  0.00     0.018 C 
HETATM    7  C   UNK N   1      -2.158   1.696   0.346  0.00  0.00     0.130 A 
HETATM    8  C   UNK N   1      -1.835   0.280  -0.031  0.00  0.00     0.233 A 
HETATM    9  O   UNK N   1      -2.391  -0.568  -0.718  0.00  0.00    -0.272 OA
ENDROOT
BRANCH   1  10
HETATM   10  S   UNK N   1       3.308   0.533   0.305  0.00  0.00    -0.067 SA
BRANCH  10  11
HETATM   11  C   UNK N   1       3.813   2.257   0.216  0.00  0.00     0.117 A 
HETATM   12  S   UNK N   1       3.147   3.589   0.946  0.00  0.00    -0.074 SA
HETATM   13  C   UNK N   1       4.298   4.697   0.535  0.00  0.00     0.082 A 
HETATM   14  C   UNK N   1       5.264   3.947  -0.158  0.00  0.00     0.047 A 
HETATM   15  N   UNK N   1       4.990   2.610  -0.325  0.00  0.00    -0.344 N 
ATOM     16  HN  UNK N   1       5.611   1.959  -0.805  1.00  0.00     0.167 HD
BRANCH  14  17
HETATM   17  C   UNK N   1       6.611   4.451  -0.374  0.00  0.00    -0.015 A 
HETATM   18  C   UNK N   1       7.615   3.625  -0.503  0.00  0.00     0.008 A 
HETATM   19  C   UNK N   1       8.881   4.342  -0.290  0.00  0.00     0.096 A 
HETATM   20  C   UNK N   1       9.828   4.151  -1.449  0.00  0.00     0.036 C 
HETATM   21  N   UNK N   1       8.526   5.758  -0.118  0.00  0.00    -0.410 N 
HETATM   22  C   UNK N   1       7.059   5.826  -0.084  0.00  0.00     0.155 A 
HETATM   23  H   UNK N   1       9.173   6.543  -0.037  0.00  0.00     0.154 HD
ENDBRANCH  14  17
ENDBRANCH  10  11
ENDBRANCH   1  10
BRANCH   2  24
HETATM   24  C   UNK N   1       0.909  -1.731   0.129  0.00  0.00     0.195 C 
HETATM   25  O   UNK N   1      -0.017  -2.518   0.092  0.00  0.00    -0.645 OA
BRANCH  24  26
HETATM   26  O   UNK N   1       2.175  -2.192   0.047  0.00  0.00    -0.772 OA
HETATM   27  H   UNK N   1       2.336  -3.114  -0.010  0.00  0.00     0.167 HD
ENDBRANCH  24  26
ENDBRANCH   2  24
BRANCH   7  28
HETATM   28  C   UNK N   1      -2.328   2.661  -0.816  0.00  0.00     0.129 C 
HETATM   29  C   UNK N   1      -3.776   2.655  -1.255  0.00  0.00     0.040 C 
BRANCH  28  30
HETATM   30  O   UNK N   1      -1.994   3.951  -0.396  0.00  0.00    -0.395 OA
HETATM   31  H   UNK N   1      -1.103   4.198  -0.105  0.00  0.00     0.210 HD
ENDBRANCH  28  30
ENDBRANCH   7  28
TORSDOF 7
