REMARK  2 active torsions:
REMARK  status: ('A' for Active; 'I' for Inactive)
REMARK    1  A    between atoms: C_3  and  C_2 
REMARK    2  A    between atoms: C_3  and  O_22 
ROOT
HETATM    1  C   UNK N   1       6.269   0.981   0.544  0.00  0.00     0.065 C 
HETATM    2  C   UNK N   1       6.055  -0.327   1.267  0.00  0.00     0.039 C 
HETATM    3  C   UNK N   1       5.222  -1.117   0.276  0.00  0.00     0.009 C 
HETATM    4  C   UNK N   1       4.167  -0.124  -0.194  0.00  0.00     0.001 C 
HETATM    5  C   UNK N   1       4.856   1.275  -0.058  0.00  0.00    -0.009 C 
HETATM    6  C   UNK N   1       4.045   2.209   0.875  0.00  0.00     0.013 C 
HETATM    7  C   UNK N   1       2.572   2.233   0.470  0.00  0.00     0.006 C 
HETATM    8  C   UNK N   1       1.916   0.858   0.669  0.00  0.00    -0.002 C 
HETATM    9  C   UNK N   1       2.971  -0.270   0.773  0.00  0.00    -0.005 C 
HETATM   10  C   UNK N   1       2.346  -1.671   0.825  0.00  0.00     0.010 C 
HETATM   11  C   UNK N   1       1.396  -1.903  -0.339  0.00  0.00     0.035 C 
HETATM   12  C   UNK N   1       0.355  -0.836  -0.309  0.00  0.00    -0.072 C 
HETATM   13  C   UNK N   1      -0.936  -1.180  -0.181  0.00  0.00     0.053 C 
HETATM   14  C   UNK N   1      -1.983  -0.151  -0.223  0.00  0.00     0.149 C 
HETATM   15  O   UNK N   1      -3.117  -0.404   0.145  0.00  0.00    -0.293 OA
HETATM   16  C   UNK N   1      -1.636   1.204  -0.748  0.00  0.00     0.084 C 
HETATM   17  C   UNK N   1      -0.318   1.630  -0.123  0.00  0.00     0.017 C 
HETATM   18  C   UNK N   1       0.819   0.615  -0.385  0.00  0.00     0.019 C 
HETATM   19  C   UNK N   1       4.928   1.954  -1.423  0.00  0.00     0.019 C 
ENDROOT
BRANCH   1  20
HETATM   20  C   UNK N   1       7.391   0.720  -0.482  0.00  0.00     0.034 C 
HETATM   21  C   UNK N   1       7.943   1.998  -1.097  0.00  0.00     0.008 C 
ENDBRANCH   1  20
BRANCH   1  22
HETATM   22  O   UNK N   1       6.691   1.965   1.446  0.00  0.00    -0.389 OA
HETATM   23  H   UNK N   1       7.427   2.054   2.070  0.00  0.00     0.210 HD
ENDBRANCH   1  22
TORSDOF 2
