REMARK  5 active torsions:
REMARK  status: ('A' for Active; 'I' for Inactive)
REMARK    1  A    between atoms: C_2  and  O_3 
REMARK    2  A    between atoms: O_3  and  C_4 
REMARK    3  A    between atoms: C_7  and  C_10 
REMARK    4  A    between atoms: C_11  and  C_21 
REMARK    5  A    between atoms: C_24  and  S_27 
ROOT
HETATM    1  C   UNK N   1       1.030  -1.600  -0.086  0.00  0.00     0.073 A 
HETATM    2  C   UNK N   1       1.804  -0.431  -0.089  0.00  0.00     0.034 A 
HETATM    3  C   UNK N   1       3.107  -0.883  -0.109  0.00  0.00     0.088 A 
HETATM    4  C   UNK N   1       4.312  -0.191  -0.066  0.00  0.00     0.036 A 
HETATM    5  C   UNK N   1       5.488  -0.956  -0.021  0.00  0.00     0.021 A 
HETATM    6  C   UNK N   1       5.409  -2.364  -0.011  0.00  0.00     0.109 A 
HETATM    7  N   UNK N   1       4.189  -2.973  -0.041  0.00  0.00    -0.290 N 
ATOM      8  HN  UNK N   1       4.120  -3.991  -0.028  1.00  0.00     0.188 HD
HETATM    9  N   UNK N   1       3.092  -2.224  -0.088  0.00  0.00    -0.196 N 
HETATM   10  N   UNK N   1       1.849  -2.678  -0.066  0.00  0.00    -0.278 N 
ATOM     11  HN  UNK N   1       1.562  -3.657  -0.040  1.00  0.00     0.189 HD
ENDROOT
BRANCH   2  12
HETATM   12  C   UNK N   1       1.305   0.953   0.049  0.00  0.00    -0.021 A 
HETATM   13  C   UNK N   1       0.196   1.172   0.874  0.00  0.00     0.014 A 
HETATM   14  C   UNK N   1      -0.352   2.434   1.029  0.00  0.00     0.024 A 
HETATM   15  C   UNK N   1       0.173   3.526   0.321  0.00  0.00     0.058 A 
HETATM   16  C   UNK N   1       1.353   3.321  -0.453  0.00  0.00     0.024 A 
HETATM   17  C   UNK N   1       1.917   2.041  -0.578  0.00  0.00     0.014 A 
BRANCH  15  18
HETATM   18  S   UNK N   1      -0.613   5.175   0.601  0.00  0.00     0.171 S 
HETATM   19  O   UNK N   1      -1.292   5.953  -0.535  0.00  0.00    -0.223 OA
HETATM   20  O   UNK N   1       0.689   5.789   0.066  0.00  0.00    -0.223 OA
HETATM   21  C   UNK N   1      -1.295   4.262  -0.836  0.00  0.00     0.167 C 
ENDBRANCH  15  18
ENDBRANCH   2  12
BRANCH   1  22
HETATM   22  C   UNK N   1      -0.446  -1.679  -0.078  0.00  0.00    -0.007 A 
HETATM   23  C   UNK N   1      -1.237  -0.682  -0.686  0.00  0.00     0.016 A 
HETATM   24  C   UNK N   1      -2.630  -0.700  -0.557  0.00  0.00     0.037 A 
HETATM   25  C   UNK N   1      -3.234  -1.705   0.213  0.00  0.00     0.068 A 
HETATM   26  C   UNK N   1      -2.449  -2.709   0.780  0.00  0.00     0.037 A 
HETATM   27  C   UNK N   1      -1.067  -2.714   0.615  0.00  0.00     0.016 A 
BRANCH  25  28
HETATM   28  O   UNK N   1      -4.558  -1.728   0.458  0.00  0.00    -0.352 OA
BRANCH  28  29
HETATM   29  C   UNK N   1      -5.521  -1.434  -0.468  0.00  0.00     0.171 C 
HETATM   30  C   UNK N   1      -6.564  -2.531  -0.373  0.00  0.00     0.034 C 
ENDBRANCH  28  29
ENDBRANCH  25  28
ENDBRANCH   1  22
TORSDOF 5
