REMARK  13 active torsions:
REMARK  status: ('A' for Active; 'I' for Inactive)
REMARK    1  A    between atoms: S_2  and  O_5 
REMARK    2  A    between atoms: O_5  and  C_6 
REMARK    3  A    between atoms: C_6  and  C_7 
REMARK    4  A    between atoms: C_7  and  C_8 
REMARK    5  A    between atoms: C_7  and  O_20 
REMARK    6  A    between atoms: C_8  and  C_9 
REMARK    7  A    between atoms: C_8  and  O_19 
REMARK    8  A    between atoms: C_9  and  C_10 
REMARK    9  A    between atoms: C_9  and  O_18 
REMARK   10  A    between atoms: C_10  and  C_11 
REMARK   11  A    between atoms: C_10  and  O_17 
REMARK   12  A    between atoms: C_11  and  O_12 
REMARK   13  A    between atoms: O_12  and  S_13 
ROOT
HETATM    1  C   UNK N   1       1.126   0.844   0.324  0.00  0.00     0.180 C 
ENDROOT
BRANCH   1   2
HETATM    2  C   UNK N   1       0.095   1.858  -0.197  0.00  0.00     0.174 C 
BRANCH   2   3
HETATM    3  C   UNK N   1      -1.299   1.656   0.376  0.00  0.00     0.224 C 
BRANCH   3   4
HETATM    4  O   UNK N   1      -1.956   0.667  -0.361  0.00  0.00    -0.273 OA
BRANCH   4   5
HETATM    5  S   UNK N   1      -3.166   0.039   0.683  0.00  0.00     0.261 S 
HETATM    6  C   UNK N   1      -4.600  -0.984   0.253  0.00  0.00     0.194 C 
HETATM    7  O   UNK N   1      -2.667  -1.232  -0.018  0.00  0.00    -0.199 OA
HETATM    8  O   UNK N   1      -3.989   0.696  -0.437  0.00  0.00    -0.199 OA
ENDBRANCH   4   5
ENDBRANCH   3   4
ENDBRANCH   2   3
BRANCH   2   9
HETATM    9  O   UNK N   1       0.524   3.152   0.099  0.00  0.00    -0.391 OA
HETATM   10  H   UNK N   1       1.452   3.343   0.305  0.00  0.00     0.210 HD
ENDBRANCH   2   9
ENDBRANCH   1   2
BRANCH   1  11
HETATM   11  C   UNK N   1       2.333   0.782  -0.618  0.00  0.00     0.180 C 
BRANCH  11  12
HETATM   12  C   UNK N   1       3.430  -0.157  -0.102  0.00  0.00     0.174 C 
BRANCH  12  13
HETATM   13  C   UNK N   1       4.294   0.457   1.006  0.00  0.00     0.224 C 
BRANCH  13  14
HETATM   14  O   UNK N   1       5.076   1.516   0.503  0.00  0.00    -0.273 OA
BRANCH  14  15
HETATM   15  S   UNK N   1       6.724   1.072   0.756  0.00  0.00     0.261 S 
HETATM   16  O   UNK N   1       7.611   2.206   0.225  0.00  0.00    -0.199 OA
HETATM   17  O   UNK N   1       6.578   0.819  -0.752  0.00  0.00    -0.199 OA
HETATM   18  C   UNK N   1       6.215   2.723   1.327  0.00  0.00     0.194 C 
ENDBRANCH  14  15
ENDBRANCH  13  14
ENDBRANCH  12  13
BRANCH  12  19
HETATM   19  O   UNK N   1       4.230  -0.584  -1.161  0.00  0.00    -0.391 OA
HETATM   20  H   UNK N   1       4.251  -1.214  -1.898  0.00  0.00     0.210 HD
ENDBRANCH  12  19
ENDBRANCH  11  12
BRANCH  11  21
HETATM   21  O   UNK N   1       2.847   2.049  -0.908  0.00  0.00    -0.390 OA
HETATM   22  H   UNK N   1       3.787   2.179  -1.109  0.00  0.00     0.210 HD
ENDBRANCH  11  21
ENDBRANCH   1  11
BRANCH   1  23
HETATM   23  O   UNK N   1       0.564  -0.433   0.394  0.00  0.00    -0.390 OA
HETATM   24  H   UNK N   1      -0.399  -0.539   0.443  0.00  0.00     0.210 HD
ENDBRANCH   1  23
TORSDOF 13
