REMARK  15 active torsions:
REMARK  status: ('A' for Active; 'I' for Inactive)
REMARK    1  A    between atoms: N_2  and  C_4 
REMARK    2  A    between atoms: C_4  and  C_5 
REMARK    3  A    between atoms: C_5  and  C_6 
REMARK    4  A    between atoms: C_5  and  O_24 
REMARK    5  A    between atoms: C_6  and  O_7 
REMARK    6  A    between atoms: O_7  and  C_8 
REMARK    7  A    between atoms: C_13  and  C_14 
REMARK    8  A    between atoms: C_14  and  C_15 
REMARK    9  A    between atoms: C_15  and  C_16 
REMARK   10  A    between atoms: C_20  and  O_22 
REMARK   11  A    between atoms: O_24  and  C_25 
REMARK   12  A    between atoms: C_25  and  C_27 
REMARK   13  A    between atoms: C_27  and  C_28 
REMARK   14  A    between atoms: C_28  and  C_29 
REMARK   15  A    between atoms: C_29  and  O_31 
ROOT
HETATM    1  C   UNK N   1       1.555  -4.449   0.086  0.00  0.00     0.075 A 
HETATM    2  C   UNK N   1       1.293  -5.805  -0.153  0.00  0.00     0.037 A 
HETATM    3  C   UNK N   1      -0.005  -6.260  -0.385  0.00  0.00     0.003 A 
HETATM    4  C   UNK N   1      -1.069  -5.362  -0.387  0.00  0.00     0.001 A 
HETATM    5  C   UNK N   1      -0.834  -4.006  -0.173  0.00  0.00     0.010 A 
HETATM    6  C   UNK N   1       0.466  -3.521   0.064  0.00  0.00    -0.025 A 
ENDROOT
BRANCH   1   7
HETATM    7  O   UNK N   1       2.847  -4.101   0.344  0.00  0.00    -0.348 OA
BRANCH   7   8
HETATM    8  C   UNK N   1       3.232  -2.926   0.949  0.00  0.00     0.210 C 
BRANCH   8   9
HETATM    9  C   UNK N   1       4.319  -2.218   0.168  0.00  0.00     0.184 C 
BRANCH   9  10
HETATM   10  C   UNK N   1       4.170  -0.732   0.484  0.00  0.00     0.305 C 
BRANCH  10  11
HETATM   11  N   UNK N   1       4.676   0.090  -0.602  0.00  0.00     0.082 N 
HETATM   12  C   UNK N   1       4.954   1.401  -0.048  0.00  0.00     0.309 C 
HETATM   13  C   UNK N   1       3.611   0.251  -1.578  0.00  0.00     0.309 C 
ENDBRANCH  10  11
ENDBRANCH   9  10
BRANCH   9  14
HETATM   14  O   UNK N   1       5.544  -2.701   0.600  0.00  0.00    -0.312 OA
BRANCH  14  15
HETATM   15  C   UNK N   1       6.752  -2.340   0.092  0.00  0.00     0.259 C 
HETATM   16  O   UNK N   1       6.839  -1.529  -0.816  0.00  0.00    -0.265 OA
BRANCH  15  17
HETATM   17  C   UNK N   1       7.993  -2.956   0.645  0.00  0.00     0.121 C 
BRANCH  17  18
HETATM   18  C   UNK N   1       8.656  -3.805  -0.428  0.00  0.00     0.119 C 
BRANCH  18  19
HETATM   19  C   UNK N   1      10.109  -3.981  -0.141  0.00  0.00     0.139 C 
HETATM   20  O   UNK N   1      10.859  -3.018  -0.163  0.00  0.00    -0.650 OA
BRANCH  19  21
HETATM   21  O   UNK N   1      10.599  -5.208   0.111  0.00  0.00    -0.776 OA
HETATM   22  H   UNK N   1      10.029  -5.931   0.286  0.00  0.00     0.167 HD
ENDBRANCH  19  21
ENDBRANCH  18  19
ENDBRANCH  17  18
ENDBRANCH  15  17
ENDBRANCH  14  15
ENDBRANCH   9  14
ENDBRANCH   8   9
ENDBRANCH   7   8
ENDBRANCH   1   7
BRANCH   6  23
HETATM   23  C   UNK N   1       0.675  -2.035   0.260  0.00  0.00     0.046 C 
BRANCH  23  24
HETATM   24  C   UNK N   1      -0.608  -1.204   0.174  0.00  0.00     0.043 C 
BRANCH  24  25
HETATM   25  C   UNK N   1      -0.400   0.282   0.139  0.00  0.00    -0.055 A 
HETATM   26  C   UNK N   1      -1.525   1.104   0.031  0.00  0.00     0.007 A 
HETATM   27  C   UNK N   1      -1.386   2.493  -0.017  0.00  0.00     0.003 A 
HETATM   28  C   UNK N   1      -0.117   3.070   0.040  0.00  0.00     0.037 A 
HETATM   29  C   UNK N   1       1.026   2.258   0.150  0.00  0.00     0.068 A 
HETATM   30  C   UNK N   1       0.877   0.866   0.199  0.00  0.00     0.044 A 
BRANCH  29  31
HETATM   31  O   UNK N   1       2.268   2.793   0.206  0.00  0.00    -0.356 OA
HETATM   32  C   UNK N   1       2.512   4.147   0.149  0.00  0.00     0.210 C 
ENDBRANCH  29  31
ENDBRANCH  24  25
ENDBRANCH  23  24
ENDBRANCH   6  23
TORSDOF 15
