REMARK  6 active torsions:
REMARK  status: ('A' for Active; 'I' for Inactive)
REMARK    1  A    between atoms: C_9  and  N_3 
REMARK    2  A    between atoms: C_7  and  O_8 
REMARK    3  A    between atoms: C_10  and  O_17 
REMARK    4  A    between atoms: C_11  and  O_16 
REMARK    5  A    between atoms: C_12  and  C_14 
REMARK    6  A    between atoms: C_14  and  O_15 
ROOT
HETATM    1  C   UNK N   1      -0.709   1.832  -0.535  0.00  0.00     0.259 C 
HETATM    2  C   UNK N   1      -0.341   1.157   0.759  0.00  0.00     0.198 C 
HETATM    3  C   UNK N   1      -0.609  -0.280   0.409  0.00  0.00     0.182 C 
HETATM    4  C   UNK N   1      -1.853  -0.118  -0.453  0.00  0.00     0.179 C 
HETATM    5  O   UNK N   1      -1.799   1.140  -1.103  0.00  0.00    -0.354 OA
ENDROOT
BRANCH   1   6
HETATM    6  N   UNK N   1      -0.960   3.258  -0.376  0.00  0.00    -0.305 N 
HETATM    7  C   UNK N   1       0.157   4.156  -0.628  0.00  0.00     0.135 C 
HETATM    8  C   UNK N   1      -0.029   5.517   0.040  0.00  0.00     0.073 C 
HETATM    9  C   UNK N   1      -1.394   6.037  -0.355  0.00  0.00     0.223 C 
HETATM   10  N   UNK N   1      -2.410   5.092   0.044  0.00  0.00    -0.316 N 
HETATM   11  C   UNK N   1      -2.197   3.751  -0.022  0.00  0.00     0.322 C 
HETATM   12  H   UNK N   1      -3.276   5.427   0.371  0.00  0.00     0.166 HD
HETATM   13  O   UNK N   1      -3.120   2.995   0.233  0.00  0.00    -0.247 OA
BRANCH   9  14
HETATM   14  O   UNK N   1      -1.637   7.276   0.236  0.00  0.00    -0.377 OA
HETATM   15  H   UNK N   1      -0.974   7.853   0.648  0.00  0.00     0.212 HD
ENDBRANCH   9  14
ENDBRANCH   1   6
BRANCH   2  16
HETATM   16  O   UNK N   1       1.003   1.378   1.073  0.00  0.00    -0.388 OA
HETATM   17  H   UNK N   1       1.602   0.647   1.292  0.00  0.00     0.210 HD
ENDBRANCH   2  16
BRANCH   3  18
HETATM   18  O   UNK N   1       0.420  -0.787  -0.393  0.00  0.00    -0.390 OA
HETATM   19  H   UNK N   1       0.472  -1.580  -0.948  0.00  0.00     0.210 HD
ENDBRANCH   3  18
BRANCH   4  20
HETATM   20  C   UNK N   1      -3.119  -0.218   0.385  0.00  0.00     0.198 C 
BRANCH  20  21
HETATM   21  O   UNK N   1      -3.397  -1.558   0.657  0.00  0.00    -0.398 OA
HETATM   22  H   UNK N   1      -4.300  -1.857   0.847  0.00  0.00     0.209 HD
ENDBRANCH  20  21
ENDBRANCH   4  20
TORSDOF 6
