REMARK  4 active torsions:
REMARK  status: ('A' for Active; 'I' for Inactive)
REMARK    1  A    between atoms: C_6  and  C_5 
REMARK    2  A    between atoms: O_9  and  C_5 
REMARK    3  A    between atoms: O_10  and  C_7 
REMARK    4  A    between atoms: O_11  and  C_8 
ROOT
HETATM    1  C   UNK N   1       2.125  -0.428  -0.000  0.00  0.00     0.012 A 
HETATM    2  C   UNK N   1       2.173   0.969  -0.000  0.00  0.00     0.040 A 
HETATM    3  C   UNK N   1      -0.289  -0.342   0.000  0.00  0.00     0.049 A 
HETATM    4  C   UNK N   1       0.889  -1.088   0.000  0.00  0.00    -0.032 A 
HETATM    5  C   UNK N   1       0.992   1.718  -0.000  0.00  0.00     0.099 A 
HETATM    6  C   UNK N   1      -0.264   1.055  -0.000  0.00  0.00     0.101 A 
ENDROOT
BRANCH   4   7
HETATM    7  C   UNK N   1       0.784  -2.582   0.000  0.00  0.00     0.203 C 
BRANCH   7   8
HETATM    8  O   UNK N   1       2.038  -3.196   0.000  0.00  0.00    -0.396 OA
HETATM    9  H   UNK N   1       2.104  -4.164   0.000  0.00  0.00     0.209 HD
ENDBRANCH   7   8
ENDBRANCH   4   7
BRANCH   6  10
HETATM   10  O   UNK N   1      -1.459   1.699   0.000  0.00  0.00    -0.353 OA
HETATM   11  C   UNK N   1      -1.633   3.063   0.000  0.00  0.00     0.210 C 
ENDBRANCH   6  10
BRANCH   5  12
HETATM   12  O   UNK N   1       1.076   3.060  -0.000  0.00  0.00    -0.358 OA
HETATM   13  H   UNK N   1       1.916   3.477  -0.000  0.00  0.00     0.217 HD
ENDBRANCH   5  12
TORSDOF 4
