REMARK  14 active torsions:
REMARK  status: ('A' for Active; 'I' for Inactive)
REMARK    1  A    between atoms: C_3  and  C_8 
REMARK    2  A    between atoms: C_15  and  N_10 
REMARK    3  A    between atoms: C_16  and  O_48 
REMARK    4  A    between atoms: C_17  and  C_46 
REMARK    5  A    between atoms: C_19  and  S_22 
REMARK    6  A    between atoms: C_20  and  O_21 
REMARK    7  A    between atoms: C_23  and  S_22 
REMARK    8  A    between atoms: C_24  and  O_45 
REMARK    9  A    between atoms: C_25  and  N_32 
REMARK   10  A    between atoms: C_26  and  O_31 
REMARK   11  A    between atoms: C_27  and  C_29 
REMARK   12  A    between atoms: C_29  and  O_30 
REMARK   13  A    between atoms: C_34  and  C_38 
REMARK   14  A    between atoms: C_46  and  O_47 
ROOT
HETATM    1  C   UNK N   1      -0.122  -8.079   0.023  0.00  0.00     0.172 C 
HETATM    2  C   UNK N   1       1.347  -7.821  -0.349  0.00  0.00     0.176 C 
HETATM    3  C   UNK N   1       2.188  -9.059   0.071  0.00  0.00     0.177 C 
HETATM    4  O   UNK N   1       1.538 -10.308  -0.147  0.00  0.00    -0.363 OA
HETATM    5  C   UNK N   1       0.225 -10.392   0.422  0.00  0.00     0.216 C 
HETATM    6  C   UNK N   1      -0.197  -9.092   1.146  0.00  0.00     0.184 C 
ENDROOT
BRANCH   5   7
HETATM    7  S   UNK N   1      -0.884 -10.801  -1.006  0.00  0.00    -0.100 SA
BRANCH   7   8
HETATM    8  C   UNK N   1      -2.521 -10.491  -0.265  0.00  0.00     0.216 C 
HETATM    9  C   UNK N   1      -3.097 -11.843   0.083  0.00  0.00     0.184 C 
HETATM   10  C   UNK N   1      -4.604 -11.836   0.413  0.00  0.00     0.169 C 
HETATM   11  C   UNK N   1      -5.368 -10.853  -0.486  0.00  0.00     0.176 C 
HETATM   12  C   UNK N   1      -4.549  -9.551  -0.543  0.00  0.00     0.177 C 
HETATM   13  O   UNK N   1      -3.336  -9.827  -1.198  0.00  0.00    -0.363 OA
BRANCH   9  14
HETATM   14  O   UNK N   1      -2.381 -12.413   1.139  0.00  0.00    -0.390 OA
HETATM   15  H   UNK N   1      -2.475 -13.042   1.872  0.00  0.00     0.210 HD
ENDBRANCH   9  14
BRANCH  10  16
HETATM   16  N   UNK N   1      -5.098 -13.215   0.292  0.00  0.00    -0.275 N 
HETATM   17  C   UNK N   1      -4.321 -14.269   0.004  0.00  0.00     0.140 A 
HETATM   18  C   UNK N   1      -5.113 -15.371   0.074  0.00  0.00     0.073 A 
HETATM   19  N   UNK N   1      -6.366 -14.976   0.393  0.00  0.00    -0.282 N 
HETATM   20  N   UNK N   1      -6.328 -13.652   0.523  0.00  0.00    -0.020 NA
ATOM     21  HN  UNK N   1      -7.182 -15.576   0.512  1.00  0.00     0.184 HD
BRANCH  18  22
HETATM   22  C   UNK N   1      -4.602 -16.740  -0.081  0.00  0.00    -0.004 A 
HETATM   23  C   UNK N   1      -3.230 -16.920  -0.333  0.00  0.00     0.014 A 
HETATM   24  C   UNK N   1      -2.685 -18.198  -0.433  0.00  0.00     0.004 A 
HETATM   25  C   UNK N   1      -3.507 -19.312  -0.279  0.00  0.00     0.042 A 
HETATM   26  C   UNK N   1      -4.874 -19.146  -0.029  0.00  0.00     0.117 A 
HETATM   27  C   UNK N   1      -5.424 -17.861   0.073  0.00  0.00     0.056 A 
HETATM   28  F   UNK N   1      -5.662 -20.235   0.123  0.00  0.00    -0.206 F 
ENDBRANCH  18  22
ENDBRANCH  10  16
BRANCH  11  29
HETATM   29  O   UNK N   1      -6.632 -10.620   0.062  0.00  0.00    -0.391 OA
HETATM   30  H   UNK N   1      -6.930  -9.779   0.443  0.00  0.00     0.210 HD
ENDBRANCH  11  29
BRANCH  12  31
HETATM   31  C   UNK N   1      -5.263  -8.413  -1.257  0.00  0.00     0.198 C 
BRANCH  31  32
HETATM   32  O   UNK N   1      -6.194  -7.824  -0.401  0.00  0.00    -0.398 OA
HETATM   33  H   UNK N   1      -6.163  -7.059   0.195  0.00  0.00     0.209 HD
ENDBRANCH  31  32
ENDBRANCH  12  31
ENDBRANCH   7   8
ENDBRANCH   5   7
BRANCH   6  34
HETATM   34  O   UNK N   1      -1.444  -9.188   1.765  0.00  0.00    -0.390 OA
HETATM   35  H   UNK N   1      -1.936  -8.471   2.195  0.00  0.00     0.210 HD
ENDBRANCH   6  34
BRANCH   3  36
HETATM   36  C   UNK N   1       3.558  -9.047  -0.583  0.00  0.00     0.198 C 
BRANCH  36  37
HETATM   37  O   UNK N   1       4.347 -10.064  -0.045  0.00  0.00    -0.398 OA
HETATM   38  H   UNK N   1       4.009 -10.893   0.330  0.00  0.00     0.209 HD
ENDBRANCH  36  37
ENDBRANCH   3  36
BRANCH   1  39
HETATM   39  N   UNK N   1      -1.071  -6.973   0.086  0.00  0.00    -0.277 N 
HETATM   40  C   UNK N   1      -0.839  -5.649   0.028  0.00  0.00     0.144 A 
HETATM   41  C   UNK N   1      -2.090  -5.055   0.061  0.00  0.00     0.076 A 
HETATM   42  N   UNK N   1      -3.021  -6.022   0.127  0.00  0.00    -0.284 N 
HETATM   43  N   UNK N   1      -2.378  -7.174   0.135  0.00  0.00    -0.240 N 
ATOM     44  HN  UNK N   1      -4.032  -5.891   0.164  1.00  0.00     0.188 HD
ATOM     45  HN  UNK N   1      -2.825  -8.090   0.174  1.00  0.00     0.208 HD
BRANCH  41  46
HETATM   46  C   UNK N   1      -2.408  -3.626   0.026  0.00  0.00    -0.004 A 
HETATM   47  C   UNK N   1      -1.390  -2.666  -0.038  0.00  0.00     0.014 A 
HETATM   48  C   UNK N   1      -1.714  -1.306  -0.066  0.00  0.00     0.004 A 
HETATM   49  C   UNK N   1      -3.053  -0.903  -0.029  0.00  0.00     0.042 A 
HETATM   50  C   UNK N   1      -4.069  -1.860   0.035  0.00  0.00     0.117 A 
HETATM   51  C   UNK N   1      -3.747  -3.217   0.062  0.00  0.00     0.056 A 
HETATM   52  F   UNK N   1      -5.367  -1.473   0.071  0.00  0.00    -0.206 F 
ENDBRANCH  41  46
ENDBRANCH   1  39
BRANCH   2  53
HETATM   53  O   UNK N   1       1.845  -6.708   0.332  0.00  0.00    -0.391 OA
HETATM   54  H   UNK N   1       2.687  -6.622   0.804  0.00  0.00     0.210 HD
ENDBRANCH   2  53
TORSDOF 14
