REMARK  14 active torsions:
REMARK  status: ('A' for Active; 'I' for Inactive)
REMARK    1  A    between atoms: C_7  and  C_40 
REMARK    2  A    between atoms: N_10  and  C_13 
REMARK    3  A    between atoms: C_14  and  C_13 
REMARK    4  A    between atoms: N_18  and  C_19 
REMARK    5  A    between atoms: C_19  and  C_20 
REMARK    6  A    between atoms: C_20  and  C_21 
REMARK    7  A    between atoms: C_21  and  C_22 
REMARK    8  A    between atoms: C_22  and  C_23 
REMARK    9  A    between atoms: C_26  and  O_29 
REMARK   10  A    between atoms: O_29  and  C_30 
REMARK   11  A    between atoms: C_30  and  C_31 
REMARK   12  A    between atoms: C_31  and  C_32 
REMARK   13  A    between atoms: C_32  and  N_33 
REMARK   14  A    between atoms: C_40  and  C_41 
ROOT
HETATM    1  C   UNK N   1       2.959  -2.534   0.958  0.00  0.00     0.242 C 
HETATM    2  C   UNK N   1       2.046  -3.726   1.156  0.00  0.00     0.039 C 
HETATM    3  C   UNK N   1       2.867  -4.909   0.664  0.00  0.00     0.032 C 
HETATM    4  C   UNK N   1       4.302  -4.399   0.607  0.00  0.00     0.273 C 
HETATM    5  N   UNK N   1       4.270  -3.088   1.239  0.00  0.00     0.094 N 
ENDROOT
BRANCH   1   6
HETATM    6  C   UNK N   1       2.795  -2.015  -0.484  0.00  0.00     0.188 C 
BRANCH   6   7
HETATM    7  N   UNK N   1       1.556  -1.254  -0.518  0.00  0.00    -0.255 N 
HETATM    8  N   UNK N   1       1.612   0.033  -0.178  0.00  0.00    -0.299 N 
HETATM    9  C   UNK N   1       0.502   0.797  -0.008  0.00  0.00     0.041 A 
ATOM     10  HN  UNK N   1       2.527   0.462  -0.041  1.00  0.00     0.187 HD
HETATM   11  C   UNK N   1      -0.761   0.207  -0.165  0.00  0.00     0.004 A 
HETATM   12  C   UNK N   1      -0.838  -1.148  -0.556  0.00  0.00     0.046 A 
HETATM   13  C   UNK N   1      -1.941   0.929   0.059  0.00  0.00     0.014 A 
HETATM   14  C   UNK N   1      -2.091  -1.757  -0.715  0.00  0.00     0.018 A 
HETATM   15  C   UNK N   1       0.344  -1.870  -0.747  0.00  0.00     0.273 A 
HETATM   16  C   UNK N   1      -3.260  -1.031  -0.478  0.00  0.00     0.001 A 
HETATM   17  C   UNK N   1      -3.185   0.309  -0.089  0.00  0.00     0.001 A 
HETATM   18  O   UNK N   1       0.302  -3.048  -1.073  0.00  0.00    -0.266 OA
BRANCH   9  19
HETATM   19  C   UNK N   1       0.655   2.253   0.367  0.00  0.00     0.098 C 
BRANCH  19  20
HETATM   20  C   UNK N   1       2.070   2.729   0.206  0.00  0.00    -0.052 A 
HETATM   21  C   UNK N   1       2.382   3.614  -0.831  0.00  0.00     0.009 A 
HETATM   22  C   UNK N   1       3.707   3.999  -1.049  0.00  0.00     0.024 A 
HETATM   23  C   UNK N   1       4.726   3.498  -0.234  0.00  0.00     0.034 A 
HETATM   24  C   UNK N   1       4.418   2.623   0.812  0.00  0.00     0.024 A 
HETATM   25 Cl   UNK N   1       6.389   3.955  -0.531  0.00  0.00    -0.084 Cl
HETATM   26  C   UNK N   1       3.092   2.238   1.033  0.00  0.00     0.009 A 
ENDBRANCH  19  20
ENDBRANCH   9  19
ENDBRANCH   6   7
ENDBRANCH   1   6
BRANCH   5  27
HETATM   27  C   UNK N   1       5.416  -2.188   1.058  0.00  0.00     0.273 C 
BRANCH  27  28
HETATM   28  C   UNK N   1       6.083  -2.287  -0.307  0.00  0.00     0.030 C 
BRANCH  28  29
HETATM   29  C   UNK N   1       7.581  -1.975  -0.190  0.00  0.00     0.006 C 
BRANCH  29  30
HETATM   30  C   UNK N   1       8.362  -2.966   0.696  0.00  0.00     0.038 C 
BRANCH  30  31
HETATM   31  C   UNK N   1       7.928  -4.372   0.451  0.00  0.00    -0.058 A 
HETATM   32  C   UNK N   1       7.996  -4.911  -0.838  0.00  0.00     0.010 A 
HETATM   33  C   UNK N   1       7.430  -6.156  -1.103  0.00  0.00     0.037 A 
HETATM   34  C   UNK N   1       6.798  -6.874  -0.075  0.00  0.00     0.068 A 
HETATM   35  C   UNK N   1       6.782  -6.357   1.224  0.00  0.00     0.037 A 
HETATM   36  C   UNK N   1       7.337  -5.103   1.486  0.00  0.00     0.010 A 
BRANCH  34  37
HETATM   37  O   UNK N   1       6.159  -8.036  -0.319  0.00  0.00    -0.351 OA
BRANCH  37  38
HETATM   38  C   UNK N   1       5.858  -8.494  -1.586  0.00  0.00     0.177 C 
BRANCH  38  39
HETATM   39  C   UNK N   1       4.411  -8.146  -1.951  0.00  0.00     0.057 C 
BRANCH  39  40
HETATM   40  C   UNK N   1       3.438  -8.243  -0.769  0.00  0.00     0.274 C 
BRANCH  40  41
HETATM   41  N   UNK N   1       3.179  -9.626  -0.387  0.00  0.00     0.088 N 
HETATM   42  C   UNK N   1       4.259 -10.055   0.497  0.00  0.00     0.272 C 
HETATM   43  C   UNK N   1       4.444 -11.563   0.432  0.00  0.00     0.030 C 
HETATM   44  C   UNK N   1       3.248 -12.289   1.029  0.00  0.00     0.002 C 
HETATM   45  C   UNK N   1       2.048 -12.177   0.100  0.00  0.00     0.002 C 
HETATM   46  C   UNK N   1       1.203 -10.930   0.372  0.00  0.00     0.030 C 
HETATM   47  C   UNK N   1       1.974  -9.606   0.432  0.00  0.00     0.272 C 
ENDBRANCH  40  41
ENDBRANCH  39  40
ENDBRANCH  38  39
ENDBRANCH  37  38
ENDBRANCH  34  37
ENDBRANCH  30  31
ENDBRANCH  29  30
ENDBRANCH  28  29
ENDBRANCH  27  28
ENDBRANCH   5  27
TORSDOF 14
