REMARK  7 active torsions:
REMARK  status: ('A' for Active; 'I' for Inactive)
REMARK    1  A    between atoms: B_1  and  O_20 
REMARK    2  A    between atoms: C_2  and  N_11 
REMARK    3  A    between atoms: C_5  and  C_7 
REMARK    4  A    between atoms: C_7  and  C_8 
REMARK    5  A    between atoms: C_8  and  O_10 
REMARK       I    between atoms: N_11  and  C_12 
REMARK    6  A    between atoms: C_12  and  C_14 
REMARK    7  A    between atoms: C_14  and  C_15 
ROOT
HETATM    1  B   UNK N   1      -4.884   5.225  -0.278  0.00  0.00     0.517 B 
HETATM    2  C   UNK N   1      -4.987   3.641  -0.368  0.00  0.00     0.110 C 
HETATM    3  C   UNK N   1      -6.156   3.224   0.520  0.00  0.00     0.023 C 
HETATM    4  C   UNK N   1      -7.410   4.004   0.127  0.00  0.00     0.032 C 
HETATM    5  C   UNK N   1      -7.148   5.518   0.268  0.00  0.00     0.112 C 
HETATM    6  O   UNK N   1      -6.113   5.979  -0.589  0.00  0.00    -0.421 OA
ENDROOT
BRANCH   2   7
HETATM    7  N   UNK N   1      -3.766   2.958   0.002  0.00  0.00    -0.360 N 
HETATM    8  C   UNK N   1      -3.651   1.611  -0.109  0.00  0.00     0.222 C 
HETATM    9  O   UNK N   1      -4.602   0.950  -0.509  0.00  0.00    -0.273 OA
HETATM   10  H   UNK N   1      -3.004   3.482   0.341  0.00  0.00     0.162 HD
BRANCH   8  11
HETATM   11  C   UNK N   1      -2.339   0.946   0.221  0.00  0.00     0.148 C 
BRANCH  11  12
HETATM   12  C   UNK N   1      -2.282  -0.559   0.119  0.00  0.00    -0.009 A 
HETATM   13  C   UNK N   1      -1.104  -1.303   0.122  0.00  0.00     0.015 A 
HETATM   14  C   UNK N   1      -1.330  -2.707   0.026  0.00  0.00     0.008 A 
HETATM   15  C   UNK N   1      -2.682  -3.068  -0.045  0.00  0.00     0.050 A 
HETATM   16  S   UNK N   1      -3.532  -1.647   0.013  0.00  0.00    -0.106 SA
ENDBRANCH  11  12
ENDBRANCH   8  11
ENDBRANCH   2   7
BRANCH   1  17
HETATM   17  O   UNK N   1      -3.684   5.901   0.212  0.00  0.00    -0.436 OA
HETATM   18  H   UNK N   1      -2.898   5.435   0.538  0.00  0.00     0.184 HD
ENDBRANCH   1  17
BRANCH   5  19
HETATM   19  C   UNK N   1      -8.462   6.211  -0.075  0.00  0.00     0.140 C 
BRANCH  19  20
HETATM   20  C   UNK N   1      -8.444   7.703   0.068  0.00  0.00     0.141 C 
HETATM   21  O   UNK N   1      -9.474   8.331  -0.114  0.00  0.00    -0.650 OA
BRANCH  20  22
HETATM   22  O   UNK N   1      -7.312   8.359   0.388  0.00  0.00    -0.776 OA
HETATM   23  H   UNK N   1      -6.523   7.905   0.611  0.00  0.00     0.167 HD
ENDBRANCH  20  22
ENDBRANCH  19  20
ENDBRANCH   5  19
TORSDOF 7
