REMARK  18 active torsions:
REMARK  status: ('A' for Active; 'I' for Inactive)
REMARK    1  A    between atoms: C_3  and  N_2 
REMARK       I    between atoms: N_2  and  C_41 
REMARK    2  A    between atoms: C_3  and  C_4 
REMARK    3  A    between atoms: C_3  and  C_12 
REMARK    4  A    between atoms: C_4  and  C_5 
REMARK       I    between atoms: C_12  and  N_14 
REMARK    5  A    between atoms: N_14  and  C_15 
REMARK    6  A    between atoms: N_14  and  C_22 
REMARK    7  A    between atoms: C_15  and  C_16 
REMARK    8  A    between atoms: C_22  and  C_23 
REMARK    9  A    between atoms: C_22  and  C_32 
REMARK   10  A    between atoms: C_23  and  C_24 
REMARK   11  A    between atoms: C_24  and  C_25 
REMARK   12  A    between atoms: C_32  and  C_33 
REMARK   13  A    between atoms: C_33  and  C_34 
REMARK   14  A    between atoms: C_41  and  C_43 
REMARK   15  A    between atoms: C_43  and  C_45 
REMARK   16  A    between atoms: C_47  and  O_55 
REMARK   17  A    between atoms: C_48  and  O_53 
REMARK   18  A    between atoms: C_49  and  O_51 
ROOT
HETATM    1  C   UNK N   1       3.798  -7.016   0.510  0.00  0.00     0.243 C 
HETATM    2  O   UNK N   1       3.506  -6.288   1.450  0.00  0.00    -0.271 OA
HETATM    3  N   UNK N   1       2.806  -7.558  -0.257  0.00  0.00    -0.341 N 
ENDROOT
BRANCH   1   4
HETATM    4  C   UNK N   1       5.263  -7.246   0.177  0.00  0.00     0.183 C 
BRANCH   4   5
HETATM    5  N   UNK N   1       6.027  -5.982   0.018  0.00  0.00    -0.336 N 
HETATM    6  C   UNK N   1       5.469  -4.721   0.460  0.00  0.00     0.154 C 
HETATM    7  C   UNK N   1       7.319  -6.030  -0.440  0.00  0.00     0.295 C 
HETATM    8  O   UNK N   1       7.750  -7.076  -0.883  0.00  0.00    -0.264 OA
BRANCH   7   9
HETATM    9  C   UNK N   1       8.270  -4.869  -0.374  0.00  0.00     0.249 C 
HETATM   10  O   UNK N   1       7.864  -3.718  -0.319  0.00  0.00    -0.281 OA
BRANCH   9  11
HETATM   11  C   UNK N   1       9.734  -5.146  -0.266  0.00  0.00     0.025 A 
HETATM   12  C   UNK N   1      10.679  -4.115  -0.298  0.00  0.00     0.055 A 
HETATM   13  C   UNK N   1      12.050  -4.394  -0.117  0.00  0.00     0.105 A 
HETATM   14  C   UNK N   1      12.477  -5.711   0.131  0.00  0.00     0.135 A 
HETATM   15  C   UNK N   1      11.526  -6.752   0.157  0.00  0.00     0.105 A 
HETATM   16  C   UNK N   1      10.179  -6.457  -0.044  0.00  0.00     0.055 A 
BRANCH  13  17
HETATM   17  O   UNK N   1      12.982  -3.413  -0.185  0.00  0.00    -0.353 OA
HETATM   18  C   UNK N   1      12.685  -2.105  -0.487  0.00  0.00     0.210 C 
ENDBRANCH  13  17
BRANCH  14  19
HETATM   19  O   UNK N   1      13.809  -5.934   0.310  0.00  0.00    -0.351 OA
HETATM   20  C   UNK N   1      14.394  -7.154   0.570  0.00  0.00     0.210 C 
ENDBRANCH  14  19
BRANCH  15  21
HETATM   21  O   UNK N   1      11.921  -8.027   0.352  0.00  0.00    -0.353 OA
HETATM   22  C   UNK N   1      11.556  -9.033  -0.507  0.00  0.00     0.210 C 
ENDBRANCH  15  21
ENDBRANCH   9  11
ENDBRANCH   7   9
ENDBRANCH   4   5
BRANCH   4  23
HETATM   23  C   UNK N   1       5.897  -8.126   1.270  0.00  0.00     0.073 C 
BRANCH  23  24
HETATM   24  C   UNK N   1       6.925  -9.125   0.795  0.00  0.00    -0.056 A 
HETATM   25  C   UNK N   1       7.881  -9.598   1.700  0.00  0.00     0.009 A 
HETATM   26  C   UNK N   1       8.831 -10.543   1.294  0.00  0.00     0.024 A 
HETATM   27  C   UNK N   1       8.829 -11.021  -0.019  0.00  0.00     0.034 A 
HETATM   28  C   UNK N   1       7.880 -10.554  -0.929  0.00  0.00     0.024 A 
HETATM   29 Cl   UNK N   1      10.004 -12.217  -0.523  0.00  0.00    -0.084 Cl
HETATM   30  C   UNK N   1       6.930  -9.614  -0.523  0.00  0.00     0.009 A 
ENDBRANCH  23  24
ENDBRANCH   4  23
ENDBRANCH   1   4
BRANCH   3  31
HETATM   31  C   UNK N   1       3.110  -8.549  -1.282  0.00  0.00     0.164 C 
BRANCH  31  32
HETATM   32  C   UNK N   1       3.094  -9.948  -0.697  0.00  0.00    -0.040 A 
HETATM   33  C   UNK N   1       4.247 -10.736  -0.723  0.00  0.00     0.009 A 
HETATM   34  C   UNK N   1       4.246 -12.024  -0.174  0.00  0.00     0.001 A 
HETATM   35  C   UNK N   1       3.081 -12.540   0.397  0.00  0.00     0.000 A 
HETATM   36  C   UNK N   1       1.917 -11.769   0.413  0.00  0.00     0.001 A 
HETATM   37  C   UNK N   1       1.926 -10.481  -0.132  0.00  0.00     0.009 A 
ENDBRANCH  31  32
ENDBRANCH   3  31
BRANCH   3  38
HETATM   38  C   UNK N   1       1.466  -6.987  -0.162  0.00  0.00     0.088 C 
BRANCH  38  39
HETATM   39  C   UNK N   1       0.374  -8.010  -0.372  0.00  0.00     0.030 C 
BRANCH  39  40
HETATM   40  C   UNK N   1      -0.334  -8.337   0.923  0.00  0.00     0.041 C 
BRANCH  40  41
HETATM   41  C   UNK N   1      -1.626  -8.973   0.562  0.00  0.00    -0.056 A 
HETATM   42  C   UNK N   1      -1.691 -10.343   0.298  0.00  0.00     0.024 A 
HETATM   43  C   UNK N   1      -2.906 -10.902  -0.104  0.00  0.00     0.088 A 
HETATM   44  N   UNK N   1      -4.008 -10.114  -0.244  0.00  0.00    -0.375 N 
HETATM   45  C   UNK N   1      -3.961  -8.777   0.005  0.00  0.00     0.088 A 
ATOM     46  HN  UNK N   1      -4.887 -10.535  -0.542  1.00  0.00     0.164 HD
HETATM   47  C   UNK N   1      -2.766  -8.182   0.411  0.00  0.00     0.024 A 
ENDBRANCH  40  41
ENDBRANCH  39  40
ENDBRANCH  38  39
BRANCH  38  48
HETATM   48  C   UNK N   1       1.287  -5.916  -1.229  0.00  0.00     0.030 C 
BRANCH  48  49
HETATM   49  C   UNK N   1       2.158  -4.693  -0.956  0.00  0.00     0.041 C 
BRANCH  49  50
HETATM   50  C   UNK N   1       1.394  -3.493  -0.474  0.00  0.00    -0.056 A 
HETATM   51  C   UNK N   1       0.015  -3.540  -0.225  0.00  0.00     0.024 A 
HETATM   52  C   UNK N   1      -0.648  -2.386   0.197  0.00  0.00     0.088 A 
HETATM   53  N   UNK N   1       0.041  -1.224   0.359  0.00  0.00    -0.375 N 
HETATM   54  C   UNK N   1       1.379  -1.154   0.126  0.00  0.00     0.088 A 
ATOM     55  HN  UNK N   1      -0.457  -0.387   0.663  1.00  0.00     0.164 HD
HETATM   56  C   UNK N   1       2.078  -2.288  -0.294  0.00  0.00     0.024 A 
ENDBRANCH  49  50
ENDBRANCH  48  49
ENDBRANCH  38  48
ENDBRANCH   3  38
TORSDOF 18
