REMARK  18 active torsions:
REMARK  status: ('A' for Active; 'I' for Inactive)
REMARK    1  A    between atoms: C_5  and  O_64 
REMARK    2  A    between atoms: C_6  and  O_58 
REMARK    3  A    between atoms: C_16  and  O_18 
REMARK    4  A    between atoms: C_25  and  O_30 
REMARK    5  A    between atoms: O_30  and  C_31 
REMARK    6  A    between atoms: C_31  and  C_33 
REMARK    7  A    between atoms: C_33  and  N_35 
REMARK       I    between atoms: N_35  and  C_37 
REMARK    8  A    between atoms: C_37  and  C_39 
REMARK    9  A    between atoms: C_39  and  C_40 
REMARK   10  A    between atoms: C_40  and  C_41 
REMARK   11  A    between atoms: C_41  and  S_44 
REMARK   12  A    between atoms: S_44  and  S_45 
REMARK   13  A    between atoms: S_45  and  C_46 
REMARK   14  A    between atoms: C_46  and  C_47 
REMARK   15  A    between atoms: C_47  and  C_48 
REMARK   16  A    between atoms: C_48  and  C_49 
REMARK   17  A    between atoms: C_48  and  S_52 
REMARK       I    between atoms: C_49  and  N_51 
REMARK   18  A    between atoms: S_52  and  O_55 
ROOT
HETATM    1  C   UNK N   1       3.552   4.529   0.944  0.00  0.00     0.015 C 
HETATM    2  C   UNK N   1       3.017   4.940  -0.422  0.00  0.00     0.043 C 
HETATM    3  C   UNK N   1       1.974   6.076  -0.395  0.00  0.00     0.144 C 
HETATM    4  C   UNK N   1       0.900   5.890   0.669  0.00  0.00     0.097 C 
HETATM    5  C   UNK N   1      -0.130   7.037   0.683  0.00  0.00     0.167 C 
HETATM    6  C   UNK N   1      -1.388   6.779  -0.222  0.00  0.00     0.199 C 
HETATM    7  C   UNK N   1      -1.549   5.415  -0.883  0.00  0.00     0.010 C 
HETATM    8  C   UNK N   1      -2.614   4.568  -0.910  0.00  0.00    -0.001 C 
HETATM    9  C   UNK N   1      -3.951   4.725  -0.278  0.00  0.00     0.002 C 
HETATM   10  C   UNK N   1      -4.807   3.710   0.076  0.00  0.00    -0.080 C 
HETATM   11  C   UNK N   1      -4.554   2.184  -0.054  0.00  0.00     0.072 C 
HETATM   12  C   UNK N   1      -3.251   1.704   0.534  0.00  0.00    -0.050 C 
HETATM   13  C   UNK N   1      -2.620   0.472   0.142  0.00  0.00     0.034 C 
HETATM   14  C   UNK N   1      -1.188   0.440   0.208  0.00  0.00     0.039 C 
HETATM   15  C   UNK N   1      -0.588   1.673   0.183  0.00  0.00     0.188 C 
HETATM   16  C   UNK N   1      -1.109   2.589   1.071  0.00  0.00     0.070 C 
HETATM   17  C   UNK N   1      -2.480   2.657   1.198  0.00  0.00     0.041 C 
HETATM   18 Cl   UNK N   1      -0.942   2.184  -1.503  0.00  0.00    -0.111 Cl
HETATM   19  N   UNK N   1      -0.342  -0.689  -0.083  0.00  0.00    -0.324 N 
HETATM   20  C   UNK N   1       1.035  -0.635   0.150  0.00  0.00     0.226 C 
HETATM   21  O   UNK N   1       1.737  -1.596  -0.132  0.00  0.00    -0.273 OA
HETATM   22  C   UNK N   1       1.694   0.532   0.920  0.00  0.00     0.139 C 
HETATM   23  C   UNK N   1       2.494   1.700   0.249  0.00  0.00     0.177 C 
HETATM   24  C   UNK N   1       2.107   2.409  -1.069  0.00  0.00     0.111 A 
HETATM   25  C   UNK N   1       2.598   3.807  -1.374  0.00  0.00     0.165 A 
HETATM   26  O   UNK N   1       1.280   3.515  -0.963  0.00  0.00    -0.366 OA
HETATM   27  C   UNK N   1       1.853   1.597  -2.332  0.00  0.00     0.051 C 
HETATM   28  C   UNK N   1      -0.934  -1.907  -0.588  0.00  0.00     0.159 C 
HETATM   29  C   UNK N   1      -6.097   4.111   0.693  0.00  0.00     0.043 C 
HETATM   30  N   UNK N   1       0.492   8.306   0.303  0.00  0.00    -0.302 N 
HETATM   31  C   UNK N   1       1.787   8.413  -0.110  0.00  0.00     0.363 C 
HETATM   32  O   UNK N   1       2.264   9.517  -0.331  0.00  0.00    -0.238 OA
HETATM   33  O   UNK N   1       2.560   7.312  -0.263  0.00  0.00    -0.298 OA
HETATM   34  H   UNK N   1      -0.053   9.125   0.348  0.00  0.00     0.168 HD
ENDROOT
BRANCH  23  35
HETATM   35  O   UNK N   1       3.849   1.614   0.444  0.00  0.00    -0.311 OA
BRANCH  35  36
HETATM   36  C   UNK N   1       4.696   1.172  -0.508  0.00  0.00     0.282 C 
HETATM   37  O   UNK N   1       4.277   0.753  -1.576  0.00  0.00    -0.263 OA
BRANCH  36  38
HETATM   38  C   UNK N   1       6.105   0.927  -0.153  0.00  0.00     0.182 C 
HETATM   39  C   UNK N   1       6.105  -0.543   0.247  0.00  0.00     0.043 C 
BRANCH  38  40
HETATM   40  N   UNK N   1       7.023   1.186  -1.272  0.00  0.00    -0.343 N 
HETATM   41  C   UNK N   1       6.576   1.920  -2.445  0.00  0.00     0.153 C 
HETATM   42  C   UNK N   1       8.323   0.764  -1.238  0.00  0.00     0.220 C 
HETATM   43  O   UNK N   1       9.018   0.884  -2.238  0.00  0.00    -0.273 OA
BRANCH  42  44
HETATM   44  C   UNK N   1       8.947   0.128  -0.016  0.00  0.00     0.104 C 
BRANCH  44  45
HETATM   45  C   UNK N   1       8.525   0.783   1.303  0.00  0.00     0.029 C 
BRANCH  45  46
HETATM   46  C   UNK N   1       9.139   2.088   1.805  0.00  0.00     0.012 C 
HETATM   47  C   UNK N   1      10.527   1.880   2.358  0.00  0.00     0.027 C 
HETATM   48  C   UNK N   1       8.305   2.421   3.022  0.00  0.00     0.027 C 
BRANCH  46  49
HETATM   49  S   UNK N   1       8.974   3.593   0.745  0.00  0.00    -0.088 SA
BRANCH  49  50
HETATM   50  S   UNK N   1      10.103   3.354  -1.086  0.00  0.00    -0.097 SA
BRANCH  50  51
HETATM   51  C   UNK N   1      11.163   1.933  -0.698  0.00  0.00     0.088 C 
BRANCH  51  52
HETATM   52  C   UNK N   1      12.297   2.288   0.220  0.00  0.00     0.042 C 
BRANCH  52  53
HETATM   53  C   UNK N   1      13.459   2.927  -0.492  0.00  0.00     0.213 C 
BRANCH  53  54
HETATM   54  C   UNK N   1      14.751   2.319  -0.009  0.00  0.00     0.235 C 
HETATM   55  O   UNK N   1      15.810   2.712  -0.467  0.00  0.00    -0.272 OA
HETATM   56  N   UNK N   1      14.756   1.330   0.914  0.00  0.00    -0.369 N 
HETATM   57  H   UNK N   1      14.134   0.967   1.585  0.00  0.00     0.159 HD
HETATM   58  H   UNK N   1      15.611   0.842   0.914  0.00  0.00     0.159 HD
ENDBRANCH  53  54
BRANCH  53  59
HETATM   59  S   UNK N   1      13.432   4.714  -0.131  0.00  0.00     0.107 S 
HETATM   60  O   UNK N   1      14.440   5.478  -0.999  0.00  0.00    -0.601 OA
HETATM   61  O   UNK N   1      12.126   5.398  -0.559  0.00  0.00    -0.601 OA
BRANCH  59  62
HETATM   62  O   UNK N   1      13.708   5.254   1.473  0.00  0.00    -0.295 OA
HETATM   63  H   UNK N   1      14.051   5.272   2.380  0.00  0.00     0.232 HD
ENDBRANCH  59  62
ENDBRANCH  53  59
ENDBRANCH  52  53
ENDBRANCH  51  52
ENDBRANCH  50  51
ENDBRANCH  49  50
ENDBRANCH  46  49
ENDBRANCH  45  46
ENDBRANCH  44  45
ENDBRANCH  42  44
ENDBRANCH  38  40
ENDBRANCH  36  38
ENDBRANCH  35  36
ENDBRANCH  23  35
BRANCH  16  64
HETATM   64  O   UNK N   1      -0.274   3.416   1.734  0.00  0.00    -0.358 OA
HETATM   65  C   UNK N   1      -0.692   4.218   2.769  0.00  0.00     0.209 C 
ENDBRANCH  16  64
BRANCH   5  66
HETATM   66  O   UNK N   1      -0.553   7.156   2.009  0.00  0.00    -0.368 OA
HETATM   67  H   UNK N   1      -0.629   7.453   2.929  0.00  0.00     0.212 HD
ENDBRANCH   5  66
BRANCH   6  68
HETATM   68  O   UNK N   1      -2.568   7.224   0.387  0.00  0.00    -0.382 OA
HETATM   69  C   UNK N   1      -2.949   8.359  -0.328  0.00  0.00     0.202 C 
ENDBRANCH   6  68
TORSDOF 18
