REMARK  4 active torsions:
REMARK  status: ('A' for Active; 'I' for Inactive)
REMARK    1  A    between atoms: C_22  and  C_16 
REMARK    2  A    between atoms: N_24  and  C_17 
REMARK    3  A    between atoms: O_28  and  C_19 
REMARK    4  A    between atoms: O_29  and  C_20 
REMARK       I    between atoms: N_25  and  C_22 
ROOT
HETATM    1  C   UNK N   1       4.499  -2.312   0.567  0.00  0.00     0.143 C 
HETATM    2  C   UNK N   1       5.863  -0.256   0.197  0.00  0.00     0.143 C 
HETATM    3  C   UNK N   1       5.491  -3.092  -0.337  0.00  0.00     0.146 C 
HETATM    4  C   UNK N   1       6.610  -0.977  -0.886  0.00  0.00     0.146 C 
HETATM    5  C   UNK N   1       7.952  -2.886  -0.120  0.00  0.00     0.254 C 
HETATM    6  N   UNK N   1       4.567  -0.875   0.309  0.00  0.00    -0.378 N 
HETATM    7  N   UNK N   1       6.731  -2.341  -0.449  0.00  0.00    -0.345 N 
HETATM    8  O   UNK N   1       8.029  -4.075   0.151  0.00  0.00    -0.267 OA
ENDROOT
BRANCH   6   9
HETATM    9  C   UNK N   1       3.410  -0.052   0.168  0.00  0.00     0.030 A 
HETATM   10  C   UNK N   1       3.572   1.330  -0.029  0.00  0.00     0.031 A 
HETATM   11  C   UNK N   1       2.474   2.172  -0.136  0.00  0.00     0.032 A 
HETATM   12  C   UNK N   1       1.187   1.651  -0.050  0.00  0.00     0.041 A 
HETATM   13  C   UNK N   1       0.999   0.269   0.137  0.00  0.00    -0.029 A 
HETATM   14  N   UNK N   1       0.090   2.534  -0.148  0.00  0.00    -0.327 N 
HETATM   15  C   UNK N   1      -0.375  -0.320   0.229  0.00  0.00     0.050 A 
HETATM   16  C   UNK N   1       2.112  -0.579   0.249  0.00  0.00     0.038 A 
HETATM   17  C   UNK N   1      -1.546   0.666   0.111  0.00  0.00     0.108 A 
HETATM   18  C   UNK N   1      -1.193   2.117  -0.074  0.00  0.00     0.222 A 
HETATM   19  O   UNK N   1      -2.090   2.938  -0.160  0.00  0.00    -0.273 OA
HETATM   20  H   UNK N   1       0.267   3.494  -0.276  0.00  0.00     0.169 HD
ENDBRANCH   6   9
BRANCH   5  21
HETATM   21  C   UNK N   1       9.205  -2.049  -0.067  0.00  0.00     0.035 A 
HETATM   22  C   UNK N   1      10.470  -2.645  -0.061  0.00  0.00     0.020 A 
HETATM   23  C   UNK N   1      11.622  -1.849  -0.004  0.00  0.00     0.040 A 
HETATM   24  C   UNK N   1      11.543  -0.448   0.073  0.00  0.00     0.101 A 
HETATM   25  C   UNK N   1      10.253   0.161   0.077  0.00  0.00     0.102 A 
HETATM   26  C   UNK N   1       9.132  -0.655   0.018  0.00  0.00     0.056 A 
BRANCH  24  27
HETATM   27  O   UNK N   1      12.716   0.231   0.176  0.00  0.00    -0.353 OA
HETATM   28  C   UNK N   1      12.867   1.503   0.676  0.00  0.00     0.210 C 
ENDBRANCH  24  27
BRANCH  25  29
HETATM   29  O   UNK N   1      10.028   1.497   0.125  0.00  0.00    -0.353 OA
HETATM   30  C   UNK N   1      10.604   2.394  -0.742  0.00  0.00     0.210 C 
ENDBRANCH  25  29
ENDBRANCH   5  21
TORSDOF 4
