REMARK  10 active torsions:
REMARK  status: ('A' for Active; 'I' for Inactive)
REMARK    1  A    between atoms: N_2  and  C_4 
REMARK    2  A    between atoms: C_5  and  C_35 
REMARK    3  A    between atoms: C_6  and  N_32 
REMARK    4  A    between atoms: C_9  and  C_12 
REMARK    5  A    between atoms: C_12  and  C_13 
REMARK    6  A    between atoms: C_16  and  N_19 
REMARK       I    between atoms: N_19  and  C_20 
REMARK    7  A    between atoms: C_20  and  C_22 
REMARK    8  A    between atoms: C_25  and  C_28 
REMARK    9  A    between atoms: C_35  and  C_36 
REMARK   10  A    between atoms: C_36  and  O_38 
ROOT
HETATM    1  C   UNK N   1      -3.615  -7.112  -0.125  0.00  0.00    -0.051 A 
HETATM    2  C   UNK N   1      -3.302  -7.365  -1.462  0.00  0.00     0.010 A 
HETATM    3  C   UNK N   1      -3.519  -8.632  -1.985  0.00  0.00     0.030 A 
HETATM    4  C   UNK N   1      -4.034  -9.646  -1.176  0.00  0.00     0.035 A 
HETATM    5  C   UNK N   1      -4.219  -9.419   0.196  0.00  0.00     0.030 A 
HETATM    6  C   UNK N   1      -3.998  -8.151   0.722  0.00  0.00     0.010 A 
ENDROOT
BRANCH   1   7
HETATM    7  C   UNK N   1      -3.675  -5.715   0.372  0.00  0.00     0.115 C 
BRANCH   7   8
HETATM    8  C   UNK N   1      -2.342  -5.097   0.395  0.00  0.00     0.088 A 
HETATM    9  N   UNK N   1      -1.261  -5.869   0.593  0.00  0.00    -0.331 N 
HETATM   10  C   UNK N   1      -0.012  -5.366   0.685  0.00  0.00     0.114 A 
ATOM     11  HN  UNK N   1      -1.389  -6.877   0.678  1.00  0.00     0.168 HD
HETATM   12  C   UNK N   1       0.157  -3.948   0.577  0.00  0.00     0.040 A 
HETATM   13  C   UNK N   1      -1.013  -3.141   0.357  0.00  0.00     0.114 A 
HETATM   14  N   UNK N   1      -2.219  -3.763   0.277  0.00  0.00    -0.331 N 
ATOM     15  HN  UNK N   1      -3.056  -3.201   0.124  1.00  0.00     0.168 HD
BRANCH  10  16
HETATM   16  N   UNK N   1       1.052  -6.310   0.893  0.00  0.00    -0.375 N 
HETATM   17  C   UNK N   1       0.738  -7.717   0.962  0.00  0.00     0.150 C 
HETATM   18  C   UNK N   1       2.437  -5.945   1.025  0.00  0.00     0.150 C 
ENDBRANCH  10  16
BRANCH  12  19
HETATM   19  C   UNK N   1       1.522  -3.342   0.727  0.00  0.00     0.156 C 
BRANCH  19  20
HETATM   20  C   UNK N   1       2.190  -3.111  -0.590  0.00  0.00     0.143 C 
HETATM   21  O   UNK N   1       2.685  -2.024  -0.834  0.00  0.00    -0.650 OA
BRANCH  20  22
HETATM   22  O   UNK N   1       2.294  -4.110  -1.486  0.00  0.00    -0.776 OA
HETATM   23  H   UNK N   1       1.727  -4.520  -2.110  0.00  0.00     0.167 HD
ENDBRANCH  20  22
ENDBRANCH  19  20
ENDBRANCH  12  19
BRANCH  13  24
HETATM   24  N   UNK N   1      -1.006  -1.708   0.232  0.00  0.00    -0.375 N 
HETATM   25  C   UNK N   1      -2.252  -1.010   0.033  0.00  0.00     0.150 C 
HETATM   26  C   UNK N   1       0.184  -0.906   0.303  0.00  0.00     0.150 C 
ENDBRANCH  13  24
ENDBRANCH   7   8
ENDBRANCH   1   7
BRANCH   4  27
HETATM   27  N   UNK N   1      -4.840 -10.598  -1.828  0.00  0.00    -0.323 N 
HETATM   28  C   UNK N   1      -5.593 -11.548  -1.230  0.00  0.00     0.256 C 
HETATM   29  O   UNK N   1      -6.750 -11.675  -1.597  0.00  0.00    -0.267 OA
HETATM   30  H   UNK N   1      -4.857 -10.569  -2.812  0.00  0.00     0.169 HD
BRANCH  28  31
HETATM   31  C   UNK N   1      -5.004 -12.607  -0.389  0.00  0.00     0.032 A 
HETATM   32  C   UNK N   1      -3.623 -12.681  -0.154  0.00  0.00     0.018 A 
HETATM   33  C   UNK N   1      -3.065 -13.869   0.336  0.00  0.00     0.017 A 
HETATM   34  C   UNK N   1      -3.884 -14.988   0.563  0.00  0.00     0.048 A 
HETATM   35  C   UNK N   1      -5.264 -14.881   0.396  0.00  0.00     0.017 A 
HETATM   36  C   UNK N   1      -5.818 -13.700  -0.073  0.00  0.00     0.018 A 
BRANCH  34  37
HETATM   37  C   UNK N   1      -3.302 -16.331   0.871  0.00  0.00     0.417 C 
HETATM   38  F   UNK N   1      -3.603 -17.183  -0.180  0.00  0.00    -0.166 F 
HETATM   39  F   UNK N   1      -1.927 -16.266   1.004  0.00  0.00    -0.166 F 
HETATM   40  F   UNK N   1      -3.854 -16.837   2.032  0.00  0.00    -0.166 F 
ENDBRANCH  34  37
ENDBRANCH  28  31
ENDBRANCH   4  27
TORSDOF 10
