REMARK  8 active torsions:
REMARK  status: ('A' for Active; 'I' for Inactive)
REMARK    1  A    between atoms: C_3  and  C_13 
REMARK    2  A    between atoms: C_5  and  C_7 
REMARK       I    between atoms: C_7  and  N_9 
REMARK    3  A    between atoms: N_9  and  C_10 
REMARK    4  A    between atoms: C_10  and  C_11 
REMARK    5  A    between atoms: C_11  and  S_12 
REMARK       I    between atoms: C_13  and  N_15 
REMARK    6  A    between atoms: N_15  and  C_16 
REMARK    7  A    between atoms: C_16  and  C_17 
REMARK    8  A    between atoms: C_17  and  S_18 
ROOT
HETATM    1  C   UNK N   1      -4.491   2.796  -0.001  0.00  0.00     0.002 A 
HETATM    2  C   UNK N   1      -3.329   3.567   0.000  0.00  0.00     0.017 A 
HETATM    3  C   UNK N   1      -2.063   2.959   0.001  0.00  0.00     0.033 A 
HETATM    4  C   UNK N   1      -1.989   1.554   0.000  0.00  0.00     0.034 A 
HETATM    5  C   UNK N   1      -3.153   0.774  -0.000  0.00  0.00     0.033 A 
HETATM    6  C   UNK N   1      -4.402   1.406  -0.001  0.00  0.00     0.017 A 
ENDROOT
BRANCH   3   7
HETATM    7  C   UNK N   1      -0.845   3.830  -0.001  0.00  0.00     0.251 C 
HETATM    8  O   UNK N   1      -1.000   5.042  -0.006  0.00  0.00    -0.268 OA
HETATM    9  N   UNK N   1       0.428   3.348  -0.001  0.00  0.00    -0.356 N 
HETATM   10  H   UNK N   1       1.162   4.005  -0.015  0.00  0.00     0.162 HD
BRANCH   9  11
HETATM   11  C   UNK N   1       0.787   1.949   0.017  0.00  0.00     0.133 C 
BRANCH  11  12
HETATM   12  C   UNK N   1       2.299   1.710  -0.028  0.00  0.00     0.090 C 
BRANCH  12  13
HETATM   13  S   UNK N   1       3.326   3.218   0.017  0.00  0.00    -0.181 SA
HETATM   14  H   UNK N   1       4.682   3.118   0.051  0.00  0.00     0.101 HD
ENDBRANCH  12  13
ENDBRANCH  11  12
ENDBRANCH   9  11
ENDBRANCH   3   7
BRANCH   5  15
HETATM   15  C   UNK N   1      -3.083  -0.702  -0.000  0.00  0.00     0.251 C 
HETATM   16  O   UNK N   1      -2.003  -1.275  -0.000  0.00  0.00    -0.268 OA
HETATM   17  N   UNK N   1      -4.240  -1.408  -0.000  0.00  0.00    -0.356 N 
HETATM   18  H   UNK N   1      -5.088  -0.907   0.000  0.00  0.00     0.162 HD
BRANCH  17  19
HETATM   19  C   UNK N   1      -4.303  -2.844   0.000  0.00  0.00     0.133 C 
BRANCH  19  20
HETATM   20  C   UNK N   1      -5.768  -3.234   0.005  0.00  0.00     0.090 C 
BRANCH  20  21
HETATM   21  S   UNK N   1      -5.953  -5.035  -0.003  0.00  0.00    -0.181 SA
HETATM   22  H   UNK N   1      -7.193  -5.592  -0.008  0.00  0.00     0.101 HD
ENDBRANCH  20  21
ENDBRANCH  19  20
ENDBRANCH  17  19
ENDBRANCH   5  15
TORSDOF 8
