REMARK  7 active torsions:
REMARK  status: ('A' for Active; 'I' for Inactive)
REMARK    1  A    between atoms: C_9  and  C_8 
REMARK    2  A    between atoms: O_26  and  C_8 
REMARK    3  A    between atoms: C_17  and  C_11 
REMARK    4  A    between atoms: N_22  and  C_14 
REMARK    5  A    between atoms: N_22  and  C_16 
REMARK    6  A    between atoms: O_25  and  C_17 
REMARK    7  A    between atoms: N_23  and  O_26 
ROOT
HETATM    1  C   UNK N   1       1.145   7.898   0.176  0.00  0.00     0.021 A 
HETATM    2  C   UNK N   1       1.271   9.275   0.104  0.00  0.00     0.046 A 
HETATM    3  C   UNK N   1      -0.093   7.240   0.053  0.00  0.00     0.046 A 
HETATM    4  C   UNK N   1       0.157  10.056  -0.130  0.00  0.00     0.157 A 
HETATM    5  C   UNK N   1      -1.098   9.467  -0.271  0.00  0.00     0.182 A 
HETATM    6  C   UNK N   1      -1.265   8.054  -0.154  0.00  0.00     0.089 A 
HETATM    7  F   UNK N   1       0.295  11.399  -0.247  0.00  0.00    -0.203 F 
HETATM    8  F   UNK N   1      -2.131  10.286  -0.580  0.00  0.00    -0.200 F 
ENDROOT
BRANCH   3   9
HETATM    9  C   UNK N   1       0.031   5.727   0.104  0.00  0.00     0.172 C 
HETATM   10  N   UNK N   1      -0.924   4.864   0.221  0.00  0.00    -0.244 N 
ATOM     11  HN  UNK N   1      -0.667   3.879   0.159  1.00  0.00     0.196 HD
BRANCH  10  12
HETATM   12  O   UNK N   1      -2.191   5.136   0.412  0.00  0.00    -0.278 OA
BRANCH  12  13
HETATM   13  C   UNK N   1      -3.140   4.151   0.232  0.00  0.00     0.205 C 
BRANCH  13  14
HETATM   14  C   UNK N   1      -2.786   2.876   0.987  0.00  0.00     0.012 A 
HETATM   15  C   UNK N   1      -3.454   1.698   0.308  0.00  0.00     0.007 A 
HETATM   16  C   UNK N   1      -1.980   1.961   0.083  0.00  0.00     0.007 A 
ENDBRANCH  13  14
ENDBRANCH  12  13
ENDBRANCH  10  12
BRANCH   9  17
HETATM   17  O   UNK N   1       1.280   5.225   0.016  0.00  0.00    -0.344 OA
HETATM   18  H   UNK N   1       1.411   4.299  -0.045  0.00  0.00     0.219 HD
ENDBRANCH   9  17
ENDBRANCH   3   9
BRANCH   6  19
HETATM   19  N   UNK N   1      -2.555   7.464  -0.336  0.00  0.00    -0.352 N 
HETATM   20  H   UNK N   1      -2.567   6.543  -0.682  0.00  0.00     0.166 HD
BRANCH  19  21
HETATM   21  C   UNK N   1      -3.831   8.058  -0.073  0.00  0.00     0.054 A 
HETATM   22  C   UNK N   1      -3.968   9.154   0.798  0.00  0.00     0.032 A 
HETATM   23  C   UNK N   1      -5.216   9.743   1.016  0.00  0.00     0.020 A 
HETATM   24  C   UNK N   1      -6.349   9.228   0.387  0.00  0.00     0.008 A 
HETATM   25  C   UNK N   1      -6.237   8.112  -0.443  0.00  0.00     0.044 A 
HETATM   26  I   UNK N   1      -8.220  10.149   0.671  0.00  0.00    -0.045 I 
HETATM   27  C   UNK N   1      -4.989   7.521  -0.670  0.00  0.00     0.061 A 
HETATM   28 Cl   UNK N   1      -4.900   6.127  -1.732  0.00  0.00    -0.082 Cl
ENDBRANCH  19  21
ENDBRANCH   6  19
TORSDOF 7
