REMARK  2 active torsions:
REMARK  status: ('A' for Active; 'I' for Inactive)
REMARK    1  A    between atoms: O_1  and  O_3 
REMARK    2  A    between atoms: O_3  and  O_4 
ROOT
HETATM    1  O   UNK N   1       2.050  -1.280   0.000  0.00  0.00    -0.072 OA
ENDROOT
BRANCH   1   2
HETATM    2  O   UNK N   1       1.012  -0.553   0.000  0.00  0.00    -0.220 OA
ATOM      3  HO  UNK N   1       0.151  -0.956   0.000  1.00  0.00     0.256 HD
ENDBRANCH   1   2
BRANCH   1   4
HETATM    4  O   UNK N   1       3.094  -0.792   0.000  0.00  0.00    -0.220 OA
ATOM      5  HO  UNK N   1       3.872  -1.337   0.000  1.00  0.00     0.256 HD
ENDBRANCH   1   4
TORSDOF 2
