REMARK  17 active torsions:
REMARK  status: ('A' for Active; 'I' for Inactive)
REMARK    1  A    between atoms: O_2  and  C_3 
REMARK    2  A    between atoms: C_3  and  C_4 
REMARK    3  A    between atoms: C_4  and  O_5 
REMARK    4  A    between atoms: O_5  and  C_6 
REMARK    5  A    between atoms: C_6  and  C_7 
REMARK    6  A    between atoms: C_7  and  C_8 
REMARK    7  A    between atoms: C_8  and  C_9 
REMARK    8  A    between atoms: C_9  and  C_10 
REMARK    9  A    between atoms: C_10  and  C_11 
REMARK       I    between atoms: C_11  and  N_13 
REMARK   10  A    between atoms: N_13  and  C_14 
REMARK   11  A    between atoms: C_14  and  C_15 
REMARK   12  A    between atoms: C_15  and  C_16 
REMARK   13  A    between atoms: C_16  and  C_17 
REMARK   14  A    between atoms: C_17  and  C_18 
REMARK   15  A    between atoms: C_18  and  C_19 
REMARK   16  A    between atoms: C_18  and  N_22 
REMARK   17  A    between atoms: C_19  and  O_21 
ROOT
HETATM    1  C   UNK N   1      16.768   5.807  -0.241  0.00  0.00     0.217 C 
HETATM    2  O   UNK N   1      17.470   6.662   0.272  0.00  0.00    -0.274 OA
HETATM    3  N   UNK N   1      17.034   4.488  -0.060  0.00  0.00    -0.361 N 
HETATM    4  H   UNK N   1      16.439   3.825  -0.481  0.00  0.00     0.162 HD
ENDROOT
BRANCH   3   5
HETATM    5  C   UNK N   1      18.153   4.016   0.724  0.00  0.00     0.122 C 
BRANCH   5   6
HETATM    6  C   UNK N   1      19.462   4.339   0.023  0.00  0.00     0.020 C 
BRANCH   6   7
HETATM    7  C   UNK N   1      20.205   5.414   0.791  0.00  0.00     0.004 C 
BRANCH   7   8
HETATM    8  C   UNK N   1      20.733   6.451  -0.185  0.00  0.00     0.035 C 
BRANCH   8   9
HETATM    9  C   UNK N   1      22.134   6.900   0.207  0.00  0.00     0.173 C 
BRANCH   9  10
HETATM   10  C   UNK N   1      23.169   5.830  -0.026  0.00  0.00     0.163 C 
HETATM   11  O   UNK N   1      24.333   6.041   0.272  0.00  0.00    -0.648 OA
BRANCH  10  12
HETATM   12  O   UNK N   1      22.826   4.639  -0.558  0.00  0.00    -0.775 OA
HETATM   13  H   UNK N   1      21.990   4.432  -0.928  0.00  0.00     0.167 HD
ENDBRANCH  10  12
ENDBRANCH   9  10
BRANCH   9  14
HETATM   14  N   UNK N   1      22.482   8.084  -0.559  0.00  0.00    -0.418 N 
HETATM   15  H   UNK N   1      23.324   8.289  -1.097  0.00  0.00     0.150 HD
HETATM   16  H   UNK N   1      21.778   8.823  -0.559  0.00  0.00     0.150 HD
ENDBRANCH   9  14
ENDBRANCH   8   9
ENDBRANCH   7   8
ENDBRANCH   6   7
ENDBRANCH   5   6
ENDBRANCH   3   5
BRANCH   1  17
HETATM   17  C   UNK N   1      15.623   6.211  -1.116  0.00  0.00     0.103 C 
BRANCH  17  18
HETATM   18  C   UNK N   1      14.646   7.142  -0.409  0.00  0.00     0.009 C 
BRANCH  18  19
HETATM   19  C   UNK N   1      13.856   6.408   0.660  0.00  0.00     0.002 C 
BRANCH  19  20
HETATM   20  C   UNK N   1      12.430   6.926   0.699  0.00  0.00     0.026 C 
BRANCH  20  21
HETATM   21  C   UNK N   1      11.576   6.158  -0.296  0.00  0.00     0.167 C 
BRANCH  21  22
HETATM   22  O   UNK N   1      10.268   6.643  -0.266  0.00  0.00    -0.389 OA
BRANCH  22  23
HETATM   23  C   UNK N   1       9.483   5.558   0.128  0.00  0.00     0.193 C 
BRANCH  23  24
HETATM   24  C   UNK N   1       8.034   5.835  -0.224  0.00  0.00     0.193 C 
BRANCH  24  25
HETATM   25  O   UNK N   1       7.249   4.730   0.103  0.00  0.00    -0.394 OA
HETATM   26  C   UNK N   1       5.939   5.207   0.063  0.00  0.00     0.201 C 
ENDBRANCH  24  25
ENDBRANCH  23  24
ENDBRANCH  22  23
ENDBRANCH  21  22
ENDBRANCH  20  21
ENDBRANCH  19  20
ENDBRANCH  18  19
ENDBRANCH  17  18
ENDBRANCH   1  17
TORSDOF 17
