REMARK  5 active torsions:
REMARK  status: ('A' for Active; 'I' for Inactive)
REMARK    1  A    between atoms: C_3  and  C_8 
REMARK    2  A    between atoms: C_6  and  O_7 
REMARK    3  A    between atoms: C_8  and  C_9 
REMARK    4  A    between atoms: C_12  and  O_13 
REMARK    5  A    between atoms: C_19  and  O_20 
ROOT
HETATM    1  C   UNK N   1       1.365   1.876   0.264  0.00  0.00     0.114 C 
HETATM    2  C   UNK N   1       1.758   0.404   0.135  0.00  0.00    -0.026 A 
HETATM    3  C   UNK N   1       0.786  -0.594   0.240  0.00  0.00     0.049 A 
HETATM    4  C   UNK N   1       1.117  -1.943   0.118  0.00  0.00     0.099 A 
HETATM    5  N   UNK N   1       2.503   2.781   0.033  0.00  0.00    -0.412 N 
HETATM    6  C   UNK N   1       3.731   2.292   0.649  0.00  0.00     0.119 C 
HETATM    7  C   UNK N   1       4.193   1.044  -0.089  0.00  0.00     0.058 C 
HETATM    8  C   UNK N   1       3.105   0.021  -0.056  0.00  0.00    -0.045 A 
HETATM    9  C   UNK N   1       3.440  -1.333  -0.177  0.00  0.00     0.047 A 
HETATM   10  C   UNK N   1       2.448  -2.314  -0.100  0.00  0.00     0.099 A 
HETATM   11  H   UNK N   1       2.440   3.650  -0.497  0.00  0.00     0.153 HD
ENDROOT
BRANCH   1  12
HETATM   12  C   UNK N   1       0.280   2.297  -0.741  0.00  0.00     0.068 C 
BRANCH  12  13
HETATM   13  C   UNK N   1      -1.149   2.010  -0.369  0.00  0.00    -0.056 A 
HETATM   14  C   UNK N   1      -2.020   3.074  -0.102  0.00  0.00     0.010 A 
HETATM   15  C   UNK N   1      -3.373   2.828   0.166  0.00  0.00     0.037 A 
HETATM   16  C   UNK N   1      -3.862   1.517   0.156  0.00  0.00     0.065 A 
HETATM   17  C   UNK N   1      -3.000   0.455  -0.119  0.00  0.00     0.037 A 
HETATM   18  C   UNK N   1      -1.654   0.704  -0.391  0.00  0.00     0.010 A 
BRANCH  16  19
HETATM   19  O   UNK N   1      -5.160   1.279   0.403  0.00  0.00    -0.361 OA
HETATM   20  H   UNK N   1      -5.757   1.980   0.576  0.00  0.00     0.217 HD
ENDBRANCH  16  19
ENDBRANCH  12  13
ENDBRANCH   1  12
BRANCH   4  21
HETATM   21  O   UNK N   1       0.153  -2.874   0.206  0.00  0.00    -0.358 OA
HETATM   22  H   UNK N   1      -0.746  -2.616   0.267  0.00  0.00     0.217 HD
ENDBRANCH   4  21
BRANCH  10  23
HETATM   23  O   UNK N   1       2.777  -3.611  -0.226  0.00  0.00    -0.358 OA
HETATM   24  H   UNK N   1       2.108  -4.262  -0.313  0.00  0.00     0.217 HD
ENDBRANCH  10  23
TORSDOF 5
