REMARK  4 active torsions:
REMARK  status: ('A' for Active; 'I' for Inactive)
REMARK    1  A    between atoms: C_6  and  C_8 
REMARK    2  A    between atoms: C_9  and  C_10 
REMARK    3  A    between atoms: C_10  and  C_11 
REMARK    4  A    between atoms: C_11  and  C_12 
ROOT
HETATM    1  C   UNK N   1       1.165  -0.798  -0.009  0.00  0.00     0.027 A 
HETATM    2  C   UNK N   1       1.712   0.478  -0.032  0.00  0.00     0.123 A 
HETATM    3  N   UNK N   1       3.043   0.309   0.004  0.00  0.00    -0.314 N 
HETATM    4  C   UNK N   1       4.038   1.228  -0.018  0.00  0.00     0.140 A 
HETATM    5  C   UNK N   1       5.364   0.762   0.009  0.00  0.00     0.132 A 
HETATM    6  C   UNK N   1       5.616  -0.623   0.062  0.00  0.00     0.047 A 
HETATM    7  C   UNK N   1       4.554  -1.533   0.084  0.00  0.00     0.052 A 
HETATM    8  C   UNK N   1       3.270  -1.012   0.050  0.00  0.00     0.111 A 
HETATM    9  N   UNK N   1       2.143  -1.727   0.044  0.00  0.00    -0.344 N 
ATOM     10  HN  UNK N   1       2.044  -2.742   0.074  1.00  0.00     0.167 HD
HETATM   11  F   UNK N   1       6.397   1.634  -0.021  0.00  0.00    -0.205 F 
ENDROOT
BRANCH   1  12
HETATM   12  C   UNK N   1      -0.271  -1.137  -0.071  0.00  0.00     0.071 C 
BRANCH  12  13
HETATM   13  C   UNK N   1      -0.466  -2.648  -0.142  0.00  0.00     0.100 C 
BRANCH  13  14
HETATM   14  C   UNK N   1      -1.894  -2.830  -0.129  0.00  0.00    -0.099 C 
HETATM   15  C   UNK N   1      -3.075  -2.666  -0.105  0.00  0.00    -0.049 C 
BRANCH  15  16
HETATM   16  C   UNK N   1      -4.369  -2.097  -0.061  0.00  0.00     0.086 A 
HETATM   17  N   UNK N   1      -4.460  -0.742  -0.013  0.00  0.00    -0.359 N 
HETATM   18  C   UNK N   1      -5.657  -0.110   0.040  0.00  0.00     0.089 A 
ATOM     19  HN  UNK N   1      -3.605  -0.187  -0.016  1.00  0.00     0.166 HD
HETATM   20  C   UNK N   1      -6.834  -0.856   0.047  0.00  0.00     0.017 A 
HETATM   21  C   UNK N   1      -6.762  -2.251  -0.003  0.00  0.00     0.004 A 
HETATM   22  C   UNK N   1      -5.519  -2.884  -0.058  0.00  0.00     0.039 A 
ENDBRANCH  15  16
ENDBRANCH  13  14
ENDBRANCH  12  13
ENDBRANCH   1  12
TORSDOF 4
