REMARK  6 active torsions:
REMARK  status: ('A' for Active; 'I' for Inactive)
REMARK    1  A    between atoms: C_5  and  C_12 
REMARK    2  A    between atoms: C_12  and  N_13 
REMARK    3  A    between atoms: C_19  and  C_22 
REMARK    4  A    between atoms: N_26  and  C_28 
REMARK    5  A    between atoms: C_28  and  C_29 
REMARK    6  A    between atoms: C_29  and  O_30 
ROOT
HETATM    1  N   UNK N   1      -2.272   0.364   0.002  0.00  0.00    -0.253 N 
HETATM    2  C   UNK N   1      -1.053   0.859   0.001  0.00  0.00     0.167 A 
HETATM    3  C   UNK N   1      -1.108   2.187  -0.000  0.00  0.00     0.164 A 
HETATM    4  N   UNK N   1       0.018   2.949  -0.001  0.00  0.00    -0.346 N 
ATOM      5  HN  UNK N   1      -0.032   3.968  -0.002  1.00  0.00     0.167 HD
HETATM    6  C   UNK N   1       1.236   2.291  -0.001  0.00  0.00     0.120 A 
HETATM    7  C   UNK N   1       1.260   0.860   0.000  0.00  0.00     0.062 A 
HETATM    8  N   UNK N   1       0.087   0.179   0.002  0.00  0.00    -0.336 N 
ATOM      9  HN  UNK N   1       0.081  -0.841   0.003  1.00  0.00     0.168 HD
HETATM   10  N   UNK N   1      -2.406   2.552  -0.001  0.00  0.00    -0.266 N 
ATOM     11  HN  UNK N   1      -2.778   3.502  -0.002  1.00  0.00     0.186 HD
HETATM   12  N   UNK N   1      -3.105   1.409   0.001  0.00  0.00    -0.017 NA
ENDROOT
BRANCH   1  13
HETATM   13  C   UNK N   1      -2.540  -1.081   0.003  0.00  0.00     0.187 C 
BRANCH  13  14
HETATM   14  C   UNK N   1      -3.963  -1.507   0.002  0.00  0.00    -0.038 A 
HETATM   15  C   UNK N   1      -4.993  -0.574   0.002  0.00  0.00     0.022 A 
HETATM   16  C   UNK N   1      -6.310  -0.987   0.001  0.00  0.00    -0.009 A 
HETATM   17  C   UNK N   1      -7.331  -0.045   0.002  0.00  0.00     0.015 A 
HETATM   18  C   UNK N   1      -6.622  -2.361  -0.001  0.00  0.00     0.042 A 
HETATM   19  C   UNK N   1      -8.655  -0.474   0.000  0.00  0.00     0.018 A 
HETATM   20  C   UNK N   1      -8.935  -1.845  -0.002  0.00  0.00     0.088 A 
HETATM   21  N   UNK N   1      -7.922  -2.756  -0.003  0.00  0.00    -0.365 N 
ATOM     22  HN  UNK N   1      -8.143  -3.752  -0.004  1.00  0.00     0.165 HD
HETATM   23  C   UNK N   1      -5.592  -3.307  -0.002  0.00  0.00     0.031 A 
HETATM   24  C   UNK N   1      -4.260  -2.878  -0.000  0.00  0.00     0.011 A 
ENDBRANCH  13  14
ENDBRANCH   1  13
BRANCH   7  25
HETATM   25  C   UNK N   1       2.451   0.019  -0.000  0.00  0.00     0.026 A 
HETATM   26  C   UNK N   1       3.810   0.276  -0.003  0.00  0.00     0.122 A 
HETATM   27  N   UNK N   1       4.447  -0.924  -0.003  0.00  0.00    -0.309 N 
HETATM   28  N   UNK N   1       3.531  -1.883  -0.001  0.00  0.00    -0.301 N 
ATOM     29  HN  UNK N   1       5.458  -1.063  -0.005  1.00  0.00     0.186 HD
HETATM   30  C   UNK N   1       2.316  -1.343   0.001  0.00  0.00     0.125 A 
BRANCH  28  31
HETATM   31  C   UNK N   1       3.793  -3.323  -0.001  0.00  0.00     0.174 C 
BRANCH  31  32
HETATM   32  C   UNK N   1       2.476  -4.117   0.003  0.00  0.00     0.185 C 
BRANCH  32  33
HETATM   33  O   UNK N   1       2.716  -5.488  -0.000  0.00  0.00    -0.399 OA
HETATM   34  H   UNK N   1       1.973  -6.110  -0.002  0.00  0.00     0.209 HD
ENDBRANCH  32  33
ENDBRANCH  31  32
ENDBRANCH  28  31
ENDBRANCH   7  25
TORSDOF 6
