REMARK  11 active torsions:
REMARK  status: ('A' for Active; 'I' for Inactive)
REMARK    1  A    between atoms: C_13  and  C_12 
REMARK    2  A    between atoms: N_35  and  C_12 
REMARK    3  A    between atoms: N_38  and  C_13 
REMARK    4  A    between atoms: C_25  and  O_44 
REMARK    5  A    between atoms: C_26  and  O_45 
REMARK    6  A    between atoms: N_35  and  C_27 
REMARK    7  A    between atoms: C_28  and  O_40 
REMARK    8  A    between atoms: C_30  and  O_46 
REMARK    9  A    between atoms: O_42  and  C_31 
REMARK   10  A    between atoms: O_43  and  C_32 
REMARK   11  A    between atoms: O_46  and  C_32 
ROOT
HETATM    1  C   UNK N   1       6.099  -7.444   0.156  0.00  0.00     0.010 C 
HETATM    2  C   UNK N   1      11.066   1.835  -0.459  0.00  0.00     0.052 C 
HETATM    3  C   UNK N   1      10.105  -5.353   2.158  0.00  0.00     0.017 C 
HETATM    4  C   UNK N   1      11.487  -4.042  -1.384  0.00  0.00     0.046 C 
HETATM    5  C   UNK N   1      13.182  -0.181  -0.078  0.00  0.00    -0.001 C 
HETATM    6  C   UNK N   1      11.743  -0.548  -0.171  0.00  0.00     0.011 C 
HETATM    7  C   UNK N   1      14.165  -1.019   0.328  0.00  0.00     0.008 C 
HETATM    8  C   UNK N   1       7.027  -5.502   1.349  0.00  0.00     0.049 C 
HETATM    9  C   UNK N   1       8.365  -7.589   1.183  0.00  0.00     0.039 C 
HETATM   10  C   UNK N   1      12.140  -5.061   0.815  0.00  0.00    -0.015 C 
HETATM   11  C   UNK N   1       6.618  -1.331  -0.015  0.00  0.00     0.090 C 
HETATM   12  C   UNK N   1       7.373  -6.669   0.432  0.00  0.00    -0.012 C 
HETATM   13  C   UNK N   1      10.752   0.374  -0.356  0.00  0.00    -0.011 C 
HETATM   14  C   UNK N   1      10.837  -5.826   0.909  0.00  0.00     0.035 C 
HETATM   15  C   UNK N   1      12.431  -4.238  -0.232  0.00  0.00    -0.055 C 
HETATM   16  C   UNK N   1       6.772  -4.136   0.732  0.00  0.00     0.025 C 
HETATM   17  C   UNK N   1       7.795  -1.963  -0.157  0.00  0.00     0.089 C 
HETATM   18  C   UNK N   1       5.416  -2.113   0.381  0.00  0.00     0.201 C 
HETATM   19  C   UNK N   1      13.988  -2.475   0.797  0.00  0.00     0.177 C 
HETATM   20  C   UNK N   1       9.613  -8.016   0.368  0.00  0.00     0.150 C 
HETATM   21  C   UNK N   1       5.576  -3.533   0.864  0.00  0.00     0.089 C 
HETATM   22  C   UNK N   1      10.943  -7.364   0.871  0.00  0.00     0.154 C 
HETATM   23  C   UNK N   1       7.865  -3.400   0.073  0.00  0.00     0.207 C 
HETATM   24  C   UNK N   1      13.780  -3.558  -0.327  0.00  0.00     0.193 C 
HETATM   25  C   UNK N   1       9.320  -0.048  -0.366  0.00  0.00     0.146 C 
HETATM   26  N   UNK N   1       9.046  -1.302  -0.329  0.00  0.00    -0.333 N 
ATOM     27  HN  UNK N   1       9.849  -1.922  -0.439  1.00  0.00     0.168 HD
HETATM   28  O   UNK N   1       4.333  -1.550   0.433  0.00  0.00    -0.286 OA
HETATM   29  O   UNK N   1       8.881  -3.973  -0.239  0.00  0.00    -0.285 OA
ENDROOT
BRANCH  21  30
HETATM   30  N   UNK N   1       4.514  -4.257   1.477  0.00  0.00    -0.385 N 
HETATM   31  H   UNK N   1       4.738  -5.006   2.075  0.00  0.00     0.159 HD
BRANCH  30  32
HETATM   32  C   UNK N   1       3.131  -3.941   1.261  0.00  0.00     0.150 C 
BRANCH  32  33
HETATM   33  C   UNK N   1       2.794  -4.245  -0.203  0.00  0.00     0.290 C 
BRANCH  33  34
HETATM   34  N   UNK N   1       1.459  -3.804  -0.603  0.00  0.00     0.081 N 
HETATM   35  C   UNK N   1       0.454  -4.550   0.136  0.00  0.00     0.309 C 
HETATM   36  C   UNK N   1       1.289  -2.384  -0.329  0.00  0.00     0.309 C 
ENDBRANCH  33  34
ENDBRANCH  32  33
ENDBRANCH  30  32
ENDBRANCH  21  30
BRANCH  20  37
HETATM   37  O   UNK N   1       9.758  -9.418   0.423  0.00  0.00    -0.388 OA
HETATM   38  C   UNK N   1       8.899  -9.993  -0.528  0.00  0.00     0.202 C 
ENDBRANCH  20  37
BRANCH  25  39
HETATM   39  O   UNK N   1       8.338   0.881  -0.332  0.00  0.00    -0.346 OA
HETATM   40  H   UNK N   1       8.556   1.792  -0.308  0.00  0.00     0.219 HD
ENDBRANCH  25  39
BRANCH  22  41
HETATM   41  O   UNK N   1      11.950  -7.733  -0.028  0.00  0.00    -0.392 OA
HETATM   42  H   UNK N   1      12.078  -8.465  -0.651  0.00  0.00     0.210 HD
ENDBRANCH  22  41
BRANCH  24  43
HETATM   43  O   UNK N   1      14.767  -4.535  -0.235  0.00  0.00    -0.304 OA
BRANCH  43  44
HETATM   44  C   UNK N   1      14.827  -5.700  -0.938  0.00  0.00     0.256 C 
HETATM   45  N   UNK N   1      15.754  -6.542  -0.674  0.00  0.00    -0.359 N 
HETATM   46  H   UNK N   1      15.550  -7.484  -0.471  0.00  0.00     0.160 HD
ATOM     47  HN  UNK N   1      16.726  -6.231  -0.674  1.00  0.00     0.160 HD
BRANCH  44  48
HETATM   48  O   UNK N   1      13.882  -6.020  -1.846  0.00  0.00    -0.327 OA
HETATM   49  H   UNK N   1      13.362  -5.562  -2.477  0.00  0.00     0.221 HD
ENDBRANCH  44  48
ENDBRANCH  43  44
ENDBRANCH  24  43
BRANCH  19  50
HETATM   50  O   UNK N   1      14.998  -2.856   1.722  0.00  0.00    -0.384 OA
HETATM   51  C   UNK N   1      16.278  -2.742   1.145  0.00  0.00     0.202 C 
ENDBRANCH  19  50
TORSDOF 11
