REMARK  8 active torsions:
REMARK  status: ('A' for Active; 'I' for Inactive)
REMARK    1  A    between atoms: C_27  and  C_17 
REMARK    2  A    between atoms: N_31  and  C_18 
REMARK    3  A    between atoms: O_38  and  C_19 
REMARK    4  A    between atoms: S_39  and  C_20 
REMARK    5  A    between atoms: S_39  and  C_21 
REMARK    6  A    between atoms: C_26  and  C_23 
REMARK    7  A    between atoms: N_31  and  C_25 
REMARK    8  A    between atoms: O_34  and  C_26 
REMARK       I    between atoms: N_33  and  C_27 
ROOT
HETATM    1  C   UNK N   1       2.205  -2.353  -0.455  0.00  0.00     0.050 C 
HETATM    2  C   UNK N   1       0.803  -0.384   0.114  0.00  0.00     0.032 A 
HETATM    3  C   UNK N   1       1.771   1.691   0.787  0.00  0.00     0.039 A 
HETATM    4  C   UNK N   1       5.552   0.281   0.111  0.00  0.00     0.106 A 
HETATM    5  C   UNK N   1       2.083  -0.946   0.009  0.00  0.00    -0.033 A 
HETATM    6  C   UNK N   1       0.693   0.938   0.526  0.00  0.00     0.061 A 
HETATM    7  C   UNK N   1       3.028   1.220   0.596  0.00  0.00     0.020 A 
HETATM    8  C   UNK N   1       5.371   1.648   0.370  0.00  0.00     0.057 A 
HETATM    9  C   UNK N   1       3.216  -0.118   0.240  0.00  0.00     0.050 A 
HETATM   10  C   UNK N   1       4.091   2.141   0.670  0.00  0.00     0.061 A 
HETATM   11  N   UNK N   1       4.488  -0.576   0.054  0.00  0.00    -0.364 N 
HETATM   12  H   UNK N   1       4.641  -1.533  -0.124  0.00  0.00     0.165 HD
ENDROOT
BRANCH   6  13
HETATM   13  S   UNK N   1      -0.753   1.837   0.506  0.00  0.00     0.186 S 
HETATM   14  O   UNK N   1      -1.793   1.013   1.278  0.00  0.00    -0.222 OA
HETATM   15  O   UNK N   1      -0.545   2.930   1.576  0.00  0.00    -0.222 OA
BRANCH  13  16
HETATM   16  C   UNK N   1      -1.495   2.679  -0.873  0.00  0.00     0.160 C 
HETATM   17  C   UNK N   1      -1.260   4.057  -0.763  0.00  0.00    -0.003 C 
HETATM   18  C   UNK N   1      -2.160   4.851  -0.058  0.00  0.00    -0.001 C 
HETATM   19  C   UNK N   1      -3.349   4.276   0.373  0.00  0.00     0.016 C 
HETATM   20  C   UNK N   1      -3.683   2.978  -0.071  0.00  0.00     0.029 C 
HETATM   21  C   UNK N   1      -2.785   2.249  -0.818  0.00  0.00     0.014 C 
BRANCH  20  22
HETATM   22  C   UNK N   1      -4.955   2.368   0.230  0.00  0.00     0.252 C 
HETATM   23  N   UNK N   1      -6.102   3.079   0.184  0.00  0.00    -0.357 N 
HETATM   24  C   UNK N   1      -7.368   2.438   0.343  0.00  0.00     0.152 C 
HETATM   25  C   UNK N   1      -6.089   4.474  -0.218  0.00  0.00     0.152 C 
HETATM   26  O   UNK N   1      -4.996   1.146   0.448  0.00  0.00    -0.268 OA
ENDBRANCH  20  22
ENDBRANCH  13  16
ENDBRANCH   6  13
BRANCH  10  27
HETATM   27  N   UNK N   1       3.929   3.410   0.810  0.00  0.00    -0.355 N 
ATOM     28  HN  UNK N   1       4.612   3.922   1.367  1.00  0.00     0.166 HD
BRANCH  27  29
HETATM   29  C   UNK N   1       2.850   4.144   0.231  0.00  0.00     0.035 A 
HETATM   30  C   UNK N   1       2.412   3.730  -1.039  0.00  0.00     0.029 A 
HETATM   31  C   UNK N   1       1.536   4.494  -1.780  0.00  0.00     0.005 A 
HETATM   32  C   UNK N   1       1.098   5.706  -1.272  0.00  0.00     0.037 A 
HETATM   33  C   UNK N   1       1.525   6.155  -0.011  0.00  0.00     0.070 A 
HETATM   34  C   UNK N   1       2.432   5.379   0.735  0.00  0.00     0.066 A 
BRANCH  33  35
HETATM   35  O   UNK N   1       1.073   7.327   0.489  0.00  0.00    -0.356 OA
HETATM   36  C   UNK N   1       0.094   8.068  -0.140  0.00  0.00     0.210 C 
ENDBRANCH  33  35
ENDBRANCH  27  29
ENDBRANCH  10  27
BRANCH   8  37
HETATM   37  C   UNK N   1       6.452   2.622   0.016  0.00  0.00     0.147 C 
HETATM   38  N   UNK N   1       6.170   3.827  -0.322  0.00  0.00    -0.379 N 
HETATM   39  H   UNK N   1       6.863   4.476  -0.582  0.00  0.00     0.158 HD
ATOM     40  HN  UNK N   1       5.194   4.122  -0.322  1.00  0.00     0.158 HD
BRANCH  37  41
HETATM   41  O   UNK N   1       7.710   2.184  -0.158  0.00  0.00    -0.346 OA
HETATM   42  H   UNK N   1       7.883   1.271  -0.279  0.00  0.00     0.219 HD
ENDBRANCH  37  41
ENDBRANCH   8  37
TORSDOF 8
