REMARK  13 active torsions:
REMARK  status: ('A' for Active; 'I' for Inactive)
REMARK    1  A    between atoms: C_3  and  O_26 
REMARK    2  A    between atoms: C_4  and  O_24 
REMARK    3  A    between atoms: C_6  and  C_7 
REMARK    4  A    between atoms: C_7  and  C_8 
REMARK    5  A    between atoms: C_8  and  C_9 
REMARK    6  A    between atoms: C_8  and  C_22 
REMARK    7  A    between atoms: C_9  and  C_10 
REMARK    8  A    between atoms: C_9  and  C_20 
REMARK    9  A    between atoms: C_10  and  C_11 
REMARK   10  A    between atoms: C_12  and  O_17 
REMARK   11  A    between atoms: C_16  and  O_19 
REMARK   12  A    between atoms: C_20  and  O_21 
REMARK   13  A    between atoms: C_22  and  O_23 
ROOT
HETATM    1  C   UNK N   1       5.390  -6.686   0.556  0.00  0.00     0.020 C 
ENDROOT
BRANCH   1   2
HETATM    2  C   UNK N   1       4.469  -6.423  -0.643  0.00  0.00     0.045 C 
BRANCH   2   3
HETATM    3  C   UNK N   1       3.135  -7.045  -0.418  0.00  0.00    -0.055 A 
HETATM    4  C   UNK N   1       2.990  -8.430  -0.505  0.00  0.00     0.046 A 
HETATM    5  C   UNK N   1       1.771  -9.046  -0.221  0.00  0.00     0.101 A 
HETATM    6  C   UNK N   1       0.667  -8.236   0.155  0.00  0.00     0.099 A 
HETATM    7  C   UNK N   1       0.815  -6.846   0.223  0.00  0.00     0.040 A 
HETATM    8  C   UNK N   1       2.045  -6.251  -0.060  0.00  0.00     0.010 A 
BRANCH   5   9
HETATM    9  O   UNK N   1       1.719 -10.400  -0.308  0.00  0.00    -0.353 OA
HETATM   10  C   UNK N   1       0.629 -11.178   0.005  0.00  0.00     0.210 C 
ENDBRANCH   5   9
BRANCH   6  11
HETATM   11  O   UNK N   1      -0.528  -8.774   0.451  0.00  0.00    -0.358 OA
HETATM   12  H   UNK N   1      -1.270  -8.240   0.657  0.00  0.00     0.217 HD
ENDBRANCH   6  11
ENDBRANCH   2   3
ENDBRANCH   1   2
BRANCH   1  13
HETATM   13  C   UNK N   1       6.651  -5.824   0.556  0.00  0.00     0.020 C 
BRANCH  13  14
HETATM   14  C   UNK N   1       7.571  -6.087  -0.644  0.00  0.00     0.045 C 
BRANCH  14  15
HETATM   15  C   UNK N   1       8.906  -5.466  -0.418  0.00  0.00    -0.055 A 
HETATM   16  C   UNK N   1       9.051  -4.080  -0.505  0.00  0.00     0.046 A 
HETATM   17  C   UNK N   1      10.270  -3.464  -0.221  0.00  0.00     0.101 A 
HETATM   18  C   UNK N   1      11.373  -4.274   0.156  0.00  0.00     0.099 A 
HETATM   19  C   UNK N   1      11.225  -5.664   0.225  0.00  0.00     0.040 A 
HETATM   20  C   UNK N   1       9.995  -6.260  -0.059  0.00  0.00     0.010 A 
BRANCH  17  21
HETATM   21  O   UNK N   1      10.321  -2.110  -0.308  0.00  0.00    -0.353 OA
HETATM   22  C   UNK N   1      11.411  -1.333   0.006  0.00  0.00     0.210 C 
ENDBRANCH  17  21
BRANCH  18  23
HETATM   23  O   UNK N   1      12.568  -3.736   0.452  0.00  0.00    -0.358 OA
HETATM   24  H   UNK N   1      13.310  -4.270   0.659  0.00  0.00     0.217 HD
ENDBRANCH  18  23
ENDBRANCH  14  15
ENDBRANCH  13  14
BRANCH  13  25
HETATM   25  C   UNK N   1       6.328  -4.344   0.779  0.00  0.00     0.169 C 
BRANCH  25  26
HETATM   26  O   UNK N   1       5.743  -3.775  -0.353  0.00  0.00    -0.400 OA
HETATM   27  H   UNK N   1       5.882  -3.225  -1.140  0.00  0.00     0.209 HD
ENDBRANCH  25  26
ENDBRANCH  13  25
ENDBRANCH   1  13
BRANCH   1  28
HETATM   28  C   UNK N   1       5.713  -8.167   0.778  0.00  0.00     0.169 C 
BRANCH  28  29
HETATM   29  O   UNK N   1       6.298  -8.736  -0.354  0.00  0.00    -0.400 OA
HETATM   30  H   UNK N   1       6.159  -9.286  -1.141  0.00  0.00     0.209 HD
ENDBRANCH  28  29
ENDBRANCH   1  28
TORSDOF 13
