REMARK  7 active torsions:
REMARK  status: ('A' for Active; 'I' for Inactive)
REMARK    1  A    between atoms: C_3  and  C_9 
REMARK    2  A    between atoms: C_4  and  N_8 
REMARK    3  A    between atoms: C_9  and  C_11 
REMARK    4  A    between atoms: C_11  and  C_12 
REMARK    5  A    between atoms: C_12  and  C_13 
REMARK    6  A    between atoms: C_12  and  N_16 
REMARK    7  A    between atoms: C_13  and  O_15 
ROOT
HETATM    1  C   UNK N   1      -1.508   3.269   0.226  0.00  0.00     0.164 C 
HETATM    2  O   UNK N   1      -1.693   4.466   0.052  0.00  0.00    -0.292 OA
ENDROOT
BRANCH   1   3
HETATM    3  C   UNK N   1      -2.650   2.316   0.089  0.00  0.00     0.036 A 
HETATM    4  C   UNK N   1      -3.942   2.843  -0.078  0.00  0.00     0.019 A 
HETATM    5  C   UNK N   1      -5.054   2.002  -0.168  0.00  0.00     0.025 A 
HETATM    6  C   UNK N   1      -4.890   0.619  -0.101  0.00  0.00     0.036 A 
HETATM    7  C   UNK N   1      -3.615   0.075   0.044  0.00  0.00     0.053 A 
HETATM    8 Cl   UNK N   1      -6.282  -0.438  -0.189  0.00  0.00    -0.084 Cl
HETATM    9  C   UNK N   1      -2.495   0.904   0.141  0.00  0.00     0.041 A 
BRANCH   9  10
HETATM   10  N   UNK N   1      -1.228   0.301   0.276  0.00  0.00    -0.398 N 
HETATM   11  H   UNK N   1      -1.151  -0.676   0.370  0.00  0.00     0.156 HD
HETATM   12  H   UNK N   1      -0.417   0.859   0.276  0.00  0.00     0.156 HD
ENDBRANCH   9  10
ENDBRANCH   1   3
BRANCH   1  13
HETATM   13  C   UNK N   1      -0.152   2.803   0.663  0.00  0.00     0.119 C 
BRANCH  13  14
HETATM   14  C   UNK N   1       0.926   3.049  -0.376  0.00  0.00     0.180 C 
BRANCH  14  15
HETATM   15  C   UNK N   1       2.038   2.061  -0.160  0.00  0.00     0.163 C 
HETATM   16  O   UNK N   1       3.166   2.436   0.117  0.00  0.00    -0.648 OA
BRANCH  15  17
HETATM   17  O   UNK N   1       1.785   0.742  -0.273  0.00  0.00    -0.775 OA
HETATM   18  H   UNK N   1       0.903   0.436  -0.351  0.00  0.00     0.167 HD
ENDBRANCH  15  17
ENDBRANCH  14  15
BRANCH  14  19
HETATM   19  N   UNK N   1       1.409   4.418  -0.262  0.00  0.00    -0.417 N 
HETATM   20  H   UNK N   1       2.409   4.605  -0.182  0.00  0.00     0.150 HD
HETATM   21  H   UNK N   1       0.745   5.193  -0.262  0.00  0.00     0.150 HD
ENDBRANCH  14  19
ENDBRANCH  13  14
ENDBRANCH   1  13
TORSDOF 7
