REMARK  19 active torsions:
REMARK  status: ('A' for Active; 'I' for Inactive)
REMARK    1  A    between atoms: N_1  and  C_2 
REMARK    2  A    between atoms: C_2  and  C_3 
REMARK    3  A    between atoms: C_3  and  C_4 
REMARK    4  A    between atoms: C_4  and  N_5 
REMARK    5  A    between atoms: N_5  and  C_6 
REMARK    6  A    between atoms: C_6  and  C_7 
REMARK    7  A    between atoms: C_7  and  C_8 
REMARK    8  A    between atoms: C_8  and  C_9 
REMARK    9  A    between atoms: C_9  and  N_10 
REMARK       I    between atoms: N_10  and  C_11 
REMARK   10  A    between atoms: C_11  and  C_13 
REMARK   11  A    between atoms: C_13  and  O_14 
REMARK   12  A    between atoms: C_13  and  N_15 
REMARK       I    between atoms: N_15  and  C_16 
REMARK   13  A    between atoms: C_16  and  C_18 
REMARK   14  A    between atoms: C_18  and  C_19 
REMARK   15  A    between atoms: C_19  and  C_20 
REMARK   16  A    between atoms: C_20  and  C_21 
REMARK   17  A    between atoms: C_21  and  C_22 
REMARK   18  A    between atoms: C_22  and  C_23 
REMARK   19  A    between atoms: C_23  and  N_24 
REMARK       I    between atoms: N_24  and  C_25 
REMARK       I    between atoms: C_25  and  N_28 
ROOT
HETATM    1  C   UNK N   1      19.546   6.047   0.520  0.00  0.00     0.314 C 
ENDROOT
BRANCH   1   2
HETATM    2  C   UNK N   1      18.867   7.243  -0.089  0.00  0.00     0.266 C 
HETATM    3  N   UNK N   1      17.694   7.656   0.441  0.00  0.00    -0.357 N 
HETATM    4  H   UNK N   1      17.358   7.201   1.247  0.00  0.00     0.162 HD
HETATM    5  O   UNK N   1      19.345   7.811  -1.065  0.00  0.00    -0.269 OA
BRANCH   3   6
HETATM    6  C   UNK N   1      16.912   8.730  -0.117  0.00  0.00     0.123 C 
BRANCH   6   7
HETATM    7  C   UNK N   1      15.570   8.179  -0.574  0.00  0.00     0.021 C 
BRANCH   7   8
HETATM    8  C   UNK N   1      14.795   7.611   0.607  0.00  0.00     0.021 C 
BRANCH   8   9
HETATM    9  C   UNK N   1      13.866   6.498   0.154  0.00  0.00     0.113 C 
BRANCH   9  10
HETATM   10  N   UNK N   1      12.793   7.046  -0.655  0.00  0.00    -0.421 N 
HETATM   11  H   UNK N   1      12.896   7.650  -1.471  0.00  0.00     0.153 HD
BRANCH  10  12
HETATM   12  C   UNK N   1      11.545   6.574  -0.084  0.00  0.00     0.115 C 
BRANCH  12  13
HETATM   13  C   UNK N   1      10.529   7.694  -0.139  0.00  0.00     0.038 C 
BRANCH  13  14
HETATM   14  C   UNK N   1       9.152   7.156   0.181  0.00  0.00     0.112 C 
BRANCH  14  15
HETATM   15  N   UNK N   1       8.184   8.232   0.077  0.00  0.00    -0.430 N 
HETATM   16  H   UNK N   1       8.498   9.199   0.003  0.00  0.00     0.149 HD
HETATM   17  H   UNK N   1       7.186   8.020   0.077  0.00  0.00     0.149 HD
ENDBRANCH  14  15
ENDBRANCH  13  14
ENDBRANCH  12  13
ENDBRANCH  10  12
ENDBRANCH   9  10
ENDBRANCH   8   9
ENDBRANCH   7   8
ENDBRANCH   6   7
ENDBRANCH   3   6
ENDBRANCH   1   2
BRANCH   1  18
HETATM   18  O   UNK N   1      18.669   4.963   0.459  0.00  0.00    -0.368 OA
HETATM   19  H   UNK N   1      17.712   5.114   0.416  0.00  0.00     0.212 HD
ENDBRANCH   1  18
BRANCH   1  20
HETATM   20  N   UNK N   1      20.782   5.678  -0.137  0.00  0.00    -0.327 N 
HETATM   21  C   UNK N   1      21.931   6.395  -0.071  0.00  0.00     0.219 C 
HETATM   22  O   UNK N   1      22.936   5.954  -0.602  0.00  0.00    -0.274 OA
HETATM   23  H   UNK N   1      20.789   4.849  -0.668  0.00  0.00     0.165 HD
BRANCH  21  24
HETATM   24  C   UNK N   1      22.009   7.697   0.671  0.00  0.00     0.103 C 
BRANCH  24  25
HETATM   25  C   UNK N   1      22.552   8.781  -0.252  0.00  0.00     0.009 C 
BRANCH  25  26
HETATM   26  C   UNK N   1      23.637   9.593   0.447  0.00  0.00     0.001 C 
BRANCH  26  27
HETATM   27  C   UNK N   1      24.839   8.729   0.813  0.00  0.00     0.002 C 
BRANCH  27  28
HETATM   28  C   UNK N   1      25.725   8.481  -0.393  0.00  0.00     0.020 C 
BRANCH  28  29
HETATM   29  C   UNK N   1      26.599   7.268  -0.133  0.00  0.00     0.138 C 
BRANCH  29  30
HETATM   30  N   UNK N   1      27.990   7.642  -0.148  0.00  0.00    -0.227 N 
HETATM   31  C   UNK N   1      29.014   6.670  -0.010  0.00  0.00     0.665 C 
HETATM   32  N   UNK N   1      30.241   7.034  -0.021  0.00  0.00    -0.235 N 
HETATM   33  N   UNK N   1      28.691   5.299   0.118  0.00  0.00    -0.235 N 
HETATM   34  H   UNK N   1      30.956   6.356  -0.030  0.00  0.00     0.174 HD
ATOM     35  HN  UNK N   1      30.479   8.025  -0.021  1.00  0.00     0.174 HD
HETATM   36  H   UNK N   1      27.753   5.016   0.207  0.00  0.00     0.174 HD
HETATM   37  H   UNK N   1      29.409   4.624   0.118  0.00  0.00     0.174 HD
HETATM   38  H   UNK N   1      28.235   8.589  -0.257  0.00  0.00     0.177 HD
ENDBRANCH  29  30
ENDBRANCH  28  29
ENDBRANCH  27  28
ENDBRANCH  26  27
ENDBRANCH  25  26
ENDBRANCH  24  25
ENDBRANCH  21  24
ENDBRANCH   1  20
TORSDOF 19
