REMARK  4 active torsions:
REMARK  status: ('A' for Active; 'I' for Inactive)
REMARK    1  A    between atoms: C_12  and  C_10 
REMARK    2  A    between atoms: C_13  and  C_11 
REMARK    3  A    between atoms: C_16  and  C_11 
REMARK    4  A    between atoms: O_19  and  C_16 
ROOT
HETATM    1  C   UNK N   1      -3.966   4.201  -0.012  0.00  0.00     0.012 A 
HETATM    2  C   UNK N   1      -2.887   2.045  -0.023  0.00  0.00     0.012 A 
HETATM    3  C   UNK N   1      -5.215   3.570  -0.004  0.00  0.00     0.009 A 
HETATM    4  C   UNK N   1      -4.128   1.415  -0.014  0.00  0.00     0.009 A 
HETATM    5  C   UNK N   1      -2.787   3.442  -0.024  0.00  0.00    -0.036 A 
HETATM    6  C   UNK N   1      -5.305   2.169  -0.005  0.00  0.00    -0.044 A 
ENDROOT
BRANCH   5   7
HETATM    7  C   UNK N   1      -1.472   4.147  -0.012  0.00  0.00     0.022 C 
HETATM    8  C   UNK N   1      -0.250   3.546  -0.025  0.00  0.00    -0.011 C 
HETATM    9  C   UNK N   1      -0.112   2.040  -0.083  0.00  0.00     0.042 C 
HETATM   10  C   UNK N   1       0.994   4.378   0.022  0.00  0.00     0.155 C 
HETATM   11  C   UNK N   1       1.243   1.532   0.383  0.00  0.00     0.005 C 
HETATM   12  C   UNK N   1       2.345   2.268  -0.351  0.00  0.00     0.008 C 
HETATM   13  C   UNK N   1       2.359   3.742   0.041  0.00  0.00     0.083 C 
HETATM   14  O   UNK N   1       0.920   5.597   0.075  0.00  0.00    -0.293 OA
ENDBRANCH   5   7
BRANCH   6  15
HETATM   15  C   UNK N   1      -6.636   1.460   0.004  0.00  0.00     0.112 C 
HETATM   16  C   UNK N   1      -6.658  -0.066   0.001  0.00  0.00     0.026 C 
BRANCH  15  17
HETATM   17  C   UNK N   1      -7.962   2.181   0.002  0.00  0.00     0.148 C 
HETATM   18  O   UNK N   1      -8.999   1.548   0.001  0.00  0.00    -0.649 OA
BRANCH  17  19
HETATM   19  O   UNK N   1      -8.009   3.530  -0.000  0.00  0.00    -0.776 OA
HETATM   20  H   UNK N   1      -7.215   4.026  -0.002  0.00  0.00     0.167 HD
ENDBRANCH  17  19
ENDBRANCH  15  17
ENDBRANCH   6  15
TORSDOF 4
