REMARK  7 active torsions:
REMARK  status: ('A' for Active; 'I' for Inactive)
REMARK    1  A    between atoms: N_2  and  C_4 
REMARK    2  A    between atoms: C_4  and  C_7 
REMARK    3  A    between atoms: C_10  and  C_13 
REMARK       I    between atoms: C_13  and  N_15 
REMARK    4  A    between atoms: N_15  and  C_16 
REMARK    5  A    between atoms: C_19  and  O_33 
REMARK    6  A    between atoms: C_21  and  C_22 
REMARK       I    between atoms: C_22  and  N_24 
REMARK    7  A    between atoms: N_24  and  C_25 
ROOT
HETATM    1  C   UNK N   1      -2.321  -7.672   0.607  0.00  0.00     0.147 C 
HETATM    2  C   UNK N   1      -2.070  -8.864   1.307  0.00  0.00     0.006 C 
HETATM    3  C   UNK N   1      -2.244 -10.098   0.661  0.00  0.00     0.035 C 
HETATM    4  C   UNK N   1      -2.905 -10.136  -0.577  0.00  0.00     0.068 C 
HETATM    5  C   UNK N   1      -3.589  -8.998  -0.983  0.00  0.00     0.051 C 
HETATM    6  C   UNK N   1      -3.440  -7.797  -0.270  0.00  0.00     0.039 C 
ENDROOT
BRANCH   1   7
HETATM    7  N   UNK N   1      -1.088  -7.406  -0.065  0.00  0.00    -0.345 N 
HETATM    8  C   UNK N   1      -0.401  -6.273  -0.367  0.00  0.00     0.252 C 
HETATM    9  O   UNK N   1       0.718  -6.400  -0.839  0.00  0.00    -0.268 OA
HETATM   10  H   UNK N   1      -0.637  -8.224  -0.377  0.00  0.00     0.163 HD
BRANCH   8  11
HETATM   11  C   UNK N   1      -0.905  -4.906  -0.140  0.00  0.00     0.032 A 
HETATM   12  C   UNK N   1      -0.033  -3.815  -0.270  0.00  0.00     0.018 A 
HETATM   13  C   UNK N   1      -0.506  -2.511  -0.116  0.00  0.00     0.016 A 
HETATM   14  C   UNK N   1      -1.866  -2.272   0.140  0.00  0.00     0.007 A 
HETATM   15  C   UNK N   1      -2.722  -3.370   0.269  0.00  0.00     0.016 A 
HETATM   16  C   UNK N   1      -2.239  -4.669   0.140  0.00  0.00     0.018 A 
BRANCH  14  17
HETATM   17  C   UNK N   1      -2.363  -0.867   0.255  0.00  0.00     0.106 C 
HETATM   18  N   UNK N   1      -1.496   0.086   0.211  0.00  0.00    -0.385 N 
HETATM   19  H   UNK N   1      -0.535  -0.124   0.177  0.00  0.00     0.157 HD
ATOM     20  HN  UNK N   1      -1.807   1.057   0.211  1.00  0.00     0.157 HD
BRANCH  17  21
HETATM   21  N   UNK N   1      -3.756  -0.529   0.382  0.00  0.00    -0.376 N 
HETATM   22  C   UNK N   1      -4.155   0.853   0.454  0.00  0.00     0.150 C 
HETATM   23  C   UNK N   1      -4.805  -1.519   0.389  0.00  0.00     0.150 C 
ENDBRANCH  17  21
ENDBRANCH  14  17
ENDBRANCH   8  11
ENDBRANCH   1   7
BRANCH   6  24
HETATM   24  C   UNK N   1      -4.697  -6.979  -0.036  0.00  0.00     0.255 C 
HETATM   25  O   UNK N   1      -4.606  -5.815   0.302  0.00  0.00    -0.268 OA
HETATM   26  N   UNK N   1      -5.954  -7.514  -0.135  0.00  0.00    -0.309 N 
HETATM   27  H   UNK N   1      -6.712  -6.897  -0.250  0.00  0.00     0.170 HD
BRANCH  26  28
HETATM   28  C   UNK N   1      -6.229  -8.907  -0.082  0.00  0.00     0.107 A 
HETATM   29  C   UNK N   1      -5.662  -9.697   0.933  0.00  0.00     0.050 A 
HETATM   30  C   UNK N   1      -5.833 -11.078   0.907  0.00  0.00     0.029 A 
HETATM   31  C   UNK N   1      -6.572 -11.658  -0.120  0.00  0.00     0.049 A 
HETATM   32  C   UNK N   1      -7.166 -10.841  -1.088  0.00  0.00     0.113 A 
HETATM   33 Cl   UNK N   1      -6.729 -13.398  -0.210  0.00  0.00    -0.083 Cl
HETATM   34  N   UNK N   1      -6.989  -9.491  -1.048  0.00  0.00    -0.351 N 
ATOM     35  HN  UNK N   1      -7.435  -8.906  -1.755  1.00  0.00     0.166 HD
ENDBRANCH  26  28
ENDBRANCH   6  24
BRANCH   4  36
HETATM   36  O   UNK N   1      -3.017 -11.269  -1.306  0.00  0.00    -0.356 OA
HETATM   37  C   UNK N   1      -2.409 -12.450  -0.951  0.00  0.00     0.210 C 
ENDBRANCH   4  36
TORSDOF 7
