REMARK  11 active torsions:
REMARK  status: ('A' for Active; 'I' for Inactive)
REMARK    1  A    between atoms: C_2  and  O_4 
REMARK    2  A    between atoms: O_4  and  C_5 
REMARK    3  A    between atoms: C_8  and  C_11 
REMARK    4  A    between atoms: C_23  and  O_26 
REMARK    5  A    between atoms: C_27  and  O_26 
REMARK    6  A    between atoms: C_33  and  C_57 
REMARK    7  A    between atoms: C_43  and  N_48 
REMARK       I    between atoms: N_48  and  C_49 
REMARK    8  A    between atoms: C_49  and  O_51 
REMARK    9  A    between atoms: O_51  and  C_52 
REMARK       I    between atoms: C_57  and  N_59 
REMARK   10  A    between atoms: N_59  and  S_60 
REMARK   11  A    between atoms: S_60  and  C_63 
ROOT
HETATM    1  C   UNK N   1      -1.697  -1.650  -1.126  0.00  0.00     0.151 C 
HETATM    2  C   UNK N   1      -0.558  -1.197  -2.029  0.00  0.00     0.069 C 
HETATM    3  C   UNK N   1       0.438  -2.342  -1.892  0.00  0.00     0.181 C 
HETATM    4  C   UNK N   1       1.819  -1.787  -1.614  0.00  0.00     0.241 C 
HETATM    5  O   UNK N   1       2.504  -1.335  -2.518  0.00  0.00    -0.271 OA
HETATM    6  N   UNK N   1       2.304  -1.883  -0.349  0.00  0.00    -0.341 N 
HETATM    7  C   UNK N   1       3.675  -1.742   0.051  0.00  0.00     0.122 A 
HETATM    8  C   UNK N   1       3.958  -2.998   0.854  0.00  0.00     0.053 A 
HETATM    9  C   UNK N   1       4.523  -2.917  -0.517  0.00  0.00     0.048 A 
HETATM   10  C   UNK N   1       6.003  -3.096  -0.375  0.00  0.00    -0.023 C 
HETATM   11  C   UNK N   1       6.548  -4.259   0.045  0.00  0.00    -0.030 C 
HETATM   12  C   UNK N   1       5.752  -5.452   0.540  0.00  0.00     0.027 C 
HETATM   13  C   UNK N   1       4.673  -5.935  -0.431  0.00  0.00     0.004 C 
HETATM   14  C   UNK N   1       3.532  -6.653   0.301  0.00  0.00     0.000 C 
HETATM   15  C   UNK N   1       2.802  -5.720   1.269  0.00  0.00     0.002 C 
HETATM   16  C   UNK N   1       1.317  -6.061   1.389  0.00  0.00     0.035 C 
HETATM   17  C   UNK N   1       0.424  -4.854   1.045  0.00  0.00     0.179 C 
HETATM   18  C   UNK N   1       0.625  -4.247  -0.336  0.00  0.00     0.243 C 
HETATM   19  O   UNK N   1       1.446  -4.757  -1.086  0.00  0.00    -0.271 OA
HETATM   20  N   UNK N   1       0.002  -3.086  -0.723  0.00  0.00    -0.334 N 
HETATM   21  C   UNK N   1      -1.076  -2.461  -0.012  0.00  0.00     0.159 C 
HETATM   22  H   UNK N   1       1.650  -2.067   0.363  0.00  0.00     0.163 HD
ENDROOT
BRANCH   1  23
HETATM   23  O   UNK N   1      -2.618  -0.694  -0.746  0.00  0.00    -0.326 OA
BRANCH  23  24
HETATM   24  C   UNK N   1      -2.382   0.589  -0.380  0.00  0.00     0.181 A 
HETATM   25  C   UNK N   1      -3.455   1.429  -0.143  0.00  0.00     0.154 A 
HETATM   26  O   UNK N   1      -4.750   1.179  -0.199  0.00  0.00    -0.303 OA
HETATM   27  C   UNK N   1      -3.241   2.730   0.188  0.00  0.00     0.085 A 
HETATM   28  C   UNK N   1      -5.379   2.303   0.096  0.00  0.00     0.088 A 
HETATM   29  C   UNK N   1      -6.750   2.529   0.159  0.00  0.00     0.038 A 
HETATM   30  C   UNK N   1      -4.469   3.306   0.349  0.00  0.00     0.028 A 
HETATM   31  C   UNK N   1      -7.182   3.827   0.496  0.00  0.00     0.003 A 
HETATM   32  C   UNK N   1      -6.243   4.854   0.757  0.00  0.00     0.001 A 
HETATM   33  C   UNK N   1      -4.861   4.597   0.682  0.00  0.00     0.017 A 
HETATM   34  N   UNK N   1      -2.006   3.255   0.290  0.00  0.00    -0.339 N 
HETATM   35  C   UNK N   1      -0.926   2.442   0.064  0.00  0.00     0.118 A 
ATOM     36  HN  UNK N   1      -1.876   4.238   0.532  1.00  0.00     0.167 HD
HETATM   37  N   UNK N   1      -1.116   1.113  -0.266  0.00  0.00    -0.320 N 
ATOM     38  HN  UNK N   1      -0.307   0.513  -0.428  1.00  0.00     0.169 HD
BRANCH  35  39
HETATM   39  C   UNK N   1       0.424   3.035   0.102  0.00  0.00     0.008 A 
HETATM   40  C   UNK N   1       1.580   2.256  -0.046  0.00  0.00     0.018 A 
HETATM   41  C   UNK N   1       2.840   2.872  -0.074  0.00  0.00     0.038 A 
HETATM   42  C   UNK N   1       2.953   4.267   0.017  0.00  0.00     0.069 A 
HETATM   43  C   UNK N   1       1.793   5.038   0.175  0.00  0.00     0.038 A 
HETATM   44  C   UNK N   1       0.545   4.426   0.227  0.00  0.00     0.018 A 
BRANCH  42  45
HETATM   45  O   UNK N   1       4.178   4.844  -0.078  0.00  0.00    -0.347 OA
BRANCH  45  46
HETATM   46  C   UNK N   1       4.400   6.196  -0.286  0.00  0.00     0.120 C 
HETATM   47  C   UNK N   1       5.883   6.436  -0.477  0.00  0.00     0.040 C 
HETATM   48  C   UNK N   1       3.917   7.044   0.879  0.00  0.00     0.040 C 
ENDBRANCH  45  46
ENDBRANCH  42  45
ENDBRANCH  35  39
ENDBRANCH  23  24
ENDBRANCH   1  23
BRANCH  17  49
HETATM   49  N   UNK N   1      -0.961  -4.993   1.457  0.00  0.00    -0.324 N 
HETATM   50  C   UNK N   1      -1.927  -5.821   0.969  0.00  0.00     0.361 C 
HETATM   51  O   UNK N   1      -3.071  -5.669   1.363  0.00  0.00    -0.238 OA
HETATM   52  H   UNK N   1      -1.243  -4.405   2.193  0.00  0.00     0.165 HD
BRANCH  50  53
HETATM   53  O   UNK N   1      -1.689  -6.784   0.044  0.00  0.00    -0.299 OA
BRANCH  53  54
HETATM   54  C   UNK N   1      -0.694  -7.720   0.172  0.00  0.00     0.133 C 
HETATM   55  C   UNK N   1       0.183  -7.768  -1.051  0.00  0.00     0.032 C 
HETATM   56  C   UNK N   1       0.806  -9.149  -0.988  0.00  0.00     0.002 C 
HETATM   57  C   UNK N   1      -0.180 -10.024  -0.224  0.00  0.00     0.002 C 
HETATM   58  C   UNK N   1      -1.289  -9.104   0.247  0.00  0.00     0.032 C 
ENDBRANCH  53  54
ENDBRANCH  50  53
ENDBRANCH  17  49
BRANCH   7  59
HETATM   59  C   UNK N   1       3.843  -0.677   1.121  0.00  0.00     0.260 C 
HETATM   60  O   UNK N   1       3.113  -0.727   2.103  0.00  0.00    -0.270 OA
HETATM   61  N   UNK N   1       4.710   0.359   1.034  0.00  0.00    -0.252 N 
HETATM   62  H   UNK N   1       4.727   0.978   1.799  0.00  0.00     0.181 HD
BRANCH  61  63
HETATM   63  S   UNK N   1       5.806   0.726  -0.282  0.00  0.00     0.241 S 
HETATM   64  O   UNK N   1       6.809  -0.432  -0.286  0.00  0.00    -0.205 OA
HETATM   65  O   UNK N   1       4.972   0.538  -1.560  0.00  0.00    -0.205 OA
BRANCH  63  66
HETATM   66  C   UNK N   1       6.565   2.361  -0.065  0.00  0.00     0.079 A 
HETATM   67  C   UNK N   1       6.718   3.212  -1.302  0.00  0.00     0.028 A 
HETATM   68  C   UNK N   1       7.926   2.507  -0.702  0.00  0.00     0.028 A 
HETATM   69  C   UNK N   1       6.424   3.091   1.256  0.00  0.00     0.034 C 
ENDBRANCH  63  66
ENDBRANCH  61  63
ENDBRANCH   7  59
TORSDOF 11
