REMARK  5 active torsions:
REMARK  status: ('A' for Active; 'I' for Inactive)
REMARK       I    between atoms: C_8  and  N_21 
REMARK    1  A    between atoms: C_13  and  N_12 
REMARK    2  A    between atoms: C_15  and  C_19 
REMARK    3  A    between atoms: C_16  and  C_17 
REMARK    4  A    between atoms: C_17  and  O_18 
REMARK    5  A    between atoms: C_19  and  O_20 
ROOT
HETATM    1  C   UNK N   1       0.245   0.012  -0.191  0.00  0.00     0.185 A 
HETATM    2  N   UNK N   1       1.140   0.972   0.171  0.00  0.00    -0.345 N 
ATOM      3  HN  UNK N   1       0.949   1.944   0.417  1.00  0.00     0.167 HD
HETATM    4  C   UNK N   1       2.331   0.350   0.130  0.00  0.00     0.147 A 
HETATM    5  C   UNK N   1       3.596   0.849   0.380  0.00  0.00     0.290 A 
HETATM    6  O   UNK N   1       3.769   2.013   0.694  0.00  0.00    -0.265 OA
HETATM    7  N   UNK N   1       4.663  -0.012   0.253  0.00  0.00    -0.154 N 
HETATM    8  C   UNK N   1       4.470  -1.322  -0.115  0.00  0.00     0.680 A 
HETATM    9  N   UNK N   1       3.208  -1.795  -0.367  0.00  0.00    -0.174 N 
ATOM     10  HN  UNK N   1       3.058  -2.764  -0.648  1.00  0.00     0.186 HD
HETATM   11  C   UNK N   1       2.164  -0.939  -0.233  0.00  0.00     0.157 A 
HETATM   12  N   UNK N   1       0.859  -1.174  -0.443  0.00  0.00    -0.322 N 
HETATM   13  N   UNK N   1       5.578  -2.183  -0.236  0.00  0.00    -0.234 N 
HETATM   14  H   UNK N   1       5.575   0.315   0.427  0.00  0.00     0.187 HD
HETATM   15  H   UNK N   1       5.444  -3.154  -0.320  0.00  0.00     0.174 HD
HETATM   16  H   UNK N   1       6.490  -1.811  -0.236  0.00  0.00     0.174 HD
ENDROOT
BRANCH  12  17
HETATM   17  C   UNK N   1       0.157  -2.371  -0.915  0.00  0.00     0.099 C 
HETATM   18  C   UNK N   1       0.956  -3.661  -0.987  0.00  0.00     0.033 C 
HETATM   19  C   UNK N   1      -0.170  -4.342  -0.215  0.00  0.00     0.019 C 
HETATM   20  C   UNK N   1      -0.749  -2.983   0.134  0.00  0.00     0.039 C 
BRANCH  19  21
HETATM   21  C   UNK N   1       0.330  -5.091   1.003  0.00  0.00     0.169 C 
BRANCH  21  22
HETATM   22  O   UNK N   1       0.757  -6.363   0.618  0.00  0.00    -0.400 OA
HETATM   23  H   UNK N   1       0.139  -7.062   0.350  0.00  0.00     0.209 HD
ENDBRANCH  21  22
ENDBRANCH  19  21
BRANCH  20  24
HETATM   24  C   UNK N   1      -2.204  -2.884  -0.285  0.00  0.00     0.171 C 
BRANCH  24  25
HETATM   25  O   UNK N   1      -2.665  -1.585  -0.067  0.00  0.00    -0.400 OA
HETATM   26  H   UNK N   1      -2.044  -0.856   0.084  0.00  0.00     0.209 HD
ENDBRANCH  24  25
ENDBRANCH  20  24
ENDBRANCH  12  17
TORSDOF 5
