REMARK  3 active torsions:
REMARK  status: ('A' for Active; 'I' for Inactive)
REMARK    1  A    between atoms: C_8  and  N_11 
REMARK    2  A    between atoms: C_12  and  C_17 
REMARK    3  A    between atoms: C_17  and  N_18 
ROOT
HETATM    1  C   UNK N   1      -1.056   0.245  -0.254  0.00  0.00     0.050 A 
HETATM    2  C   UNK N   1      -2.335  -0.261  -0.010  0.00  0.00     0.119 A 
HETATM    3  C   UNK N   1      -2.521  -1.634   0.167  0.00  0.00     0.085 A 
HETATM    4  C   UNK N   1      -1.428  -2.504   0.123  0.00  0.00     0.126 A 
HETATM    5  C   UNK N   1      -0.137  -2.001  -0.099  0.00  0.00    -0.013 A 
HETATM    6  C   UNK N   1       0.041  -0.618  -0.306  0.00  0.00    -0.044 A 
HETATM    7  C   UNK N   1       1.398  -0.065  -0.585  0.00  0.00     0.065 C 
HETATM    8  C   UNK N   1       2.439  -0.803   0.242  0.00  0.00     0.097 C 
HETATM    9  C   UNK N   1       2.417  -2.265  -0.226  0.00  0.00     0.031 C 
HETATM   10  C   UNK N   1       1.045  -2.941  -0.074  0.00  0.00     0.044 C 
HETATM   11  F   UNK N   1      -1.625  -3.833   0.310  0.00  0.00    -0.205 F 
HETATM   12  F   UNK N   1      -3.394   0.581   0.057  0.00  0.00    -0.206 F 
ENDROOT
BRANCH   8  13
HETATM   13  N   UNK N   1       3.761  -0.129   0.153  0.00  0.00    -0.320 N 
HETATM   14  C   UNK N   1       3.974   1.172   0.463  0.00  0.00     0.047 A 
HETATM   15  C   UNK N   1       5.308   1.476   0.296  0.00  0.00     0.117 A 
HETATM   16  N   UNK N   1       5.944   0.363  -0.119  0.00  0.00    -0.341 N 
HETATM   17  C   UNK N   1       4.996  -0.591  -0.197  0.00  0.00     0.178 A 
HETATM   18  H   UNK N   1       6.902   0.266  -0.323  0.00  0.00     0.167 HD
HETATM   19  S   UNK N   1       5.311  -1.940  -0.582  0.00  0.00    -0.040 SA
BRANCH  14  20
HETATM   20  C   UNK N   1       2.942   2.149   0.930  0.00  0.00     0.170 C 
BRANCH  20  21
HETATM   21  N   UNK N   1       2.248   2.725  -0.210  0.00  0.00    -0.425 N 
HETATM   22  H   UNK N   1       2.355   3.349  -1.010  0.00  0.00     0.150 HD
HETATM   23  H   UNK N   1       1.292   2.371  -0.210  0.00  0.00     0.150 HD
ENDBRANCH  20  21
ENDBRANCH  14  20
ENDBRANCH   8  13
TORSDOF 3
