REMARK  7 active torsions:
REMARK  status: ('A' for Active; 'I' for Inactive)
REMARK    1  A    between atoms: C_6  and  C_3 
REMARK    2  A    between atoms: C_13  and  C_3 
REMARK    3  A    between atoms: C_21  and  C_6 
REMARK    4  A    between atoms: N_26  and  C_13 
REMARK    5  A    between atoms: C_21  and  C_16 
REMARK    6  A    between atoms: N_27  and  C_18 
REMARK    7  A    between atoms: O_29  and  C_22 
ROOT
HETATM    1  C   UNK N   1       1.202   3.734   0.180  0.00  0.00     0.056 C 
HETATM    2  C   UNK N   1      -0.936   2.698   1.031  0.00  0.00     0.056 C 
HETATM    3  C   UNK N   1       0.505   3.940  -1.160  0.00  0.00     0.274 C 
HETATM    4  C   UNK N   1      -1.581   3.062  -0.315  0.00  0.00     0.274 C 
HETATM    5  C   UNK N   1       0.594   2.562   0.942  0.00  0.00     0.097 C 
HETATM    6  N   UNK N   1      -0.924   4.204  -0.961  0.00  0.00     0.088 N 
ENDROOT
BRANCH   5   7
HETATM    7  N   UNK N   1       1.102   1.281   0.426  0.00  0.00    -0.306 N 
HETATM    8  C   UNK N   1       2.404   0.983   0.271  0.00  0.00     0.065 A 
HETATM    9  C   UNK N   1       3.519   1.781   0.531  0.00  0.00     0.032 A 
HETATM   10  C   UNK N   1       2.520  -0.284  -0.215  0.00  0.00     0.062 A 
HETATM   11  C   UNK N   1       4.787   1.234   0.268  0.00  0.00     0.002 A 
HETATM   12  C   UNK N   1       4.907  -0.082  -0.236  0.00  0.00     0.002 A 
HETATM   13  C   UNK N   1       3.758  -0.861  -0.482  0.00  0.00     0.032 A 
HETATM   14  N   UNK N   1       1.297  -0.827  -0.375  0.00  0.00    -0.320 N 
HETATM   15  C   UNK N   1       0.450   0.156   0.026  0.00  0.00     0.225 A 
ATOM     16  HN  UNK N   1       1.063  -1.758  -0.718  1.00  0.00     0.169 HD
BRANCH  15  17
HETATM   17  O   UNK N   1      -0.886   0.010   0.033  0.00  0.00    -0.332 OA
HETATM   18  H   UNK N   1      -1.440   0.766   0.038  0.00  0.00     0.221 HD
ENDBRANCH  15  17
ENDBRANCH   5   7
BRANCH   6  19
HETATM   19  C   UNK N   1      -1.305   5.498  -0.348  0.00  0.00     0.272 C 
BRANCH  19  20
HETATM   20  C   UNK N   1      -0.202   6.294   0.374  0.00  0.00     0.038 C 
BRANCH  20  21
HETATM   21  C   UNK N   1       0.862   6.781  -0.605  0.00  0.00     0.085 C 
BRANCH  21  22
HETATM   22  C   UNK N   1       1.625   7.960  -0.086  0.00  0.00     0.159 C 
HETATM   23  O   UNK N   1       2.807   7.829   0.194  0.00  0.00    -0.292 OA
BRANCH  22  24
HETATM   24  C   UNK N   1       0.982   9.289   0.006  0.00  0.00     0.010 A 
HETATM   25  C   UNK N   1       1.729  10.416   0.380  0.00  0.00     0.018 A 
HETATM   26  C   UNK N   1       1.124  11.676   0.430  0.00  0.00     0.043 A 
HETATM   27  C   UNK N   1      -0.230  11.815   0.110  0.00  0.00     0.116 A 
HETATM   28  C   UNK N   1      -0.980  10.696  -0.258  0.00  0.00     0.043 A 
HETATM   29  F   UNK N   1      -0.816  13.034   0.153  0.00  0.00    -0.206 F 
HETATM   30  C   UNK N   1      -0.376   9.440  -0.313  0.00  0.00     0.018 A 
ENDBRANCH  22  24
ENDBRANCH  21  22
ENDBRANCH  20  21
ENDBRANCH  19  20
ENDBRANCH   6  19
TORSDOF 7
