REMARK  6 active torsions:
REMARK  status: ('A' for Active; 'I' for Inactive)
REMARK    1  A    between atoms: C_14  and  C_11 
REMARK    2  A    between atoms: N_26  and  C_13 
REMARK    3  A    between atoms: C_19  and  C_15 
REMARK    4  A    between atoms: O_27  and  C_17 
REMARK    5  A    between atoms: O_28  and  C_18 
REMARK    6  A    between atoms: O_29  and  C_20 
ROOT
HETATM    1  C   UNK N   1       5.758  -1.584   0.068  0.00  0.00     0.143 A 
HETATM    2  C   UNK N   1       6.878   0.233   0.175  0.00  0.00     0.245 A 
HETATM    3  N   UNK N   1       7.072  -1.895   0.095  0.00  0.00    -0.281 N 
ATOM      4  HN  UNK N   1       7.464  -2.837   0.067  1.00  0.00     0.188 HD
HETATM    5  N   UNK N   1       7.762  -0.771   0.163  0.00  0.00    -0.263 N 
ATOM      6  HN  UNK N   1       8.778  -0.684   0.199  1.00  0.00     0.190 HD
HETATM    7  N   UNK N   1       5.596  -0.209   0.115  0.00  0.00    -0.260 N 
ENDROOT
BRANCH   1   8
HETATM    8  C   UNK N   1       4.721  -2.682  -0.015  0.00  0.00     0.044 A 
HETATM    9  C   UNK N   1       3.368  -2.401   0.103  0.00  0.00     0.028 A 
HETATM   10  C   UNK N   1       2.374  -3.359  -0.028  0.00  0.00    -0.021 A 
HETATM   11  C   UNK N   1       2.741  -4.691  -0.269  0.00  0.00     0.075 A 
HETATM   12  C   UNK N   1       4.096  -5.024  -0.357  0.00  0.00     0.074 A 
HETATM   13  C   UNK N   1       5.086  -4.037  -0.233  0.00  0.00     0.082 A 
BRANCH  10  14
HETATM   14  C   UNK N   1       0.949  -2.894   0.056  0.00  0.00     0.013 C 
HETATM   15  C   UNK N   1       0.162  -3.616   1.134  0.00  0.00     0.015 C 
HETATM   16  C   UNK N   1       0.250  -3.000  -1.286  0.00  0.00     0.015 C 
ENDBRANCH  10  14
BRANCH  11  17
HETATM   17  O   UNK N   1       1.808  -5.647  -0.418  0.00  0.00    -0.360 OA
HETATM   18  H   UNK N   1       0.906  -5.416  -0.523  0.00  0.00     0.217 HD
ENDBRANCH  11  17
BRANCH  13  19
HETATM   19  O   UNK N   1       6.374  -4.403  -0.350  0.00  0.00    -0.360 OA
HETATM   20  H   UNK N   1       6.603  -5.308  -0.431  0.00  0.00     0.217 HD
ENDBRANCH  13  19
ENDBRANCH   1   8
BRANCH   7  21
HETATM   21  C   UNK N   1       4.432   0.682   0.088  0.00  0.00     0.045 A 
HETATM   22  C   UNK N   1       4.590   2.092   0.243  0.00  0.00     0.032 A 
HETATM   23  C   UNK N   1       3.479   2.964   0.227  0.00  0.00     0.033 A 
HETATM   24  C   UNK N   1       2.216   2.399   0.053  0.00  0.00     0.044 A 
HETATM   25  C   UNK N   1       2.055   1.063  -0.106  0.00  0.00    -0.006 A 
HETATM   26  N   UNK N   1       1.023   3.008   0.014  0.00  0.00    -0.360 N 
HETATM   27  C   UNK N   1       0.708   0.802  -0.252  0.00  0.00     0.031 A 
HETATM   28  C   UNK N   1       3.131   0.196  -0.100  0.00  0.00     0.044 A 
HETATM   29  C   UNK N   1       0.086   2.050  -0.171  0.00  0.00     0.091 A 
HETATM   30  C   UNK N   1       0.760   4.430   0.146  0.00  0.00     0.155 C 
ENDBRANCH   7  21
BRANCH   2  31
HETATM   31  O   UNK N   1       7.248   1.527   0.222  0.00  0.00    -0.331 OA
HETATM   32  H   UNK N   1       8.157   1.754   0.255  0.00  0.00     0.221 HD
ENDBRANCH   2  31
TORSDOF 6
