REMARK  4 active torsions:
REMARK  status: ('A' for Active; 'I' for Inactive)
REMARK    1  A    between atoms: C_1  and  C_17 
REMARK    2  A    between atoms: C_17  and  C_18 
REMARK    3  A    between atoms: C_17  and  C_22 
REMARK    4  A    between atoms: C_17  and  C_26 
ROOT
HETATM    1  C   UNK N   1       0.991   1.105   0.386  0.00  0.00     0.279 C 
HETATM    2  C   UNK N   1       1.865   0.045  -0.411  0.00  0.00     0.357 C 
HETATM    3  C   UNK N   1       1.592  -1.411   0.038  0.00  0.00     0.382 C 
HETATM    4  C   UNK N   1       0.117  -1.788  -0.119  0.00  0.00     0.384 C 
HETATM    5  C   UNK N   1      -0.766  -0.804   0.657  0.00  0.00     0.382 C 
HETATM    6  C   UNK N   1      -0.520   0.657   0.211  0.00  0.00     0.357 C 
HETATM    7  F   UNK N   1      -1.382   1.411   0.973  0.00  0.00    -0.195 F 
HETATM    8  F   UNK N   1      -0.905   0.763  -1.115  0.00  0.00    -0.195 F 
HETATM    9  F   UNK N   1      -2.094  -1.134   0.443  0.00  0.00    -0.192 F 
HETATM   10  F   UNK N   1      -0.517  -0.924   2.016  0.00  0.00    -0.192 F 
HETATM   11  F   UNK N   1      -0.084  -3.070   0.365  0.00  0.00    -0.192 F 
HETATM   12  F   UNK N   1      -0.230  -1.776  -1.461  0.00  0.00    -0.192 F 
HETATM   13  F   UNK N   1       2.360  -2.277  -0.722  0.00  0.00    -0.192 F 
HETATM   14  F   UNK N   1       1.973  -1.566   1.363  0.00  0.00    -0.192 F 
HETATM   15  F   UNK N   1       3.215   0.220  -0.189  0.00  0.00    -0.195 F 
HETATM   16  F   UNK N   1       1.628   0.125  -1.772  0.00  0.00    -0.195 F 
HETATM   17  F   UNK N   1       1.312   0.907   1.721  0.00  0.00    -0.227 F 
ENDROOT
BRANCH   1  18
HETATM   18  C   UNK N   1       1.314   2.691   0.082  0.00  0.00     0.298 C 
BRANCH  18  19
HETATM   19  C   UNK N   1       0.666   3.630   1.189  0.00  0.00     0.416 C 
HETATM   20  F   UNK N   1       1.012   4.958   1.003  0.00  0.00    -0.169 F 
HETATM   21  F   UNK N   1       1.088   3.277   2.458  0.00  0.00    -0.169 F 
HETATM   22  F   UNK N   1      -0.711   3.623   1.173  0.00  0.00    -0.169 F 
ENDBRANCH  18  19
BRANCH  18  23
HETATM   23  C   UNK N   1       2.873   2.958   0.143  0.00  0.00     0.416 C 
HETATM   24  F   UNK N   1       3.528   2.430  -0.954  0.00  0.00    -0.169 F 
HETATM   25  F   UNK N   1       3.179   4.307   0.131  0.00  0.00    -0.169 F 
HETATM   26  F   UNK N   1       3.420   2.427   1.300  0.00  0.00    -0.169 F 
ENDBRANCH  18  23
BRANCH  18  27
HETATM   27  C   UNK N   1       0.803   3.203  -1.317  0.00  0.00     0.416 C 
HETATM   28  F   UNK N   1      -0.576   3.178  -1.397  0.00  0.00    -0.169 F 
HETATM   29  F   UNK N   1       1.188   4.517  -1.531  0.00  0.00    -0.169 F 
HETATM   30  F   UNK N   1       1.315   2.464  -2.362  0.00  0.00    -0.169 F 
ENDBRANCH  18  27
ENDBRANCH   1  18
TORSDOF 4
