REMARK  13 active torsions:
REMARK  status: ('A' for Active; 'I' for Inactive)
REMARK    1  A    between atoms: C_13  and  C_2 
REMARK    2  A    between atoms: C_16  and  C_2 
REMARK    3  A    between atoms: N_42  and  C_13 
REMARK    4  A    between atoms: O_47  and  C_16 
REMARK    5  A    between atoms: N_39  and  C_23 
REMARK    6  A    between atoms: N_40  and  C_24 
REMARK    7  A    between atoms: O_48  and  C_28 
REMARK    8  A    between atoms: O_48  and  C_29 
REMARK    9  A    between atoms: O_45  and  C_30 
REMARK   10  A    between atoms: O_47  and  C_31 
REMARK   11  A    between atoms: C_34  and  C_32 
REMARK       I    between atoms: N_39  and  C_32 
REMARK   12  A    between atoms: C_34  and  C_33 
REMARK   13  A    between atoms: O_44  and  C_33 
ROOT
HETATM    1  C   UNK N   1      -2.065   1.395  -1.208  0.00  0.00     0.005 C 
HETATM    2  C   UNK N   1      -0.861   0.797  -0.912  0.00  0.00     0.038 C 
HETATM    3  C   UNK N   1      -1.141   3.525  -0.730  0.00  0.00     0.047 C 
HETATM    4  C   UNK N   1      -2.273   2.689  -0.755  0.00  0.00     0.132 C 
HETATM    5  C   UNK N   1       0.098   2.961  -0.469  0.00  0.00     0.148 C 
HETATM    6  C   UNK N   1       0.188   1.577  -0.409  0.00  0.00     0.114 C 
HETATM    7  F   UNK N   1       1.160   3.746  -0.151  0.00  0.00    -0.203 F 
ENDROOT
BRANCH   6   8
HETATM    8  O   UNK N   1       1.283   1.015   0.094  0.00  0.00    -0.307 OA
BRANCH   8   9
HETATM    9  C   UNK N   1       1.413  -0.287   0.405  0.00  0.00     0.090 A 
HETATM   10  C   UNK N   1       0.329  -1.119   0.778  0.00  0.00     0.055 A 
HETATM   11  C   UNK N   1       0.561  -2.476   1.013  0.00  0.00     0.091 A 
HETATM   12  N   UNK N   1       1.816  -2.981   0.889  0.00  0.00    -0.365 N 
HETATM   13  C   UNK N   1       2.868  -2.172   0.552  0.00  0.00     0.048 A 
ATOM     14  HN  UNK N   1       1.976  -3.975   1.049  1.00  0.00     0.165 HD
HETATM   15  C   UNK N   1       4.140  -2.680   0.447  0.00  0.00     0.070 A 
HETATM   16  C   UNK N   1       2.659  -0.819   0.315  0.00  0.00     0.027 A 
HETATM   17  C   UNK N   1       5.224  -1.849   0.089  0.00  0.00     0.104 A 
HETATM   18  C   UNK N   1       5.003  -0.492  -0.165  0.00  0.00     0.102 A 
HETATM   19  C   UNK N   1       3.722   0.016  -0.047  0.00  0.00     0.056 A 
BRANCH  17  20
HETATM   20  O   UNK N   1       6.476  -2.338   0.019  0.00  0.00    -0.348 OA
BRANCH  20  21
HETATM   21  C   UNK N   1       7.015  -3.210   0.950  0.00  0.00     0.177 C 
BRANCH  21  22
HETATM   22  C   UNK N   1       6.282  -4.551   1.123  0.00  0.00     0.057 C 
BRANCH  22  23
HETATM   23  C   UNK N   1       5.533  -5.046  -0.125  0.00  0.00     0.274 C 
BRANCH  23  24
HETATM   24  N   UNK N   1       6.353  -5.576  -1.217  0.00  0.00     0.092 N 
HETATM   25  C   UNK N   1       6.564  -7.013  -1.039  0.00  0.00     0.298 C 
HETATM   26  C   UNK N   1       7.726  -7.260  -0.079  0.00  0.00     0.198 C 
HETATM   27  O   UNK N   1       8.888  -6.679  -0.611  0.00  0.00    -0.388 OA
HETATM   28  C   UNK N   1       8.715  -5.289  -0.524  0.00  0.00     0.198 C 
HETATM   29  C   UNK N   1       7.602  -4.841  -1.482  0.00  0.00     0.298 C 
ENDBRANCH  23  24
ENDBRANCH  22  23
ENDBRANCH  21  22
ENDBRANCH  20  21
ENDBRANCH  17  20
BRANCH  18  30
HETATM   30  O   UNK N   1       6.045   0.321  -0.478  0.00  0.00    -0.353 OA
HETATM   31  C   UNK N   1       5.914   1.688  -0.607  0.00  0.00     0.210 C 
ENDBRANCH  18  30
ENDBRANCH   8   9
ENDBRANCH   6   8
BRANCH   4  32
HETATM   32  N   UNK N   1      -2.840   2.634   0.541  0.00  0.00    -0.362 N 
HETATM   33  C   UNK N   1      -3.641   3.479   1.070  0.00  0.00     0.130 C 
ATOM     34  HN  UNK N   1      -2.580   1.833   1.116  1.00  0.00     0.162 HD
BRANCH  33  35
HETATM   35  C   UNK N   1      -4.281   4.558   0.268  0.00  0.00     0.105 A 
HETATM   36  C   UNK N   1      -5.771   4.757   0.413  0.00  0.00     0.029 A 
HETATM   37  C   UNK N   1      -5.229   3.949  -0.752  0.00  0.00     0.029 A 
BRANCH  35  38
HETATM   38  C   UNK N   1      -3.396   5.618  -0.305  0.00  0.00     0.239 C 
HETATM   39  N   UNK N   1      -2.798   6.487   0.545  0.00  0.00    -0.326 N 
HETATM   40  H   UNK N   1      -3.230   6.656   1.413  0.00  0.00     0.169 HD
HETATM   41  O   UNK N   1      -3.081   5.582  -1.488  0.00  0.00    -0.272 OA
BRANCH  39  42
HETATM   42  C   UNK N   1      -1.587   7.168   0.261  0.00  0.00     0.034 A 
HETATM   43  C   UNK N   1      -1.310   8.381   0.896  0.00  0.00     0.032 A 
HETATM   44  C   UNK N   1      -0.051   8.975   0.752  0.00  0.00     0.044 A 
HETATM   45  C   UNK N   1       0.944   8.337   0.004  0.00  0.00     0.116 A 
HETATM   46  C   UNK N   1       0.675   7.121  -0.624  0.00  0.00     0.044 A 
HETATM   47  F   UNK N   1       2.176   8.889  -0.100  0.00  0.00    -0.206 F 
HETATM   48  C   UNK N   1      -0.585   6.541  -0.496  0.00  0.00     0.032 A 
ENDBRANCH  39  42
ENDBRANCH  35  38
ENDBRANCH  33  35
BRANCH  33  49
HETATM   49  O   UNK N   1      -3.916   3.367   2.382  0.00  0.00    -0.349 OA
HETATM   50  H   UNK N   1      -4.078   3.494   3.296  0.00  0.00     0.219 HD
ENDBRANCH  33  49
ENDBRANCH   4  32
TORSDOF 13
