REMARK  6 active torsions:
REMARK  status: ('A' for Active; 'I' for Inactive)
REMARK    1  A    between atoms: C_24  and  C_19 
REMARK    2  A    between atoms: N_38  and  C_21 
REMARK    3  A    between atoms: N_40  and  C_22 
REMARK    4  A    between atoms: C_29  and  C_23 
REMARK    5  A    between atoms: O_43  and  C_27 
REMARK    6  A    between atoms: O_43  and  C_28 
REMARK       I    between atoms: N_38  and  C_29 
ROOT
HETATM    1  C   UNK N   1       2.647   2.524   0.357  0.00  0.00     0.005 C 
HETATM    2  C   UNK N   1       2.531   1.168   0.522  0.00  0.00     0.038 C 
HETATM    3  C   UNK N   1       5.016   2.348   0.708  0.00  0.00     0.047 C 
HETATM    4  C   UNK N   1       3.905   3.081   0.249  0.00  0.00     0.134 C 
HETATM    5  C   UNK N   1       4.903   0.975   0.885  0.00  0.00     0.148 C 
HETATM    6  C   UNK N   1       3.670   0.366   0.653  0.00  0.00     0.114 C 
HETATM    7  F   UNK N   1       6.016   0.232   1.102  0.00  0.00    -0.203 F 
ENDROOT
BRANCH   4   8
HETATM    8  N   UNK N   1       4.121   3.619  -1.030  0.00  0.00    -0.346 N 
HETATM    9  C   UNK N   1       5.112   4.466  -1.292  0.00  0.00     0.258 C 
HETATM   10  O   UNK N   1       5.869   4.231  -2.221  0.00  0.00    -0.267 OA
HETATM   11  H   UNK N   1       3.515   3.359  -1.761  0.00  0.00     0.163 HD
BRANCH   9  12
HETATM   12  C   UNK N   1       5.140   5.757  -0.615  0.00  0.00     0.100 A 
HETATM   13  C   UNK N   1       3.943   6.278  -0.145  0.00  0.00     0.025 A 
HETATM   14  C   UNK N   1       3.898   7.564   0.338  0.00  0.00     0.026 A 
HETATM   15  C   UNK N   1       5.055   8.336   0.377  0.00  0.00     0.016 A 
HETATM   16  C   UNK N   1       4.883   9.719   0.910  0.00  0.00     0.068 C 
HETATM   17  N   UNK N   1       6.278   7.811  -0.030  0.00  0.00    -0.282 N 
HETATM   18  C   UNK N   1       6.307   6.513  -0.545  0.00  0.00     0.268 A 
HETATM   19  O   UNK N   1       7.343   6.019  -0.957  0.00  0.00    -0.267 OA
BRANCH  17  20
HETATM   20  C   UNK N   1       7.528   8.579   0.047  0.00  0.00     0.042 A 
HETATM   21  C   UNK N   1       7.528   9.975   0.206  0.00  0.00     0.033 A 
HETATM   22  C   UNK N   1       8.722  10.693   0.270  0.00  0.00     0.044 A 
HETATM   23  C   UNK N   1       9.944  10.026   0.184  0.00  0.00     0.116 A 
HETATM   24  C   UNK N   1       9.973   8.644   0.035  0.00  0.00     0.044 A 
HETATM   25  F   UNK N   1      11.102  10.721   0.245  0.00  0.00    -0.206 F 
HETATM   26  C   UNK N   1       8.779   7.933  -0.034  0.00  0.00     0.033 A 
ENDBRANCH  17  20
ENDBRANCH   9  12
ENDBRANCH   4   8
BRANCH   6  27
HETATM   27  O   UNK N   1       3.613  -0.977   0.508  0.00  0.00    -0.307 OA
BRANCH  27  28
HETATM   28  C   UNK N   1       2.526  -1.730   0.188  0.00  0.00     0.088 A 
HETATM   29  C   UNK N   1       1.247  -1.145   0.033  0.00  0.00     0.053 A 
HETATM   30  C   UNK N   1       0.161  -1.961  -0.140  0.00  0.00     0.012 A 
HETATM   31  C   UNK N   1      -1.184  -1.671  -0.238  0.00  0.00     0.121 A 
HETATM   32  C   UNK N   1       0.277  -3.308  -0.154  0.00  0.00     0.063 A 
HETATM   33  N   UNK N   1      -1.843  -2.855  -0.288  0.00  0.00    -0.309 N 
HETATM   34  N   UNK N   1      -0.950  -3.838  -0.230  0.00  0.00    -0.296 N 
ATOM     35  HN  UNK N   1      -2.854  -2.972  -0.358  1.00  0.00     0.186 HD
HETATM   36  C   UNK N   1      -1.294  -5.246  -0.203  0.00  0.00     0.178 C 
HETATM   37  C   UNK N   1       1.518  -3.948  -0.074  0.00  0.00     0.047 A 
HETATM   38  C   UNK N   1       2.673  -3.141   0.074  0.00  0.00     0.013 A 
BRANCH  38  39
HETATM   39  C   UNK N   1       4.019  -3.768   0.124  0.00  0.00     0.011 A 
HETATM   40  C   UNK N   1       4.301  -5.116   0.136  0.00  0.00     0.120 A 
HETATM   41  N   UNK N   1       5.641  -5.259   0.152  0.00  0.00    -0.311 N 
HETATM   42  N   UNK N   1       6.206  -4.061   0.139  0.00  0.00    -0.311 N 
HETATM   43  H   UNK N   1       6.123  -6.117   0.171  0.00  0.00     0.186 HD
HETATM   44  C   UNK N   1       5.243  -3.124   0.120  0.00  0.00     0.120 A 
ATOM     45  HN  UNK N   1       7.210  -3.879   0.144  1.00  0.00     0.186 HD
ENDBRANCH  38  39
ENDBRANCH  27  28
ENDBRANCH   6  27
TORSDOF 6
