REMARK  2 active torsions:
REMARK  status: ('A' for Active; 'I' for Inactive)
REMARK    1  A    between atoms: C_1  and  N_9 
REMARK    2  A    between atoms: C_6  and  S_8 
ROOT
HETATM    1  C   UNK N   1       0.860   1.660  -0.000  0.00  0.00     0.159 A 
HETATM    2  N   UNK N   1       1.805   0.683   0.000  0.00  0.00    -0.279 N 
ATOM      3  HN  UNK N   1       2.808   0.871   0.000  1.00  0.00     0.189 HD
HETATM    4  N   UNK N   1       1.280  -0.562   0.000  0.00  0.00    -0.286 N 
ATOM      5  HN  UNK N   1       1.847  -1.410   0.000  1.00  0.00     0.188 HD
HETATM    6  C   UNK N   1      -0.082  -0.573  -0.000  0.00  0.00     0.127 A 
HETATM    7  S   UNK N   1      -0.634   0.978  -0.000  0.00  0.00    -0.027 SA
ENDROOT
BRANCH   1   8
HETATM    8  N   UNK N   1       1.139   3.040  -0.000  0.00  0.00    -0.379 N 
HETATM    9  H   UNK N   1       2.072   3.354  -0.000  0.00  0.00     0.158 HD
HETATM   10  H   UNK N   1       0.401   3.691  -0.000  0.00  0.00     0.158 HD
ENDBRANCH   1   8
BRANCH   6  11
HETATM   11  S   UNK N   1      -1.099  -2.040   0.000  0.00  0.00    -0.117 SA
HETATM   12  H   UNK N   1      -2.455  -1.928   0.000  0.00  0.00     0.109 HD
ENDBRANCH   6  11
TORSDOF 2
