REMARK  3 active torsions:
REMARK  status: ('A' for Active; 'I' for Inactive)
REMARK    1  A    between atoms: C_8  and  C_10 
REMARK    2  A    between atoms: C_11  and  C_12 
REMARK    3  A    between atoms: C_13  and  C_14 
REMARK       I    between atoms: C_14  and  N_15 
ROOT
HETATM    1  C   UNK N   1      -1.339   1.681  -0.004  0.00  0.00     0.011 C 
HETATM    2  C   UNK N   1      -0.010   1.436   0.052  0.00  0.00     0.001 C 
ENDROOT
BRANCH   2   3
HETATM    3  C   UNK N   1       0.528   0.067   0.155  0.00  0.00     0.005 C 
HETATM    4  C   UNK N   1       1.811  -0.309   0.119  0.00  0.00     0.074 C 
BRANCH   4   5
HETATM    5  C   UNK N   1       3.017   0.545   0.009  0.00  0.00     0.243 C 
HETATM    6  N   UNK N   1       4.228  -0.029  -0.258  0.00  0.00    -0.349 N 
HETATM    7  C   UNK N   1       4.329  -1.465  -0.472  0.00  0.00     0.126 C 
HETATM    8  C   UNK N   1       5.421   0.777  -0.427  0.00  0.00     0.126 C 
HETATM    9  C   UNK N   1       5.471  -2.046   0.353  0.00  0.00     0.020 C 
HETATM   10  C   UNK N   1       6.755  -1.298   0.015  0.00  0.00     0.003 C 
HETATM   11  C   UNK N   1       6.586   0.179   0.365  0.00  0.00     0.020 C 
HETATM   12  O   UNK N   1       2.924   1.762   0.130  0.00  0.00    -0.268 OA
ENDBRANCH   4   5
ENDBRANCH   2   3
BRANCH   1  13
HETATM   13  C   UNK N   1      -2.426   0.658  -0.004  0.00  0.00    -0.033 A 
HETATM   14  C   UNK N   1      -2.144  -0.735  -0.001  0.00  0.00     0.014 A 
HETATM   15  C   UNK N   1      -3.177  -1.685   0.000  0.00  0.00     0.040 A 
HETATM   16  C   UNK N   1      -4.480  -1.210  -0.002  0.00  0.00     0.105 A 
HETATM   17  C   UNK N   1      -4.766   0.097  -0.007  0.00  0.00     0.105 A 
HETATM   18  O   UNK N   1      -5.610  -1.911   0.000  0.00  0.00    -0.323 OA
HETATM   19  O   UNK N   1      -6.089   0.252  -0.008  0.00  0.00    -0.323 OA
HETATM   20  C   UNK N   1      -3.773   1.081  -0.010  0.00  0.00     0.051 A 
HETATM   21  C   UNK N   1      -6.684  -1.015  -0.003  0.00  0.00     0.352 A 
ENDBRANCH   1  13
TORSDOF 3
