REMARK WARNING: 32 MAX_TORS EXCEEDED!!!
REMARK  33 active torsions:
REMARK  status: ('A' for Active; 'I' for Inactive)
REMARK    1  A    between atoms: C_1  and  C_2 
REMARK    2  A    between atoms: C_1  and  N_6 
REMARK    3  A    between atoms: C_2  and  C_3 
REMARK    4  A    between atoms: C_2  and  O_5 
REMARK    5  A    between atoms: C_3  and  O_4 
REMARK       I    between atoms: N_6  and  C_7 
REMARK    6  A    between atoms: C_7  and  C_9 
REMARK    7  A    between atoms: C_11  and  C_52 
REMARK    8  A    between atoms: C_13  and  N_16 
REMARK    9  A    between atoms: N_16  and  C_17 
REMARK   10  A    between atoms: N_16  and  C_49 
REMARK   11  A    between atoms: C_17  and  C_18 
REMARK   12  A    between atoms: C_18  and  C_19 
REMARK   13  A    between atoms: C_18  and  O_48 
REMARK   14  A    between atoms: C_19  and  N_20 
REMARK   15  A    between atoms: N_20  and  C_21 
REMARK   16  A    between atoms: N_20  and  C_23 
REMARK   17  A    between atoms: C_25  and  C_39 
REMARK   18  A    between atoms: C_27  and  C_30 
REMARK       I    between atoms: C_30  and  N_32 
REMARK   19  A    between atoms: N_32  and  C_33 
REMARK   20  A    between atoms: C_33  and  C_34 
REMARK   21  A    between atoms: C_34  and  C_35 
REMARK   22  A    between atoms: C_34  and  O_37 
REMARK   23  A    between atoms: C_35  and  O_36 
REMARK       I    between atoms: C_39  and  N_41 
REMARK   24  A    between atoms: N_41  and  C_42 
REMARK   25  A    between atoms: C_42  and  C_43 
REMARK   26  A    between atoms: C_43  and  C_44 
REMARK   27  A    between atoms: C_43  and  O_46 
REMARK   28  A    between atoms: C_44  and  O_45 
REMARK       I    between atoms: C_52  and  N_54 
REMARK   29  A    between atoms: N_54  and  C_55 
REMARK   30  A    between atoms: C_55  and  C_56 
REMARK   31  A    between atoms: C_56  and  C_57 
REMARK   32  A    between atoms: C_56  and  O_59 
REMARK   33  A    between atoms: C_57  and  O_58 
ROOT
HETATM    1  C   UNK N   1       2.453  -2.548   0.520  0.00  0.00     0.154 C 
ENDROOT
BRANCH   1   2
HETATM    2  C   UNK N   1       3.606  -2.910  -0.323  0.00  0.00     0.165 C 
BRANCH   2   3
HETATM    3  N   UNK N   1       4.721  -2.064  -0.099  0.00  0.00    -0.320 N 
BRANCH   3   4
HETATM    4  C   UNK N   1       5.975  -2.694   0.239  0.00  0.00     0.072 C 
HETATM    5  C   UNK N   1       6.028  -4.106   0.243  0.00  0.00     0.051 C 
HETATM    6  C   UNK N   1       7.210  -4.799   0.070  0.00  0.00     0.068 C 
HETATM    7  I   UNK N   1       4.519  -5.166   1.419  0.00  0.00    -0.041 I 
HETATM    8  C   UNK N   1       8.434  -4.057   0.145  0.00  0.00     0.040 C 
HETATM    9  C   UNK N   1       8.417  -2.610   0.325  0.00  0.00     0.068 C 
HETATM   10  I   UNK N   1      10.223  -5.198   0.412  0.00  0.00    -0.042 I 
HETATM   11  C   UNK N   1       7.149  -1.968   0.433  0.00  0.00     0.051 C 
HETATM   12  I   UNK N   1       6.908   0.063   1.278  0.00  0.00    -0.041 I 
BRANCH   6  13
HETATM   13  C   UNK N   1       7.126  -6.318  -0.195  0.00  0.00     0.254 C 
HETATM   14  O   UNK N   1       8.091  -7.019   0.034  0.00  0.00    -0.268 OA
HETATM   15  N   UNK N   1       6.067  -6.936  -0.811  0.00  0.00    -0.354 N 
HETATM   16  H   UNK N   1       6.150  -7.913  -0.904  0.00  0.00     0.162 HD
BRANCH  15  17
HETATM   17  C   UNK N   1       4.839  -6.370  -1.347  0.00  0.00     0.156 C 
BRANCH  17  18
HETATM   18  C   UNK N   1       3.630  -7.321  -1.149  0.00  0.00     0.159 C 
BRANCH  18  19
HETATM   19  C   UNK N   1       3.917  -8.530  -0.258  0.00  0.00     0.197 C 
BRANCH  19  20
HETATM   20  O   UNK N   1       2.803  -9.369  -0.203  0.00  0.00    -0.398 OA
HETATM   21  H   UNK N   1       1.911  -8.991  -0.164  0.00  0.00     0.209 HD
ENDBRANCH  19  20
ENDBRANCH  18  19
BRANCH  18  22
HETATM   22  O   UNK N   1       2.542  -6.616  -0.628  0.00  0.00    -0.392 OA
HETATM   23  H   UNK N   1       2.588  -5.717  -0.266  0.00  0.00     0.210 HD
ENDBRANCH  18  22
ENDBRANCH  17  18
ENDBRANCH  15  17
ENDBRANCH   6  13
BRANCH   9  24
HETATM   24  C   UNK N   1       9.650  -1.714   0.370  0.00  0.00     0.254 C 
HETATM   25  N   UNK N   1      10.763  -1.853  -0.383  0.00  0.00    -0.354 N 
HETATM   26  H   UNK N   1      11.431  -1.142  -0.254  0.00  0.00     0.162 HD
HETATM   27  O   UNK N   1       9.599  -0.685   1.027  0.00  0.00    -0.268 OA
BRANCH  25  28
HETATM   28  C   UNK N   1      11.143  -2.854  -1.338  0.00  0.00     0.156 C 
BRANCH  28  29
HETATM   29  C   UNK N   1      12.444  -3.457  -0.808  0.00  0.00     0.159 C 
BRANCH  29  30
HETATM   30  C   UNK N   1      13.503  -2.437  -0.442  0.00  0.00     0.197 C 
BRANCH  30  31
HETATM   31  O   UNK N   1      13.806  -2.577   0.914  0.00  0.00    -0.398 OA
HETATM   32  H   UNK N   1      13.827  -2.807   1.856  0.00  0.00     0.209 HD
ENDBRANCH  30  31
ENDBRANCH  29  30
BRANCH  29  33
HETATM   33  O   UNK N   1      12.943  -4.461  -1.631  0.00  0.00    -0.392 OA
HETATM   34  H   UNK N   1      12.511  -5.112  -2.206  0.00  0.00     0.210 HD
ENDBRANCH  29  33
ENDBRANCH  28  29
ENDBRANCH  25  28
ENDBRANCH   9  24
ENDBRANCH   3   4
BRANCH   3  35
HETATM   35  C   UNK N   1       4.623  -0.870  -0.776  0.00  0.00     0.356 C 
HETATM   36  O   UNK N   1       5.582  -0.247  -1.185  0.00  0.00    -0.283 OA
ENDBRANCH   3  35
ENDBRANCH   2   3
ENDBRANCH   1   2
BRANCH   1  37
HETATM   37  C   UNK N   1       1.487  -2.059  -0.473  0.00  0.00     0.159 C 
BRANCH  37  38
HETATM   38  N   UNK N   1       0.402  -1.396   0.168  0.00  0.00    -0.343 N 
BRANCH  38  39
HETATM   39  C   UNK N   1       0.334  -0.095  -0.246  0.00  0.00     0.351 C 
HETATM   40  O   UNK N   1      -0.593   0.651  -0.028  0.00  0.00    -0.283 OA
ENDBRANCH  38  39
BRANCH  38  41
HETATM   41  C   UNK N   1      -0.632  -2.197   0.856  0.00  0.00     0.168 C 
HETATM   42  C   UNK N   1      -0.447  -3.593   0.659  0.00  0.00     0.029 C 
HETATM   43  C   UNK N   1      -1.019  -4.177  -0.478  0.00  0.00     0.064 C 
HETATM   44  I   UNK N   1       0.827  -4.719   1.967  0.00  0.00    -0.046 I 
HETATM   45  C   UNK N   1      -2.019  -3.462  -1.168  0.00  0.00     0.040 C 
HETATM   46  C   UNK N   1      -2.549  -2.295  -0.557  0.00  0.00     0.064 C 
HETATM   47  I   UNK N   1      -2.907  -4.299  -2.912  0.00  0.00    -0.042 I 
HETATM   48  C   UNK N   1      -1.908  -1.740   0.564  0.00  0.00     0.029 C 
HETATM   49  I   UNK N   1      -2.690  -0.092   1.723  0.00  0.00    -0.046 I 
BRANCH  43  50
HETATM   50  C   UNK N   1      -0.533  -5.497  -0.955  0.00  0.00     0.254 C 
HETATM   51  O   UNK N   1       0.204  -5.534  -1.927  0.00  0.00    -0.268 OA
HETATM   52  N   UNK N   1      -0.874  -6.658  -0.347  0.00  0.00    -0.354 N 
HETATM   53  H   UNK N   1      -0.441  -7.491  -0.642  0.00  0.00     0.162 HD
BRANCH  52  54
HETATM   54  C   UNK N   1      -1.844  -6.720   0.712  0.00  0.00     0.156 C 
BRANCH  54  55
HETATM   55  C   UNK N   1      -3.021  -7.549   0.232  0.00  0.00     0.159 C 
BRANCH  55  56
HETATM   56  C   UNK N   1      -2.639  -9.019   0.183  0.00  0.00     0.197 C 
BRANCH  56  57
HETATM   57  O   UNK N   1      -3.665  -9.758  -0.404  0.00  0.00    -0.398 OA
HETATM   58  H   UNK N   1      -4.467  -9.397  -0.812  0.00  0.00     0.209 HD
ENDBRANCH  56  57
ENDBRANCH  55  56
BRANCH  55  59
HETATM   59  O   UNK N   1      -4.105  -7.364   1.088  0.00  0.00    -0.392 OA
HETATM   60  H   UNK N   1      -4.371  -6.646   1.683  0.00  0.00     0.210 HD
ENDBRANCH  55  59
ENDBRANCH  54  55
ENDBRANCH  52  54
ENDBRANCH  43  50
BRANCH  46  61
HETATM   61  C   UNK N   1      -3.740  -1.627  -1.089  0.00  0.00     0.254 C 
HETATM   62  O   UNK N   1      -3.706  -1.152  -2.212  0.00  0.00    -0.268 OA
HETATM   63  N   UNK N   1      -4.878  -1.540  -0.365  0.00  0.00    -0.354 N 
HETATM   64  H   UNK N   1      -5.610  -0.973  -0.699  0.00  0.00     0.162 HD
BRANCH  63  65
HETATM   65  C   UNK N   1      -5.061  -2.250   0.882  0.00  0.00     0.156 C 
BRANCH  65  66
HETATM   66  C   UNK N   1      -5.963  -3.450   0.642  0.00  0.00     0.159 C 
BRANCH  66  67
HETATM   67  C   UNK N   1      -7.267  -2.965   0.023  0.00  0.00     0.197 C 
BRANCH  67  68
HETATM   68  O   UNK N   1      -8.025  -4.039  -0.437  0.00  0.00    -0.398 OA
HETATM   69  H   UNK N   1      -8.937  -3.956  -0.757  0.00  0.00     0.209 HD
ENDBRANCH  67  68
ENDBRANCH  66  67
BRANCH  66  70
HETATM   70  O   UNK N   1      -5.322  -4.347  -0.218  0.00  0.00    -0.392 OA
HETATM   71  H   UNK N   1      -5.639  -5.043  -0.815  0.00  0.00     0.210 HD
ENDBRANCH  66  70
ENDBRANCH  65  66
ENDBRANCH  63  65
ENDBRANCH  46  61
ENDBRANCH  38  41
ENDBRANCH  37  38
ENDBRANCH   1  37
BRANCH   1  72
HETATM   72  O   UNK N   1       2.753  -1.577   1.479  0.00  0.00    -0.392 OA
HETATM   73  H   UNK N   1       3.440  -1.421   2.146  0.00  0.00     0.210 HD
ENDBRANCH   1  72
TORSDOF 33
