REMARK  7 active torsions:
REMARK  status: ('A' for Active; 'I' for Inactive)
REMARK    1  A    between atoms: C_2  and  N_3 
REMARK    2  A    between atoms: C_6  and  O_12 
REMARK    3  A    between atoms: O_12  and  C_13 
REMARK    4  A    between atoms: C_15  and  C_13 
REMARK    5  A    between atoms: C_15  and  C_16 
REMARK    6  A    between atoms: C_15  and  C_18 
REMARK    7  A    between atoms: C_16  and  O_17 
ROOT
HETATM    1  O   UNK N   1       3.557   0.015   0.571  0.00  0.00    -0.315 OA
ENDROOT
BRANCH   1   2
HETATM    2  C   UNK N   1       2.209   0.225   0.830  0.00  0.00     0.136 C 
HETATM    3  C   UNK N   1       1.300  -0.520  -0.189  0.00  0.00     0.069 C 
HETATM    4  C   UNK N   1      -0.097   0.134  -0.333  0.00  0.00     0.224 C 
HETATM    5  N   UNK N   1       0.045   1.577  -0.599  0.00  0.00    -0.058 N 
HETATM    6  C   UNK N   1      -0.765  -0.001   1.051  0.00  0.00     0.184 A 
HETATM    7  C   UNK N   1       0.418   2.068   0.738  0.00  0.00     0.224 C 
HETATM    8  C   UNK N   1       1.026   1.879  -1.651  0.00  0.00     0.273 C 
HETATM    9  C   UNK N   1       1.908   1.735   1.004  0.00  0.00     0.069 C 
HETATM   10  C   UNK N   1      -0.423   1.260   1.755  0.00  0.00     0.184 A 
HETATM   11  O   UNK N   1      -1.729   1.002   1.283  0.00  0.00    -0.371 OA
BRANCH   5  12
HETATM   12  C   UNK N   1      -1.235   2.138  -1.066  0.00  0.00     0.234 C 
HETATM   13  C   UNK N   1      -1.208   3.662  -1.186  0.00  0.00     0.035 C 
ENDBRANCH   5  12
ENDBRANCH   1   2
BRANCH   1  14
HETATM   14  C   UNK N   1       4.145   0.183  -0.652  0.00  0.00     0.270 C 
HETATM   15  O   UNK N   1       3.477   0.421  -1.645  0.00  0.00    -0.264 OA
BRANCH  14  16
HETATM   16  C   UNK N   1       5.627   0.032  -0.812  0.00  0.00     0.142 C 
BRANCH  16  17
HETATM   17  C   UNK N   1       6.355   1.181  -0.120  0.00  0.00     0.183 C 
BRANCH  17  18
HETATM   18  O   UNK N   1       6.057   2.386  -0.761  0.00  0.00    -0.400 OA
HETATM   19  H   UNK N   1       6.678   2.983  -1.206  0.00  0.00     0.209 HD
ENDBRANCH  17  18
ENDBRANCH  16  17
BRANCH  16  20
HETATM   20  C   UNK N   1       6.084  -1.337  -0.374  0.00  0.00    -0.043 A 
HETATM   21  C   UNK N   1       7.068  -1.501   0.615  0.00  0.00     0.008 A 
HETATM   22  C   UNK N   1       7.482  -2.781   0.994  0.00  0.00     0.001 A 
HETATM   23  C   UNK N   1       6.916  -3.906   0.391  0.00  0.00     0.000 A 
HETATM   24  C   UNK N   1       5.938  -3.753  -0.596  0.00  0.00     0.001 A 
HETATM   25  C   UNK N   1       5.527  -2.474  -0.980  0.00  0.00     0.008 A 
ENDBRANCH  16  20
ENDBRANCH  14  16
ENDBRANCH   1  14
TORSDOF 7
