REMARK  3 active torsions:
REMARK  status: ('A' for Active; 'I' for Inactive)
REMARK    1  A    between atoms: C_20  and  C_17 
REMARK    2  A    between atoms: C_22  and  C_21 
REMARK    3  A    between atoms: O_35  and  C_23 
REMARK       I    between atoms: N_34  and  C_25 
ROOT
HETATM    1  C   UNK N   1       2.004   2.263  -0.104  0.00  0.00     0.045 A 
HETATM    2  C   UNK N   1       0.891   1.480  -0.037  0.00  0.00     0.075 A 
HETATM    3  C   UNK N   1       1.547   3.647   0.138  0.00  0.00     0.155 A 
HETATM    4  C   UNK N   1      -0.203   2.447   0.245  0.00  0.00     0.261 A 
HETATM    5  N   UNK N   1       0.286   3.693   0.327  0.00  0.00    -0.303 N 
ATOM      6  HN  UNK N   1      -0.259   4.536   0.509  1.00  0.00     0.171 HD
HETATM    7  O   UNK N   1      -1.380   2.202   0.436  0.00  0.00    -0.267 OA
ENDROOT
BRANCH   2   8
HETATM    8  C   UNK N   1       0.837  -0.035  -0.150  0.00  0.00     0.078 A 
HETATM    9  C   UNK N   1      -0.349  -0.806  -0.318  0.00  0.00     0.019 A 
HETATM   10  C   UNK N   1      -1.625  -0.243  -0.420  0.00  0.00     0.016 A 
HETATM   11  C   UNK N   1      -0.228  -2.217  -0.407  0.00  0.00     0.061 A 
HETATM   12  C   UNK N   1      -2.757  -1.046  -0.583  0.00  0.00     0.001 A 
HETATM   13  C   UNK N   1      -2.626  -2.433  -0.656  0.00  0.00     0.002 A 
HETATM   14  C   UNK N   1      -1.363  -3.016  -0.574  0.00  0.00     0.031 A 
HETATM   15  N   UNK N   1       0.990  -2.803  -0.340  0.00  0.00    -0.191 N 
HETATM   16  C   UNK N   1       2.111  -2.062  -0.164  0.00  0.00     0.681 A 
ATOM     17  HN  UNK N   1       1.065  -3.817  -0.425  1.00  0.00     0.184 HD
HETATM   18  N   UNK N   1       2.014  -0.711  -0.063  0.00  0.00    -0.190 N 
HETATM   19  N   UNK N   1       3.387  -2.691  -0.125  0.00  0.00    -0.214 N 
ATOM     20  HN  UNK N   1       2.869  -0.175   0.086  1.00  0.00     0.184 HD
HETATM   21  C   UNK N   1       4.573  -1.920   0.192  0.00  0.00     0.171 C 
HETATM   22  C   UNK N   1       3.519  -4.090  -0.469  0.00  0.00     0.171 C 
HETATM   23  C   UNK N   1       5.822  -2.795   0.118  0.00  0.00     0.292 C 
HETATM   24  N   UNK N   1       5.640  -4.022   0.898  0.00  0.00     0.087 N 
HETATM   25  C   UNK N   1       6.789  -4.866   0.629  0.00  0.00     0.310 C 
HETATM   26  C   UNK N   1       4.438  -4.796   0.532  0.00  0.00     0.292 C 
ENDBRANCH   2   8
BRANCH   1  27
HETATM   27  C   UNK N   1       3.424   1.894  -0.396  0.00  0.00     0.007 A 
HETATM   28  C   UNK N   1       3.863   0.850  -1.209  0.00  0.00     0.101 A 
HETATM   29  N   UNK N   1       5.218   0.827  -1.249  0.00  0.00    -0.364 N 
HETATM   30  C   UNK N   1       5.630   1.843  -0.476  0.00  0.00     0.043 A 
HETATM   31  H   UNK N   1       5.785   0.193  -1.746  0.00  0.00     0.165 HD
HETATM   32  C   UNK N   1       6.948   2.195  -0.202  0.00  0.00     0.030 A 
HETATM   33  C   UNK N   1       4.569   2.524   0.052  0.00  0.00     0.003 A 
HETATM   34  C   UNK N   1       7.170   3.290   0.652  0.00  0.00     0.002 A 
HETATM   35  C   UNK N   1       6.078   3.996   1.204  0.00  0.00     0.001 A 
HETATM   36  C   UNK N   1       4.758   3.610   0.906  0.00  0.00     0.014 A 
ENDBRANCH   1  27
BRANCH   3  37
HETATM   37  O   UNK N   1       2.314   4.752   0.122  0.00  0.00    -0.345 OA
HETATM   38  H   UNK N   1       3.248   4.674   0.111  0.00  0.00     0.219 HD
ENDBRANCH   3  37
TORSDOF 3
