REMARK  6 active torsions:
REMARK  status: ('A' for Active; 'I' for Inactive)
REMARK    1  A    between atoms: C_7  and  N_11 
REMARK    2  A    between atoms: N_11  and  C_12 
REMARK    3  A    between atoms: C_12  and  C_13 
REMARK    4  A    between atoms: C_13  and  C_14 
REMARK    5  A    between atoms: C_14  and  N_15 
REMARK    6  A    between atoms: C_16  and  N_15 
ROOT
HETATM    1  C   UNK N   1      -2.586   1.361   0.328  0.00  0.00     0.039 C 
ENDROOT
BRANCH   1   2
HETATM    2  C   UNK N   1      -3.969   1.854   0.667  0.00  0.00     0.123 C 
BRANCH   2   3
HETATM    3  N   UNK N   1      -4.880   1.580  -0.414  0.00  0.00    -0.376 N 
HETATM    4  H   UNK N   1      -4.875   2.151  -1.215  0.00  0.00     0.161 HD
BRANCH   3   5
HETATM    5  C   UNK N   1      -5.779   0.495  -0.330  0.00  0.00     0.105 A 
HETATM    6  N   UNK N   1      -7.117   0.749  -0.251  0.00  0.00    -0.341 N 
HETATM    7  C   UNK N   1      -7.996  -0.275  -0.102  0.00  0.00     0.055 A 
HETATM    8  H   UNK N   1      -7.446   1.675  -0.302  0.00  0.00     0.167 HD
HETATM    9  C   UNK N   1      -7.554  -1.584  -0.047  0.00  0.00     0.081 A 
HETATM   10  C   UNK N   1      -9.399  -0.121   0.024  0.00  0.00     0.038 A 
HETATM   11  S   UNK N   1      -8.886  -2.537   0.148  0.00  0.00    -0.096 SA
HETATM   12  C   UNK N   1      -6.205  -1.896  -0.144  0.00  0.00     0.194 A 
HETATM   13  C   UNK N   1     -10.067  -1.352   0.180  0.00  0.00     0.053 A 
HETATM   14  C   UNK N   1      -5.298  -0.836  -0.277  0.00  0.00     0.104 A 
HETATM   15  O   UNK N   1      -5.816  -3.050  -0.102  0.00  0.00    -0.287 OA
ENDBRANCH   3   5
ENDBRANCH   2   3
ENDBRANCH   1   2
BRANCH   1  16
HETATM   16  C   UNK N   1      -2.473  -0.103   0.701  0.00  0.00     0.116 C 
BRANCH  16  17
HETATM   17  N   UNK N   1      -1.740  -0.809  -0.336  0.00  0.00    -0.413 N 
HETATM   18  H   UNK N   1      -2.022  -0.921  -1.310  0.00  0.00     0.153 HD
BRANCH  17  19
HETATM   19  C   UNK N   1      -0.527  -1.324   0.278  0.00  0.00     0.114 C 
HETATM   20  C   UNK N   1      -0.184  -2.673  -0.344  0.00  0.00     0.056 C 
HETATM   21  C   UNK N   1       1.154  -3.154   0.208  0.00  0.00     0.178 C 
HETATM   22  O   UNK N   1       2.155  -2.219  -0.007  0.00  0.00    -0.349 OA
HETATM   23  C   UNK N   1       1.939  -0.877  -0.005  0.00  0.00     0.094 A 
HETATM   24  C   UNK N   1       0.632  -0.366   0.123  0.00  0.00     0.000 A 
HETATM   25  C   UNK N   1       3.021   0.010  -0.132  0.00  0.00     0.046 A 
HETATM   26  C   UNK N   1       0.429   1.019   0.130  0.00  0.00     0.031 A 
HETATM   27  C   UNK N   1       1.504   1.894  -0.004  0.00  0.00     0.013 A 
HETATM   28  C   UNK N   1       2.799   1.391  -0.133  0.00  0.00     0.041 A 
HETATM   29 Br   UNK N   1       1.198   3.775  -0.013  0.00  0.00    -0.051 Br
HETATM   30 Br   UNK N   1       4.807  -0.645  -0.293  0.00  0.00    -0.048 Br
ENDBRANCH  17  19
ENDBRANCH  16  17
ENDBRANCH   1  16
TORSDOF 6
