REMARK  9 active torsions:
REMARK  status: ('A' for Active; 'I' for Inactive)
REMARK    1  A    between atoms: O_2  and  C_3 
REMARK    2  A    between atoms: C_5  and  C_3 
REMARK    3  A    between atoms: C_5  and  C_6 
REMARK    4  A    between atoms: C_5  and  N_12 
REMARK    5  A    between atoms: C_15  and  C_18 
REMARK    6  A    between atoms: C_21  and  N_24 
REMARK       I    between atoms: N_24  and  C_25 
REMARK    7  A    between atoms: C_25  and  C_27 
REMARK    8  A    between atoms: C_32  and  C_33 
REMARK    9  A    between atoms: C_36  and  C_39 
ROOT
HETATM    1  C   UNK N   1      10.319   7.120   0.413  0.00  0.00    -0.054 A 
HETATM    2  C   UNK N   1      10.412   8.487   0.694  0.00  0.00     0.010 A 
HETATM    3  C   UNK N   1      11.362   9.271   0.044  0.00  0.00     0.030 A 
HETATM    4  C   UNK N   1      12.193   8.708  -0.930  0.00  0.00     0.035 A 
HETATM    5  C   UNK N   1      12.033   7.356  -1.270  0.00  0.00     0.030 A 
HETATM    6  C   UNK N   1      11.101   6.572  -0.611  0.00  0.00     0.010 A 
ENDROOT
BRANCH   4   7
HETATM    7  N   UNK N   1      13.502   9.226  -1.041  0.00  0.00    -0.323 N 
HETATM    8  C   UNK N   1      14.408   8.675  -0.180  0.00  0.00     0.257 C 
HETATM    9  O   UNK N   1      14.020   7.930   0.712  0.00  0.00    -0.267 OA
HETATM   10  H   UNK N   1      13.742   9.928  -1.688  0.00  0.00     0.169 HD
BRANCH   8  11
HETATM   11  C   UNK N   1      15.846   8.924  -0.267  0.00  0.00     0.043 A 
HETATM   12  C   UNK N   1      16.294  10.237  -0.419  0.00  0.00     0.018 A 
HETATM   13  C   UNK N   1      17.653  10.529  -0.314  0.00  0.00     0.001 A 
HETATM   14  C   UNK N   1      18.568   9.511  -0.042  0.00  0.00     0.001 A 
HETATM   15  C   UNK N   1      18.137   8.186   0.072  0.00  0.00     0.013 A 
HETATM   16  C   UNK N   1      16.779   7.858  -0.052  0.00  0.00    -0.010 A 
BRANCH  16  17
HETATM   17  C   UNK N   1      16.383   6.397  -0.032  0.00  0.00    -0.025 A 
HETATM   18  C   UNK N   1      17.260   5.414   0.459  0.00  0.00     0.013 A 
HETATM   19  C   UNK N   1      16.896   4.057   0.439  0.00  0.00     0.017 A 
HETATM   20  C   UNK N   1      15.659   3.657  -0.093  0.00  0.00     0.048 A 
HETATM   21  C   UNK N   1      14.799   4.623  -0.613  0.00  0.00     0.017 A 
HETATM   22  C   UNK N   1      15.164   5.966  -0.591  0.00  0.00     0.013 A 
BRANCH  20  23
HETATM   23  C   UNK N   1      15.266   2.206  -0.109  0.00  0.00     0.417 C 
HETATM   24  F   UNK N   1      15.234   1.718   1.184  0.00  0.00    -0.166 F 
HETATM   25  F   UNK N   1      14.013   2.033  -0.677  0.00  0.00    -0.166 F 
HETATM   26  F   UNK N   1      16.187   1.484  -0.845  0.00  0.00    -0.166 F 
ENDBRANCH  20  23
ENDBRANCH  16  17
ENDBRANCH   8  11
ENDBRANCH   4   7
BRANCH   1  27
HETATM   27  C   UNK N   1       9.421   6.255   1.262  0.00  0.00     0.022 C 
HETATM   28  C   UNK N   1       7.970   6.657   1.081  0.00  0.00     0.039 C 
HETATM   29  C   UNK N   1       7.552   6.326  -0.351  0.00  0.00     0.274 C 
HETATM   30  N   UNK N   1       7.680   4.886  -0.640  0.00  0.00     0.107 N 
HETATM   31  C   UNK N   1       9.059   4.420  -0.411  0.00  0.00     0.274 C 
HETATM   32  C   UNK N   1       9.561   4.755   0.996  0.00  0.00     0.039 C 
BRANCH  30  33
HETATM   33  C   UNK N   1       6.635   4.128   0.081  0.00  0.00     0.354 C 
BRANCH  33  34
HETATM   34  C   UNK N   1       5.254   4.502  -0.451  0.00  0.00     0.296 C 
HETATM   35  O   UNK N   1       5.157   5.138  -1.490  0.00  0.00    -0.262 OA
BRANCH  34  36
HETATM   36  O   UNK N   1       4.122   4.163   0.212  0.00  0.00    -0.325 OA
HETATM   37  C   UNK N   1       4.131   3.540   1.437  0.00  0.00     0.213 C 
ENDBRANCH  34  36
ENDBRANCH  33  34
BRANCH  33  38
HETATM   38  C   UNK N   1       6.878   2.625   0.053  0.00  0.00    -0.015 A 
HETATM   39  C   UNK N   1       7.879   2.068   0.867  0.00  0.00     0.010 A 
HETATM   40  C   UNK N   1       8.138   0.696   0.837  0.00  0.00     0.001 A 
HETATM   41  C   UNK N   1       7.395  -0.135  -0.002  0.00  0.00     0.000 A 
HETATM   42  C   UNK N   1       6.389   0.404  -0.807  0.00  0.00     0.001 A 
HETATM   43  C   UNK N   1       6.131   1.778  -0.781  0.00  0.00     0.010 A 
ENDBRANCH  33  38
ENDBRANCH  30  33
ENDBRANCH   1  27
TORSDOF 9
