REMARK  2 active torsions:
REMARK  status: ('A' for Active; 'I' for Inactive)
REMARK    1  A    between atoms: C_4  and  C_2 
REMARK    2  A    between atoms: C_19  and  O_20 
ROOT
HETATM    1  C   UNK N   1       0.684  -2.429   0.303  0.00  0.00     0.122 A 
HETATM    2  C   UNK N   1       0.982  -0.976   0.559  0.00  0.00     0.192 A 
HETATM    3  O   UNK N   1       0.296  -1.401  -0.587  0.00  0.00    -0.363 OA
HETATM    4  C   UNK N   1       2.388  -0.469   0.183  0.00  0.00     0.193 A 
HETATM    5  C   UNK N   1       3.500  -1.457  -0.008  0.00  0.00     0.134 A 
HETATM    6  O   UNK N   1       3.213  -0.893   1.247  0.00  0.00    -0.362 OA
HETATM    7  C   UNK N   1       4.923  -1.055  -0.447  0.00  0.00     0.001 C 
HETATM    8  C   UNK N   1       5.269   0.419  -0.052  0.00  0.00     0.018 C 
HETATM    9  C   UNK N   1       6.607   0.660   0.697  0.00  0.00     0.046 C 
HETATM   10  C   UNK N   1       7.615  -0.408   0.395  0.00  0.00     0.022 A 
HETATM   11  C   UNK N   1       7.286  -1.652   0.171  0.00  0.00    -0.038 A 
HETATM   12  C   UNK N   1       5.857  -2.071   0.246  0.00  0.00     0.031 C 
HETATM   13  C   UNK N   1       5.631  -3.518  -0.201  0.00  0.00     0.045 C 
HETATM   14  C   UNK N   1       4.173  -4.001  -0.140  0.00  0.00     0.164 A 
HETATM   15  C   UNK N   1       3.121  -2.943  -0.064  0.00  0.00     0.150 A 
HETATM   16  C   UNK N   1       1.689  -3.321  -0.431  0.00  0.00     0.196 C 
HETATM   17  O   UNK N   1       3.582  -3.622   1.085  0.00  0.00    -0.363 OA
HETATM   18  C   UNK N   1       8.517  -2.484  -0.134  0.00  0.00     0.214 A 
HETATM   19  O   UNK N   1       9.540  -1.546  -0.022  0.00  0.00    -0.313 OA
HETATM   20  C   UNK N   1       9.039  -0.335   0.282  0.00  0.00     0.289 A 
HETATM   21  O   UNK N   1       9.720   0.660   0.456  0.00  0.00    -0.260 OA
HETATM   22  C   UNK N   1       5.041  -1.159  -1.964  0.00  0.00     0.019 C 
ENDROOT
BRANCH   1  23
HETATM   23  C   UNK N   1      -0.560  -3.075   0.953  0.00  0.00     0.017 C 
HETATM   24  C   UNK N   1      -1.444  -3.768  -0.069  0.00  0.00     0.012 C 
HETATM   25  C   UNK N   1      -1.398  -2.122   1.794  0.00  0.00     0.012 C 
ENDBRANCH   1  23
BRANCH  16  26
HETATM   26  O   UNK N   1       1.444  -4.679  -0.191  0.00  0.00    -0.389 OA
HETATM   27  H   UNK N   1       0.544  -5.002  -0.025  0.00  0.00     0.210 HD
ENDBRANCH  16  26
TORSDOF 2
