REMARK  18 active torsions:
REMARK  status: ('A' for Active; 'I' for Inactive)
REMARK    1  A    between atoms: C_3  and  N_50 
REMARK    2  A    between atoms: C_6  and  C_7 
REMARK       I    between atoms: C_7  and  N_9 
REMARK    3  A    between atoms: N_9  and  C_10 
REMARK    4  A    between atoms: C_41  and  N_9 
REMARK    5  A    between atoms: C_10  and  C_11 
REMARK    6  A    between atoms: C_11  and  N_12 
REMARK    7  A    between atoms: N_12  and  C_13 
REMARK    8  A    between atoms: C_13  and  N_15 
REMARK    9  A    between atoms: N_15  and  C_16 
REMARK   10  A    between atoms: C_29  and  O_40 
REMARK   11  A    between atoms: C_37  and  O_39 
REMARK   12  A    between atoms: C_41  and  C_42 
REMARK   13  A    between atoms: C_41  and  C_47 
REMARK   14  A    between atoms: C_42  and  C_43 
REMARK   15  A    between atoms: C_43  and  C_44 
REMARK       I    between atoms: C_44  and  N_46 
REMARK   16  A    between atoms: C_47  and  O_49 
REMARK   17  A    between atoms: N_50  and  C_51 
REMARK   18  A    between atoms: C_51  and  C_52 
REMARK       I    between atoms: C_63  and  N_66 
ROOT
HETATM    1  C   UNK N   1      -2.397   2.702   0.322  0.00  0.00     0.254 C 
HETATM    2  O   UNK N   1      -3.037   3.626   0.807  0.00  0.00    -0.267 OA
HETATM    3  N   UNK N   1      -2.611   1.395   0.762  0.00  0.00    -0.332 N 
ENDROOT
BRANCH   3   4
HETATM    4  C   UNK N   1      -3.494   1.135   1.904  0.00  0.00     0.147 C 
BRANCH   4   5
HETATM    5  C   UNK N   1      -4.746   2.023   1.997  0.00  0.00     0.142 C 
BRANCH   5   6
HETATM    6  N   UNK N   1      -5.736   1.645   1.024  0.00  0.00    -0.365 N 
HETATM    7  H   UNK N   1      -6.656   1.452   1.314  0.00  0.00     0.161 HD
BRANCH   6   8
HETATM    8  C   UNK N   1      -5.399   1.548  -0.344  0.00  0.00     0.172 C 
HETATM    9  S   UNK N   1      -5.345   2.728  -1.161  0.00  0.00    -0.041 SA
BRANCH   8  10
HETATM   10  N   UNK N   1      -4.998   0.307  -0.894  0.00  0.00    -0.333 N 
HETATM   11  H   UNK N   1      -4.437   0.333  -1.702  0.00  0.00     0.168 HD
BRANCH  10  12
HETATM   12  C   UNK N   1      -5.335  -0.971  -0.377  0.00  0.00     0.035 A 
HETATM   13  C   UNK N   1      -5.996  -1.157   0.870  0.00  0.00     0.030 A 
HETATM   14  C   UNK N   1      -6.632  -2.385   1.160  0.00  0.00     0.014 A 
HETATM   15  C   UNK N   1      -6.610  -3.384   0.172  0.00  0.00     0.003 A 
HETATM   16  C   UNK N   1      -5.874  -3.204  -0.960  0.00  0.00     0.051 A 
HETATM   17  C   UNK N   1      -7.676  -4.457  -0.117  0.00  0.00     0.159 C 
HETATM   18  C   UNK N   1      -5.229  -2.033  -1.264  0.00  0.00     0.048 A 
HETATM   19  C   UNK N   1      -6.236  -4.210  -1.867  0.00  0.00     0.295 C 
HETATM   20  O   UNK N   1      -5.760  -4.377  -2.977  0.00  0.00    -0.259 OA
HETATM   21  O   UNK N   1      -7.314  -4.855  -1.412  0.00  0.00    -0.291 OA
HETATM   22  C   UNK N   1      -9.035  -3.770  -0.219  0.00  0.00     0.020 A 
HETATM   23  C   UNK N   1      -7.804  -5.804   0.544  0.00  0.00     0.020 A 
HETATM   24  C   UNK N   1      -9.165  -2.365  -0.224  0.00  0.00     0.016 A 
HETATM   25  C   UNK N   1     -10.179  -4.559  -0.367  0.00  0.00     0.088 A 
HETATM   26  C   UNK N   1     -10.404  -1.759  -0.380  0.00  0.00     0.037 A 
HETATM   27  C   UNK N   1     -11.536  -2.548  -0.558  0.00  0.00     0.068 A 
HETATM   28  C   UNK N   1     -11.428  -3.947  -0.550  0.00  0.00     0.074 A 
HETATM   29  O   UNK N   1     -10.084  -5.908  -0.281  0.00  0.00    -0.309 OA
HETATM   30  C   UNK N   1      -8.993  -6.531   0.250  0.00  0.00     0.088 A 
HETATM   31  C   UNK N   1      -9.048  -7.904   0.479  0.00  0.00     0.074 A 
HETATM   32  C   UNK N   1      -7.940  -8.575   0.989  0.00  0.00     0.068 A 
HETATM   33  C   UNK N   1      -6.771  -7.867   1.299  0.00  0.00     0.037 A 
HETATM   34  C   UNK N   1      -6.691  -6.489   1.051  0.00  0.00     0.016 A 
BRANCH  27  35
HETATM   35  O   UNK N   1     -12.731  -1.963  -0.730  0.00  0.00    -0.361 OA
HETATM   36  H   UNK N   1     -12.794  -1.036  -0.851  0.00  0.00     0.217 HD
ENDBRANCH  27  35
BRANCH  32  37
HETATM   37  O   UNK N   1      -7.991  -9.906   1.160  0.00  0.00    -0.361 OA
HETATM   38  H   UNK N   1      -8.813 -10.339   1.280  0.00  0.00     0.217 HD
ENDBRANCH  32  37
ENDBRANCH  10  12
ENDBRANCH   8  10
ENDBRANCH   6   8
ENDBRANCH   5   6
ENDBRANCH   4   5
ENDBRANCH   3   4
BRANCH   3  39
HETATM   39  C   UNK N   1      -1.750   0.287   0.304  0.00  0.00     0.185 C 
BRANCH  39  40
HETATM   40  C   UNK N   1      -0.442   0.090   1.068  0.00  0.00     0.045 C 
BRANCH  40  41
HETATM   41  C   UNK N   1       0.535  -0.606   0.104  0.00  0.00     0.105 C 
BRANCH  41  42
HETATM   42  C   UNK N   1       1.451  -1.600   0.734  0.00  0.00     0.215 C 
HETATM   43  O   UNK N   1       2.017  -1.338   1.782  0.00  0.00    -0.274 OA
HETATM   44  N   UNK N   1       1.732  -2.750   0.089  0.00  0.00    -0.370 N 
HETATM   45  H   UNK N   1       1.108  -3.348  -0.382  0.00  0.00     0.159 HD
HETATM   46  H   UNK N   1       2.677  -3.026   0.089  0.00  0.00     0.159 HD
ENDBRANCH  41  42
ENDBRANCH  40  41
ENDBRANCH  39  40
BRANCH  39  47
HETATM   47  C   UNK N   1      -2.413  -1.038   0.141  0.00  0.00     0.163 C 
HETATM   48  O   UNK N   1      -2.431  -1.566  -0.957  0.00  0.00    -0.648 OA
BRANCH  47  49
HETATM   49  O   UNK N   1      -2.870  -1.706   1.218  0.00  0.00    -0.775 OA
HETATM   50  H   UNK N   1      -3.431  -1.663   1.967  0.00  0.00     0.167 HD
ENDBRANCH  47  49
ENDBRANCH  39  47
ENDBRANCH   3  39
BRANCH   1  51
HETATM   51  C   UNK N   1      -1.221   3.064  -0.499  0.00  0.00     0.032 C 
HETATM   52  C   UNK N   1      -0.594   2.104  -1.303  0.00  0.00     0.019 C 
HETATM   53  C   UNK N   1       0.785   1.980  -1.267  0.00  0.00     0.030 C 
HETATM   54  C   UNK N   1       1.509   2.825  -0.431  0.00  0.00     0.028 C 
HETATM   55  C   UNK N   1       0.912   3.934   0.151  0.00  0.00     0.030 C 
HETATM   56  C   UNK N   1      -0.458   4.069   0.098  0.00  0.00     0.019 C 
BRANCH  54  57
HETATM   57  N   UNK N   1       2.754   2.447   0.059  0.00  0.00    -0.384 N 
HETATM   58  H   UNK N   1       3.205   3.080   0.663  0.00  0.00     0.160 HD
BRANCH  57  59
HETATM   59  C   UNK N   1       3.448   1.219  -0.232  0.00  0.00     0.178 C 
BRANCH  59  60
HETATM   60  C   UNK N   1       4.877   1.591  -0.206  0.00  0.00     0.043 A 
HETATM   61  C   UNK N   1       5.910   0.650  -0.189  0.00  0.00     0.116 A 
HETATM   62  N   UNK N   1       7.201   1.089  -0.136  0.00  0.00    -0.348 N 
HETATM   63  C   UNK N   1       7.485   2.425  -0.098  0.00  0.00     0.153 A 
ATOM     64  HN  UNK N   1       7.964   0.412  -0.124  1.00  0.00     0.167 HD
HETATM   65  C   UNK N   1       6.438   3.348  -0.113  0.00  0.00     0.147 A 
HETATM   66  N   UNK N   1       8.763   2.871  -0.050  0.00  0.00    -0.174 N 
HETATM   67  N   UNK N   1       5.180   2.911  -0.165  0.00  0.00    -0.350 N 
HETATM   68  C   UNK N   1       6.716   4.707  -0.074  0.00  0.00     0.290 A 
ATOM     69  HN  UNK N   1       4.421   3.592  -0.175  1.00  0.00     0.166 HD
HETATM   70  O   UNK N   1       5.811   5.527  -0.083  0.00  0.00    -0.265 OA
HETATM   71  N   UNK N   1       8.015   5.118  -0.027  0.00  0.00    -0.154 N 
HETATM   72  C   UNK N   1       9.031   4.209  -0.016  0.00  0.00     0.680 A 
HETATM   73  H   UNK N   1       8.222   6.080  -0.000  0.00  0.00     0.187 HD
HETATM   74  N   UNK N   1      10.362   4.656   0.028  0.00  0.00    -0.234 N 
HETATM   75  H   UNK N   1      11.099   4.005   0.059  0.00  0.00     0.174 HD
HETATM   76  H   UNK N   1      10.557   5.621   0.028  0.00  0.00     0.174 HD
ATOM     77  HN  UNK N   1       9.532   2.201  -0.039  1.00  0.00     0.186 HD
ENDBRANCH  59  60
ENDBRANCH  57  59
ENDBRANCH  54  57
ENDBRANCH   1  51
TORSDOF 18
