REMARK  10 active torsions:
REMARK  status: ('A' for Active; 'I' for Inactive)
REMARK    1  A    between atoms: O_2  and  C_3 
REMARK       I    between atoms: C_3  and  N_5 
REMARK    2  A    between atoms: C_8  and  C_11 
REMARK    3  A    between atoms: C_11  and  C_12 
REMARK    4  A    between atoms: C_13  and  C_14 
REMARK    5  A    between atoms: C_17  and  N_39 
REMARK    6  A    between atoms: C_26  and  N_22 
REMARK    7  A    between atoms: C_27  and  O_38 
REMARK    8  A    between atoms: C_28  and  O_37 
REMARK    9  A    between atoms: C_29  and  C_31 
REMARK       I    between atoms: C_31  and  N_33 
REMARK   10  A    between atoms: N_33  and  C_34 
ROOT
HETATM    1  C   UNK N   1       3.822   1.564  -0.294  0.00  0.00     0.164 A 
HETATM    2  N   UNK N   1       4.143   0.244  -0.071  0.00  0.00    -0.320 N 
ATOM      3  HN  UNK N   1       5.122  -0.034  -0.004  1.00  0.00     0.169 HD
HETATM    4  C   UNK N   1       3.158  -0.701   0.063  0.00  0.00     0.132 A 
HETATM    5  C   UNK N   1       1.833  -0.278  -0.022  0.00  0.00     0.122 A 
HETATM    6  C   UNK N   1       1.566   1.019  -0.235  0.00  0.00     0.143 A 
HETATM    7  N   UNK N   1       2.528   1.949  -0.374  0.00  0.00    -0.319 N 
ATOM      8  HN  UNK N   1       2.286   2.926  -0.536  1.00  0.00     0.169 HD
HETATM    9  N   UNK N   1       0.248   1.211  -0.319  0.00  0.00    -0.297 N 
HETATM   10  C   UNK N   1      -0.294  -0.024  -0.147  0.00  0.00     0.188 A 
HETATM   11  N   UNK N   1       0.678  -0.969   0.049  0.00  0.00    -0.346 N 
ATOM     12  HN  UNK N   1       0.555  -1.968   0.212  1.00  0.00     0.167 HD
ENDROOT
BRANCH   9  13
HETATM   13  C   UNK N   1      -0.409   2.488  -0.636  0.00  0.00     0.263 C 
HETATM   14  C   UNK N   1      -1.494   2.891   0.328  0.00  0.00     0.199 C 
HETATM   15  C   UNK N   1      -1.450   4.382   0.163  0.00  0.00     0.189 C 
HETATM   16  C   UNK N   1       0.059   4.553   0.178  0.00  0.00     0.247 C 
HETATM   17  O   UNK N   1       0.542   3.531  -0.657  0.00  0.00    -0.346 OA
BRANCH  14  18
HETATM   18  O   UNK N   1      -2.726   2.374  -0.074  0.00  0.00    -0.388 OA
HETATM   19  H   UNK N   1      -3.465   2.937  -0.353  0.00  0.00     0.210 HD
ENDBRANCH  14  18
BRANCH  15  20
HETATM   20  O   UNK N   1      -2.074   4.986   1.253  0.00  0.00    -0.390 OA
HETATM   21  H   UNK N   1      -1.927   5.573   2.012  0.00  0.00     0.210 HD
ENDBRANCH  15  20
BRANCH  16  22
HETATM   22  C   UNK N   1       0.738   5.851  -0.257  0.00  0.00     0.249 C 
HETATM   23  O   UNK N   1       1.851   5.763  -0.752  0.00  0.00    -0.271 OA
HETATM   24  N   UNK N   1       0.213   7.093  -0.107  0.00  0.00    -0.354 N 
HETATM   25  H   UNK N   1       0.756   7.851  -0.425  0.00  0.00     0.162 HD
BRANCH  24  26
HETATM   26  C   UNK N   1      -1.060   7.399   0.473  0.00  0.00     0.084 A 
HETATM   27  C   UNK N   1      -1.964   7.960  -0.604  0.00  0.00     0.027 A 
HETATM   28  C   UNK N   1      -1.286   8.894   0.373  0.00  0.00     0.027 A 
ENDBRANCH  24  26
ENDBRANCH  16  22
ENDBRANCH   9  13
BRANCH   4  29
HETATM   29  N   UNK N   1       3.488  -2.056   0.268  0.00  0.00    -0.383 N 
HETATM   30  H   UNK N   1       2.783  -2.728   0.411  0.00  0.00     0.157 HD
HETATM   31  H   UNK N   1       4.432  -2.333   0.268  0.00  0.00     0.157 HD
ENDBRANCH   4  29
BRANCH   1  32
HETATM   32  C   UNK N   1       4.829   2.566  -0.365  0.00  0.00    -0.030 C 
HETATM   33  C   UNK N   1       5.631   3.458  -0.344  0.00  0.00    -0.098 C 
BRANCH  33  34
HETATM   34  C   UNK N   1       6.636   4.487  -0.082  0.00  0.00     0.099 C 
BRANCH  34  35
HETATM   35  C   UNK N   1       7.712   3.983   0.906  0.00  0.00    -0.000 C 
HETATM   36  C   UNK N   1       7.470   2.587   1.530  0.00  0.00     0.025 C 
HETATM   37  C   UNK N   1       7.682   1.491   0.480  0.00  0.00     0.128 C 
HETATM   38  N   UNK N   1       9.010   1.640  -0.065  0.00  0.00    -0.328 N 
HETATM   39  C   UNK N   1       9.900   0.603   0.046  0.00  0.00     0.362 C 
HETATM   40  C   UNK N   1       9.333   2.905  -0.696  0.00  0.00     0.128 C 
HETATM   41  O   UNK N   1       9.516  -0.465   0.502  0.00  0.00    -0.238 OA
HETATM   42  C   UNK N   1       9.111   4.051   0.291  0.00  0.00     0.025 C 
BRANCH  39  43
HETATM   43  O   UNK N   1      11.209   0.703  -0.319  0.00  0.00    -0.309 OA
HETATM   44  C   UNK N   1      11.909   1.875  -0.483  0.00  0.00     0.215 C 
ENDBRANCH  39  43
ENDBRANCH  34  35
ENDBRANCH  33  34
ENDBRANCH   1  32
TORSDOF 10
