REMARK  5 active torsions:
REMARK  status: ('A' for Active; 'I' for Inactive)
REMARK    1  A    between atoms: O_2  and  C_3 
REMARK    2  A    between atoms: C_6  and  N_13 
REMARK    3  A    between atoms: C_8  and  N_9 
REMARK       I    between atoms: N_9  and  C_10 
REMARK       I    between atoms: C_10  and  N_12 
REMARK    4  A    between atoms: N_13  and  S_14 
REMARK    5  A    between atoms: S_14  and  C_17 
ROOT
HETATM    1  N   UNK N   1       3.094  -4.769   0.532  0.00  0.00    -0.280 N 
HETATM    2  H   UNK N   1       3.733  -5.154   1.174  0.00  0.00     0.179 HD
ENDROOT
BRANCH   1   3
HETATM    3  C   UNK N   1       2.951  -3.363   0.454  0.00  0.00     0.045 A 
HETATM    4  C   UNK N   1       4.063  -2.543   0.639  0.00  0.00     0.033 A 
HETATM    5  C   UNK N   1       3.961  -1.166   0.418  0.00  0.00     0.041 A 
HETATM    6  C   UNK N   1       2.748  -0.584   0.024  0.00  0.00     0.095 A 
HETATM    7  C   UNK N   1       1.600  -1.411  -0.103  0.00  0.00     0.072 A 
HETATM    8  C   UNK N   1       1.729  -2.792   0.098  0.00  0.00     0.062 A 
BRANCH   6   9
HETATM    9  O   UNK N   1       2.738   0.757  -0.201  0.00  0.00    -0.354 OA
HETATM   10  C   UNK N   1       1.662   1.492  -0.644  0.00  0.00     0.210 C 
ENDBRANCH   6   9
BRANCH   7  11
HETATM   11  N   UNK N   1       0.337  -0.872  -0.470  0.00  0.00    -0.306 N 
HETATM   12  C   UNK N   1      -0.842  -1.231   0.101  0.00  0.00     0.318 C 
HETATM   13  O   UNK N   1      -1.885  -0.785  -0.340  0.00  0.00    -0.247 OA
HETATM   14  N   UNK N   1      -0.868  -2.019   1.199  0.00  0.00    -0.352 N 
HETATM   15  H   UNK N   1      -1.374  -2.290   1.999  0.00  0.00     0.160 HD
HETATM   16  H   UNK N   1      -0.032  -2.539   1.199  0.00  0.00     0.160 HD
HETATM   17  H   UNK N   1       0.316  -0.195  -1.184  0.00  0.00     0.170 HD
ENDBRANCH   7  11
ENDBRANCH   1   3
BRANCH   1  18
HETATM   18  S   UNK N   1       2.151  -5.843  -0.499  0.00  0.00     0.269 S 
HETATM   19  O   UNK N   1       2.172  -5.160  -1.875  0.00  0.00    -0.200 OA
HETATM   20  O   UNK N   1       3.092  -7.026  -0.773  0.00  0.00    -0.200 OA
BRANCH  18  21
HETATM   21  C   UNK N   1       0.482  -6.375  -0.068  0.00  0.00     0.163 A 
HETATM   22  C   UNK N   1       0.251  -7.678   0.404  0.00  0.00     0.184 A 
HETATM   23  C   UNK N   1      -1.051  -8.096   0.705  0.00  0.00     0.198 A 
HETATM   24  F   UNK N   1       1.281  -8.548   0.560  0.00  0.00    -0.201 F 
HETATM   25  C   UNK N   1      -2.125  -7.216   0.545  0.00  0.00     0.199 A 
HETATM   26  F   UNK N   1      -1.271  -9.359   1.147  0.00  0.00    -0.199 F 
HETATM   27  C   UNK N   1      -1.902  -5.920   0.076  0.00  0.00     0.198 A 
HETATM   28  F   UNK N   1      -3.385  -7.622   0.837  0.00  0.00    -0.199 F 
HETATM   29  C   UNK N   1      -0.607  -5.501  -0.238  0.00  0.00     0.184 A 
HETATM   30  F   UNK N   1      -2.945  -5.068  -0.086  0.00  0.00    -0.199 F 
HETATM   31  F   UNK N   1      -0.421  -4.253  -0.724  0.00  0.00    -0.201 F 
ENDBRANCH  18  21
ENDBRANCH   1  18
TORSDOF 5
