REMARK  16 active torsions:
REMARK  status: ('A' for Active; 'I' for Inactive)
REMARK    1  A    between atoms: O_2  and  C_3 
REMARK    2  A    between atoms: C_5  and  N_27 
REMARK    3  A    between atoms: C_8  and  C_9 
REMARK    4  A    between atoms: C_9  and  N_10 
REMARK    5  A    between atoms: N_10  and  C_11 
REMARK    6  A    between atoms: C_11  and  C_12 
REMARK    7  A    between atoms: C_12  and  C_13 
REMARK    8  A    between atoms: C_12  and  O_25 
REMARK    9  A    between atoms: C_16  and  O_24 
REMARK       I    between atoms: N_27  and  C_28 
REMARK   10  A    between atoms: C_28  and  C_30 
REMARK   11  A    between atoms: C_30  and  C_31 
REMARK   12  A    between atoms: C_31  and  N_32 
REMARK   13  A    between atoms: C_35  and  O_38 
REMARK   14  A    between atoms: O_38  and  C_39 
REMARK       I    between atoms: C_39  and  N_41 
REMARK   15  A    between atoms: N_41  and  C_42 
REMARK   16  A    between atoms: C_47  and  C_48 
ROOT
HETATM    1  C   UNK N   1      -2.580   3.333  -0.117  0.00  0.00     0.078 C 
HETATM    2  C   UNK N   1      -2.500   4.691   0.094  0.00  0.00     0.068 C 
HETATM    3  C   UNK N   1      -1.457   5.459  -0.430  0.00  0.00     0.059 C 
HETATM    4  C   UNK N   1      -0.376   4.837  -1.039  0.00  0.00     0.061 C 
HETATM    5  C   UNK N   1      -0.475   3.491  -1.333  0.00  0.00     0.037 C 
HETATM    6  C   UNK N   1      -1.597   2.735  -0.938  0.00  0.00    -0.006 C 
HETATM    7 Cl   UNK N   1       0.963   5.764  -1.705  0.00  0.00    -0.082 Cl
ENDROOT
BRANCH   3   8
HETATM    8  N   UNK N   1      -1.690   6.799  -0.791  0.00  0.00    -0.326 N 
HETATM    9  C   UNK N   1      -2.920   7.368  -0.756  0.00  0.00     0.223 C 
HETATM   10  O   UNK N   1      -3.204   8.182  -1.611  0.00  0.00    -0.273 OA
HETATM   11  H   UNK N   1      -0.926   7.347  -1.081  0.00  0.00     0.169 HD
BRANCH   9  12
HETATM   12  C   UNK N   1      -3.944   7.049   0.313  0.00  0.00     0.122 C 
BRANCH  12  13
HETATM   13  C   UNK N   1      -3.433   7.507   1.688  0.00  0.00     0.126 C 
BRANCH  13  14
HETATM   14  N   UNK N   1      -2.730   8.766   1.510  0.00  0.00    -0.412 N 
HETATM   15  C   UNK N   1      -3.207   9.935   2.231  0.00  0.00     0.119 C 
HETATM   16  C   UNK N   1      -2.520  11.188   1.646  0.00  0.00     0.052 C 
HETATM   17  C   UNK N   1      -1.839  10.896   0.279  0.00  0.00     0.136 C 
HETATM   18  C   UNK N   1      -0.773   9.802   0.500  0.00  0.00     0.052 C 
HETATM   19  C   UNK N   1      -1.275   8.688   1.444  0.00  0.00     0.119 C 
BRANCH  17  20
HETATM   20  O   UNK N   1      -2.769  10.445  -0.653  0.00  0.00    -0.298 OA
BRANCH  20  21
HETATM   21  C   UNK N   1      -3.935  11.085  -0.923  0.00  0.00     0.365 C 
HETATM   22  O   UNK N   1      -4.810  10.525  -1.563  0.00  0.00    -0.238 OA
HETATM   23  N   UNK N   1      -4.121  12.321  -0.416  0.00  0.00    -0.302 N 
HETATM   24  H   UNK N   1      -3.313  12.759  -0.062  0.00  0.00     0.171 HD
BRANCH  23  25
HETATM   25  C   UNK N   1      -5.310  13.072  -0.323  0.00  0.00     0.048 A 
HETATM   26  C   UNK N   1      -6.563  12.449  -0.418  0.00  0.00     0.030 A 
HETATM   27  C   UNK N   1      -7.731  13.181  -0.209  0.00  0.00     0.002 A 
HETATM   28  C   UNK N   1      -7.654  14.537   0.107  0.00  0.00     0.001 A 
HETATM   29  C   UNK N   1      -6.411  15.168   0.200  0.00  0.00     0.014 A 
HETATM   30  C   UNK N   1      -5.221  14.453  -0.012  0.00  0.00     0.001 A 
BRANCH  30  31
HETATM   31  C   UNK N   1      -3.902  15.171   0.095  0.00  0.00    -0.024 A 
HETATM   32  C   UNK N   1      -3.867  16.532   0.438  0.00  0.00     0.012 A 
HETATM   33  C   UNK N   1      -2.649  17.217   0.518  0.00  0.00     0.001 A 
HETATM   34  C   UNK N   1      -1.448  16.553   0.253  0.00  0.00     0.000 A 
HETATM   35  C   UNK N   1      -1.463  15.203  -0.092  0.00  0.00     0.001 A 
HETATM   36  C   UNK N   1      -2.678  14.523  -0.170  0.00  0.00     0.012 A 
ENDBRANCH  30  31
ENDBRANCH  23  25
ENDBRANCH  20  21
ENDBRANCH  17  20
ENDBRANCH  13  14
ENDBRANCH  12  13
ENDBRANCH   9  12
ENDBRANCH   3   8
BRANCH   1  37
HETATM   37  O   UNK N   1      -3.659   2.692   0.405  0.00  0.00    -0.355 OA
HETATM   38  C   UNK N   1      -3.950   1.355   0.286  0.00  0.00     0.210 C 
ENDBRANCH   1  37
BRANCH   6  39
HETATM   39  C   UNK N   1      -1.747   1.326  -1.447  0.00  0.00     0.155 C 
BRANCH  39  40
HETATM   40  N   UNK N   1      -0.489   0.739  -1.910  0.00  0.00    -0.415 N 
HETATM   41  H   UNK N   1      -0.357   0.268  -2.806  0.00  0.00     0.153 HD
BRANCH  40  42
HETATM   42  C   UNK N   1       0.552   0.928  -0.896  0.00  0.00     0.150 C 
BRANCH  42  43
HETATM   43  C   UNK N   1       0.033   0.609   0.509  0.00  0.00     0.169 C 
BRANCH  43  44
HETATM   44  C   UNK N   1      -0.013  -0.867   0.644  0.00  0.00    -0.015 A 
HETATM   45  C   UNK N   1      -1.245  -1.498   0.839  0.00  0.00     0.013 A 
HETATM   46  C   UNK N   1      -1.317  -2.891   0.889  0.00  0.00     0.039 A 
HETATM   47  C   UNK N   1      -0.160  -3.662   0.733  0.00  0.00     0.093 A 
HETATM   48  C   UNK N   1       1.082  -3.035   0.538  0.00  0.00     0.079 A 
HETATM   49  C   UNK N   1       1.156  -1.632   0.499  0.00  0.00     0.003 A 
HETATM   50  N   UNK N   1       2.215  -3.771   0.370  0.00  0.00    -0.321 N 
HETATM   51  C   UNK N   1       2.400  -1.020   0.290  0.00  0.00     0.020 A 
HETATM   52  C   UNK N   1       3.540  -1.787   0.121  0.00  0.00     0.075 A 
HETATM   53  C   UNK N   1       3.436  -3.174   0.162  0.00  0.00     0.245 A 
HETATM   54  O   UNK N   1       4.430  -3.856   0.010  0.00  0.00    -0.268 OA
HETATM   55  H   UNK N   1       2.159  -4.754   0.400  0.00  0.00     0.169 HD
BRANCH  47  56
HETATM   56  O   UNK N   1      -0.247  -5.001   0.766  0.00  0.00    -0.358 OA
HETATM   57  H   UNK N   1      -1.087  -5.416   0.789  0.00  0.00     0.217 HD
ENDBRANCH  47  56
ENDBRANCH  43  44
BRANCH  43  58
HETATM   58  O   UNK N   1       0.853   1.190   1.476  0.00  0.00    -0.389 OA
HETATM   59  H   UNK N   1       1.488   0.898   2.148  0.00  0.00     0.210 HD
ENDBRANCH  43  58
ENDBRANCH  42  43
ENDBRANCH  40  42
ENDBRANCH  39  40
ENDBRANCH   6  39
TORSDOF 16
