REMARK  9 active torsions:
REMARK  status: ('A' for Active; 'I' for Inactive)
REMARK    1  A    between atoms: C_2  and  C_3 
REMARK    2  A    between atoms: C_2  and  N_41 
REMARK       I    between atoms: C_3  and  N_5 
REMARK    3  A    between atoms: C_6  and  N_5 
REMARK    4  A    between atoms: C_6  and  C_7 
REMARK    5  A    between atoms: C_6  and  C_13 
REMARK       I    between atoms: C_13  and  N_15 
REMARK    6  A    between atoms: C_19  and  C_20 
REMARK       I    between atoms: C_20  and  N_22 
REMARK    7  A    between atoms: N_22  and  C_23 
REMARK    8  A    between atoms: C_24  and  C_35 
REMARK    9  A    between atoms: C_27  and  C_29 
ROOT
HETATM    1  C   UNK N   1      -3.923  -3.266   1.028  0.00  0.00     0.243 C 
HETATM    2  O   UNK N   1      -3.473  -2.600   1.955  0.00  0.00    -0.271 OA
HETATM    3  N   UNK N   1      -5.210  -3.710   1.107  0.00  0.00    -0.337 N 
HETATM    4  C   UNK N   1      -5.990  -3.519   2.295  0.00  0.00     0.127 C 
HETATM    5  C   UNK N   1      -7.206  -4.410   2.132  0.00  0.00     0.022 C 
HETATM    6  C   UNK N   1      -7.217  -4.864   0.682  0.00  0.00     0.037 C 
HETATM    7  C   UNK N   1      -5.878  -4.473   0.088  0.00  0.00     0.179 C 
ENDROOT
BRANCH   7   8
HETATM    8  C   UNK N   1      -6.126  -3.749  -1.212  0.00  0.00     0.245 C 
HETATM    9  O   UNK N   1      -5.964  -4.376  -2.245  0.00  0.00    -0.271 OA
HETATM   10  N   UNK N   1      -6.653  -2.504  -1.306  0.00  0.00    -0.318 N 
HETATM   11  H   UNK N   1      -7.093  -2.301  -2.163  0.00  0.00     0.169 HD
BRANCH  10  12
HETATM   12  C   UNK N   1      -6.670  -1.449  -0.360  0.00  0.00     0.106 A 
HETATM   13  C   UNK N   1      -7.829  -0.790   0.118  0.00  0.00     0.077 A 
HETATM   14  N   UNK N   1      -7.612   0.522   0.511  0.00  0.00    -0.344 N 
HETATM   15  C   UNK N   1      -6.317   0.902   0.340  0.00  0.00     0.128 A 
ATOM     16  HN  UNK N   1      -8.340   1.131   0.885  1.00  0.00     0.167 HD
HETATM   17  S   UNK N   1      -5.446  -0.352  -0.269  0.00  0.00    -0.048 SA
BRANCH  13  18
HETATM   18  C   UNK N   1      -9.189  -1.374   0.098  0.00  0.00    -0.007 A 
HETATM   19  C   UNK N   1      -9.382  -2.724  -0.227  0.00  0.00     0.014 A 
HETATM   20  C   UNK N   1     -10.662  -3.283  -0.222  0.00  0.00     0.001 A 
HETATM   21  C   UNK N   1     -11.766  -2.491   0.101  0.00  0.00     0.000 A 
HETATM   22  C   UNK N   1     -11.587  -1.144   0.426  0.00  0.00     0.001 A 
HETATM   23  C   UNK N   1     -10.303  -0.588   0.432  0.00  0.00     0.014 A 
ENDBRANCH  13  18
BRANCH  15  24
HETATM   24  C   UNK N   1      -5.843   2.288   0.330  0.00  0.00     0.181 A 
HETATM   25  N   UNK N   1      -6.641   3.363   0.453  0.00  0.00    -0.343 N 
HETATM   26  C   UNK N   1      -5.833   4.415   0.213  0.00  0.00     0.115 A 
ATOM     27  HN  UNK N   1      -7.635   3.378   0.677  1.00  0.00     0.167 HD
HETATM   28  C   UNK N   1      -4.562   3.937  -0.054  0.00  0.00     0.161 A 
HETATM   29  O   UNK N   1      -4.616   2.629   0.019  0.00  0.00    -0.302 OA
ENDBRANCH  15  24
ENDBRANCH  10  12
ENDBRANCH   7   8
BRANCH   1  30
HETATM   30  C   UNK N   1      -3.012  -3.580  -0.157  0.00  0.00     0.181 C 
BRANCH  30  31
HETATM   31  N   UNK N   1      -1.788  -2.790  -0.121  0.00  0.00    -0.346 N 
HETATM   32  C   UNK N   1      -0.816  -2.896   0.830  0.00  0.00     0.240 C 
HETATM   33  O   UNK N   1      -0.907  -3.717   1.730  0.00  0.00    -0.271 OA
HETATM   34  H   UNK N   1      -1.651  -2.129  -0.838  0.00  0.00     0.163 HD
BRANCH  32  35
HETATM   35  C   UNK N   1       0.372  -1.983   0.799  0.00  0.00     0.165 C 
HETATM   36  C   UNK N   1      -0.075  -0.537   0.910  0.00  0.00     0.042 C 
BRANCH  35  37
HETATM   37  N   UNK N   1       1.136  -2.169  -0.425  0.00  0.00    -0.414 N 
HETATM   38  C   UNK N   1       2.089  -3.239  -0.182  0.00  0.00     0.140 C 
HETATM   39  H   UNK N   1       1.023  -1.645  -1.293  0.00  0.00     0.153 HD
ENDBRANCH  35  37
ENDBRANCH  32  35
ENDBRANCH  30  31
BRANCH  30  40
HETATM   40  C   UNK N   1      -2.683  -5.078  -0.358  0.00  0.00     0.018 C 
HETATM   41  C   UNK N   1      -2.611  -5.919   0.925  0.00  0.00     0.007 C 
HETATM   42  C   UNK N   1      -2.419  -7.390   0.576  0.00  0.00     0.000 C 
HETATM   43  C   UNK N   1      -3.598  -7.940  -0.237  0.00  0.00     0.000 C 
HETATM   44  C   UNK N   1      -4.350  -6.876  -1.047  0.00  0.00     0.000 C 
HETATM   45  C   UNK N   1      -3.433  -5.747  -1.520  0.00  0.00     0.007 C 
ENDBRANCH  30  40
ENDBRANCH   1  30
TORSDOF 9
