REMARK  6 active torsions:
REMARK  status: ('A' for Active; 'I' for Inactive)
REMARK    1  A    between atoms: C_5  and  O_7 
REMARK    2  A    between atoms: O_7  and  C_8 
REMARK    3  A    between atoms: C_8  and  C_9 
REMARK    4  A    between atoms: C_12  and  C_15 
REMARK    5  A    between atoms: C_15  and  N_16 
REMARK    6  A    between atoms: C_26  and  N_23 
ROOT
HETATM    1  C   UNK N   1       3.345  -1.261   0.262  0.00  0.00     0.004 A 
HETATM    2  C   UNK N   1       2.021  -1.692   0.448  0.00  0.00     0.018 A 
HETATM    3  C   UNK N   1       1.001  -0.760   0.276  0.00  0.00     0.042 A 
HETATM    4  C   UNK N   1       1.253   0.543  -0.074  0.00  0.00     0.009 A 
HETATM    5  C   UNK N   1       2.570   0.998  -0.279  0.00  0.00     0.078 A 
HETATM    6  C   UNK N   1       3.618   0.077  -0.095  0.00  0.00     0.037 A 
HETATM    7  C   UNK N   1      -0.039   1.317  -0.165  0.00  0.00     0.169 A 
HETATM    8  N   UNK N   1      -1.021   0.302   0.192  0.00  0.00    -0.330 N 
HETATM    9  C   UNK N   1      -0.421  -0.885   0.427  0.00  0.00     0.255 A 
HETATM   10  O   UNK N   1      -1.016  -1.903   0.749  0.00  0.00    -0.267 OA
ENDROOT
BRANCH   5  11
HETATM   11  O   UNK N   1       2.861   2.270  -0.659  0.00  0.00    -0.346 OA
BRANCH  11  12
HETATM   12  C   UNK N   1       1.919   3.121  -1.198  0.00  0.00     0.214 C 
BRANCH  12  13
HETATM   13  C   UNK N   1       2.021   4.506  -0.667  0.00  0.00    -0.034 A 
HETATM   14  C   UNK N   1       0.922   5.094  -0.027  0.00  0.00     0.010 A 
HETATM   15  C   UNK N   1       0.979   6.435   0.374  0.00  0.00     0.009 A 
HETATM   16  C   UNK N   1       2.129   7.193   0.124  0.00  0.00    -0.030 A 
HETATM   17  C   UNK N   1       3.226   6.591  -0.514  0.00  0.00     0.009 A 
HETATM   18  C   UNK N   1       3.171   5.256  -0.908  0.00  0.00     0.010 A 
BRANCH  16  19
HETATM   19  C   UNK N   1       2.164   8.646   0.513  0.00  0.00     0.311 C 
BRANCH  19  20
HETATM   20  N   UNK N   1       3.382   9.291   0.035  0.00  0.00     0.096 N 
HETATM   21  C   UNK N   1       3.152  10.727  -0.102  0.00  0.00     0.299 C 
HETATM   22  C   UNK N   1       4.467  11.385  -0.536  0.00  0.00     0.198 C 
HETATM   23  O   UNK N   1       5.449  11.176   0.453  0.00  0.00    -0.388 OA
HETATM   24  C   UNK N   1       5.708   9.793   0.502  0.00  0.00     0.198 C 
HETATM   25  C   UNK N   1       4.460   9.064   0.999  0.00  0.00     0.299 C 
ENDBRANCH  19  20
ENDBRANCH  16  19
ENDBRANCH  12  13
ENDBRANCH  11  12
ENDBRANCH   5  11
BRANCH   8  26
HETATM   26  C   UNK N   1      -2.455   0.536   0.334  0.00  0.00     0.180 C 
HETATM   27  C   UNK N   1      -3.271  -0.321  -0.620  0.00  0.00     0.044 C 
HETATM   28  C   UNK N   1      -4.756  -0.185  -0.273  0.00  0.00     0.106 C 
HETATM   29  C   UNK N   1      -5.171   1.255  -0.065  0.00  0.00     0.224 C 
HETATM   30  O   UNK N   1      -6.357   1.538  -0.062  0.00  0.00    -0.273 OA
HETATM   31  N   UNK N   1      -4.249   2.241   0.097  0.00  0.00    -0.296 N 
HETATM   32  C   UNK N   1      -2.923   1.980   0.208  0.00  0.00     0.247 C 
HETATM   33  H   UNK N   1      -4.554   3.176   0.135  0.00  0.00     0.171 HD
HETATM   34  O   UNK N   1      -2.137   2.912   0.252  0.00  0.00    -0.271 OA
ENDBRANCH   8  26
TORSDOF 6
