REMARK  10 active torsions:
REMARK  status: ('A' for Active; 'I' for Inactive)
REMARK    1  A    between atoms: C_7  and  C_5 
REMARK    2  A    between atoms: O_29  and  C_5 
REMARK    3  A    between atoms: O_32  and  C_7 
REMARK    4  A    between atoms: C_11  and  C_10 
REMARK    5  A    between atoms: N_28  and  C_10 
REMARK    6  A    between atoms: C_20  and  C_13 
REMARK    7  A    between atoms: N_25  and  C_15 
REMARK    8  A    between atoms: N_25  and  C_19 
REMARK    9  A    between atoms: O_31  and  C_20 
REMARK   10  A    between atoms: N_26  and  O_32 
ROOT
HETATM    1  C   UNK N   1       4.807  -0.594  -0.164  0.00  0.00     0.030 A 
HETATM    2  C   UNK N   1       3.566  -1.190  -0.016  0.00  0.00     0.005 A 
HETATM    3  C   UNK N   1       6.004  -1.309  -0.072  0.00  0.00     0.047 A 
HETATM    4  C   UNK N   1       3.513  -2.562   0.291  0.00  0.00     0.165 A 
HETATM    5  C   UNK N   1       4.696  -3.317   0.374  0.00  0.00     0.183 A 
HETATM    6  C   UNK N   1       5.965  -2.709   0.156  0.00  0.00     0.089 A 
HETATM    7  F   UNK N   1       2.337  -3.185   0.524  0.00  0.00    -0.202 F 
HETATM    8  F   UNK N   1       4.573  -4.620   0.708  0.00  0.00    -0.200 F 
ENDROOT
BRANCH   3   9
HETATM    9  C   UNK N   1       7.267  -0.523  -0.183  0.00  0.00     0.172 C 
HETATM   10  N   UNK N   1       7.191   0.763  -0.246  0.00  0.00    -0.244 N 
ATOM     11  HN  UNK N   1       6.271   1.201  -0.272  1.00  0.00     0.196 HD
BRANCH  10  12
HETATM   12  O   UNK N   1       8.260   1.528  -0.278  0.00  0.00    -0.276 OA
BRANCH  12  13
HETATM   13  C   UNK N   1       8.100   2.890  -0.221  0.00  0.00     0.227 C 
BRANCH  13  14
HETATM   14  C   UNK N   1       9.443   3.577  -0.124  0.00  0.00     0.192 C 
BRANCH  14  15
HETATM   15  O   UNK N   1       9.244   4.952   0.004  0.00  0.00    -0.399 OA
HETATM   16  H   UNK N   1      10.003   5.549   0.093  0.00  0.00     0.209 HD
ENDBRANCH  14  15
ENDBRANCH  13  14
ENDBRANCH  12  13
ENDBRANCH  10  12
BRANCH   9  17
HETATM   17  O   UNK N   1       8.475  -1.125  -0.159  0.00  0.00    -0.344 OA
HETATM   18  H   UNK N   1       8.531  -2.061  -0.142  0.00  0.00     0.219 HD
ENDBRANCH   9  17
ENDBRANCH   3   9
BRANCH   6  19
HETATM   19  N   UNK N   1       7.207  -3.428   0.217  0.00  0.00    -0.350 N 
HETATM   20  H   UNK N   1       7.993  -2.863   0.394  0.00  0.00     0.166 HD
BRANCH  19  21
HETATM   21  C   UNK N   1       7.504  -4.819   0.065  0.00  0.00     0.071 A 
HETATM   22  C   UNK N   1       6.558  -5.751  -0.386  0.00  0.00     0.034 A 
HETATM   23  C   UNK N   1       6.887  -7.105  -0.505  0.00  0.00     0.020 A 
HETATM   24  C   UNK N   1       8.177  -7.538  -0.197  0.00  0.00     0.009 A 
HETATM   25  C   UNK N   1       9.141  -6.615   0.212  0.00  0.00     0.062 A 
HETATM   26  I   UNK N   1       8.664  -9.581  -0.335  0.00  0.00    -0.044 I 
HETATM   27  C   UNK N   1       8.810  -5.262   0.338  0.00  0.00     0.144 A 
HETATM   28  F   UNK N   1       9.761  -4.379   0.731  0.00  0.00    -0.204 F 
ENDBRANCH  19  21
ENDBRANCH   6  19
BRANCH   2  29
HETATM   29  C   UNK N   1       2.386  -0.263  -0.207  0.00  0.00     0.201 C 
BRANCH  29  30
HETATM   30  N   UNK N   1       1.047  -0.823  -0.229  0.00  0.00    -0.222 N 
HETATM   31  C   UNK N   1       0.036  -0.131   0.392  0.00  0.00     0.243 C 
HETATM   32  C   UNK N   1      -1.388  -0.617   0.310  0.00  0.00     0.107 C 
HETATM   33  O   UNK N   1       0.276   0.887   1.024  0.00  0.00    -0.271 OA
HETATM   34  C   UNK N   1      -1.525  -1.912  -0.487  0.00  0.00     0.038 C 
HETATM   35  C   UNK N   1      -0.207  -2.666  -0.468  0.00  0.00     0.202 C 
HETATM   36  O   UNK N   1       0.773  -1.852  -1.069  0.00  0.00    -0.275 OA
ENDBRANCH  29  30
ENDBRANCH   2  29
TORSDOF 10
