REMARK  17 active torsions:
REMARK  status: ('A' for Active; 'I' for Inactive)
REMARK    1  A    between atoms: C_4  and  O_57 
REMARK    2  A    between atoms: C_12  and  O_53 
REMARK    3  A    between atoms: C_14  and  O_42 
REMARK    4  A    between atoms: C_15  and  O_41 
REMARK    5  A    between atoms: C_20  and  O_21 
REMARK    6  A    between atoms: O_21  and  C_22 
REMARK    7  A    between atoms: C_22  and  C_24 
REMARK    8  A    between atoms: C_24  and  C_25 
REMARK    9  A    between atoms: C_24  and  O_40 
REMARK   10  A    between atoms: C_25  and  C_26 
REMARK   11  A    between atoms: C_25  and  N_32 
REMARK       I    between atoms: N_32  and  C_33 
REMARK   12  A    between atoms: C_33  and  O_35 
REMARK   13  A    between atoms: O_35  and  C_36 
REMARK   14  A    between atoms: O_42  and  C_43 
REMARK   15  A    between atoms: C_43  and  C_45 
REMARK   16  A    between atoms: O_53  and  C_54 
REMARK   17  A    between atoms: O_57  and  C_58 
ROOT
HETATM    1  C   UNK N   1       7.332  -1.054   0.852  0.00  0.00     0.046 C 
HETATM    2  C   UNK N   1       6.205  -0.208   0.379  0.00  0.00    -0.048 C 
HETATM    3  C   UNK N   1       4.949  -0.715   0.314  0.00  0.00    -0.028 C 
HETATM    4  C   UNK N   1       4.300  -2.097   0.750  0.00  0.00     0.232 C 
HETATM    5  C   UNK N   1       2.659  -2.165   0.641  0.00  0.00     0.170 C 
HETATM    6  O   UNK N   1       2.205  -3.187   0.148  0.00  0.00    -0.294 OA
HETATM    7  C   UNK N   1       1.556  -0.983   0.995  0.00  0.00     0.037 A 
HETATM    8  C   UNK N   1       1.272  -1.020   2.488  0.00  0.00     0.024 A 
HETATM    9  C   UNK N   1       0.264  -1.616   1.538  0.00  0.00     0.006 A 
HETATM   10  C   UNK N   1      -0.949  -0.686   1.560  0.00  0.00     0.041 C 
HETATM   11  C   UNK N   1      -1.251  -0.024   0.207  0.00  0.00     0.159 A 
HETATM   12  C   UNK N   1      -0.058   0.664  -0.428  0.00  0.00     0.125 A 
HETATM   13  C   UNK N   1       1.273   0.575   0.360  0.00  0.00     0.074 C 
HETATM   14  C   UNK N   1       2.362   1.828   0.061  0.00  0.00     0.176 C 
HETATM   15  C   UNK N   1       3.910   1.614  -0.328  0.00  0.00     0.098 C 
HETATM   16  C   UNK N   1       3.938   0.201   0.054  0.00  0.00     0.013 C 
HETATM   17  C   UNK N   1       3.266  -0.461  -1.228  0.00  0.00     0.023 C 
HETATM   18  C   UNK N   1       3.702   0.322   1.665  0.00  0.00     0.023 C 
HETATM   19  C   UNK N   1       5.114   2.223   0.433  0.00  0.00     0.078 C 
HETATM   20  C   UNK N   1       6.395   1.333   0.191  0.00  0.00     0.164 C 
HETATM   21  C   UNK N   1      -0.214  -0.408  -1.474  0.00  0.00     0.210 A 
HETATM   22  O   UNK N   1      -1.331  -0.976  -0.824  0.00  0.00    -0.380 OA
ENDROOT
BRANCH  20  23
HETATM   23  O   UNK N   1       6.943   1.672  -1.022  0.00  0.00    -0.309 OA
BRANCH  23  24
HETATM   24  C   UNK N   1       7.840   2.682  -1.111  0.00  0.00     0.290 C 
HETATM   25  O   UNK N   1       8.190   3.082  -2.210  0.00  0.00    -0.262 OA
BRANCH  24  26
HETATM   26  C   UNK N   1       8.451   3.271   0.139  0.00  0.00     0.244 C 
BRANCH  26  27
HETATM   27  C   UNK N   1       9.927   2.905   0.301  0.00  0.00     0.158 C 
BRANCH  27  28
HETATM   28  C   UNK N   1      10.107   1.412   0.456  0.00  0.00    -0.032 A 
HETATM   29  C   UNK N   1      10.526   0.891   1.686  0.00  0.00     0.009 A 
HETATM   30  C   UNK N   1      10.733  -0.484   1.832  0.00  0.00     0.001 A 
HETATM   31  C   UNK N   1      10.538  -1.343   0.746  0.00  0.00     0.000 A 
HETATM   32  C   UNK N   1      10.128  -0.829  -0.487  0.00  0.00     0.001 A 
HETATM   33  C   UNK N   1       9.910   0.543  -0.631  0.00  0.00     0.009 A 
ENDBRANCH  27  28
BRANCH  27  34
HETATM   34  N   UNK N   1      10.689   3.403  -0.826  0.00  0.00    -0.325 N 
HETATM   35  C   UNK N   1      12.024   3.223  -0.945  0.00  0.00     0.361 C 
HETATM   36  O   UNK N   1      12.589   3.608  -1.956  0.00  0.00    -0.238 OA
HETATM   37  H   UNK N   1      10.215   3.893  -1.536  0.00  0.00     0.165 HD
BRANCH  35  38
HETATM   38  O   UNK N   1      12.715   2.589   0.044  0.00  0.00    -0.294 OA
BRANCH  38  39
HETATM   39  C   UNK N   1      14.031   2.172  -0.033  0.00  0.00     0.061 C 
HETATM   40  C   UNK N   1      14.412   1.553   1.295  0.00  0.00     0.046 C 
HETATM   41  C   UNK N   1      14.966   3.339  -0.303  0.00  0.00     0.046 C 
HETATM   42  C   UNK N   1      14.191   1.116  -1.114  0.00  0.00     0.046 C 
ENDBRANCH  38  39
ENDBRANCH  35  38
ENDBRANCH  27  34
ENDBRANCH  26  27
BRANCH  26  43
HETATM   43  O   UNK N   1       8.266   4.655   0.180  0.00  0.00    -0.383 OA
HETATM   44  H   UNK N   1       9.034   5.246   0.208  0.00  0.00     0.210 HD
ENDBRANCH  26  43
ENDBRANCH  24  26
ENDBRANCH  23  24
ENDBRANCH  20  23
BRANCH  15  45
HETATM   45  O   UNK N   1       4.119   1.876  -1.695  0.00  0.00    -0.386 OA
HETATM   46  H   UNK N   1       4.347   1.842  -2.637  0.00  0.00     0.210 HD
ENDBRANCH  15  45
BRANCH  14  47
HETATM   47  O   UNK N   1       1.952   3.141   0.119  0.00  0.00    -0.308 OA
BRANCH  47  48
HETATM   48  C   UNK N   1       2.479   4.016   1.016  0.00  0.00     0.293 C 
HETATM   49  O   UNK N   1       3.144   3.610   1.961  0.00  0.00    -0.259 OA
BRANCH  48  50
HETATM   50  C   UNK N   1       2.295   5.465   0.828  0.00  0.00     0.039 A 
HETATM   51  C   UNK N   1       1.492   5.948  -0.212  0.00  0.00     0.017 A 
HETATM   52  C   UNK N   1       1.336   7.324  -0.398  0.00  0.00     0.001 A 
HETATM   53  C   UNK N   1       1.993   8.224   0.447  0.00  0.00     0.000 A 
HETATM   54  C   UNK N   1       2.803   7.748   1.481  0.00  0.00     0.001 A 
HETATM   55  C   UNK N   1       2.951   6.372   1.673  0.00  0.00     0.017 A 
ENDBRANCH  48  50
ENDBRANCH  47  48
ENDBRANCH  14  47
BRANCH   4  56
HETATM   56  O   UNK N   1       4.916  -3.249   0.267  0.00  0.00    -0.304 OA
BRANCH  56  57
HETATM   57  C   UNK N   1       5.735  -3.374  -0.814  0.00  0.00     0.255 C 
HETATM   58  O   UNK N   1       5.893  -2.458  -1.606  0.00  0.00    -0.266 OA
HETATM   59  C   UNK N   1       6.444  -4.663  -1.044  0.00  0.00     0.126 C 
ENDBRANCH  56  57
ENDBRANCH   4  56
BRANCH  12  60
HETATM   60  O   UNK N   1      -0.386   1.902  -0.958  0.00  0.00    -0.305 OA
BRANCH  60  61
HETATM   61  C   UNK N   1      -0.809   2.982  -0.247  0.00  0.00     0.255 C 
HETATM   62  O   UNK N   1      -1.067   4.019  -0.836  0.00  0.00    -0.266 OA
HETATM   63  C   UNK N   1      -0.941   2.944   1.244  0.00  0.00     0.126 C 
ENDBRANCH  60  61
ENDBRANCH  12  60
TORSDOF 17
