REMARK  14 active torsions:
REMARK  status: ('A' for Active; 'I' for Inactive)
REMARK    1  A    between atoms: C_7  and  C_4 
REMARK    2  A    between atoms: C_8  and  C_5 
REMARK    3  A    between atoms: C_9  and  C_6 
REMARK    4  A    between atoms: C_13  and  C_7 
REMARK    5  A    between atoms: C_14  and  C_8 
REMARK    6  A    between atoms: C_15  and  C_9 
REMARK    7  A    between atoms: C_12  and  C_10 
REMARK    8  A    between atoms: O_19  and  C_10 
REMARK    9  A    between atoms: C_12  and  C_11 
REMARK   10  A    between atoms: O_20  and  C_11 
REMARK   11  A    between atoms: O_21  and  C_12 
REMARK   12  A    between atoms: O_19  and  C_13 
REMARK   13  A    between atoms: O_20  and  C_14 
REMARK   14  A    between atoms: O_21  and  C_15 
ROOT
HETATM    1  C   UNK N   1      -0.328  -2.426  -0.489  0.00  0.00     0.180 C 
ENDROOT
BRANCH   1   2
HETATM    2  C   UNK N   1      -1.388  -3.347   0.123  0.00  0.00     0.213 C 
BRANCH   2   3
HETATM    3  O   UNK N   1      -2.647  -3.009  -0.320  0.00  0.00    -0.319 OA
BRANCH   3   4
HETATM    4  C   UNK N   1      -3.745  -3.753  -0.022  0.00  0.00     0.258 C 
HETATM    5  O   UNK N   1      -3.633  -4.898   0.369  0.00  0.00    -0.265 OA
BRANCH   4   6
HETATM    6  C   UNK N   1      -5.113  -3.145  -0.135  0.00  0.00     0.111 C 
BRANCH   6   7
HETATM    7  C   UNK N   1      -5.053  -1.656  -0.435  0.00  0.00     0.005 C 
HETATM    8  C   UNK N   1      -6.384  -1.017  -0.104  0.00  0.00     0.005 C 
ENDBRANCH   6   7
ENDBRANCH   4   6
ENDBRANCH   3   4
ENDBRANCH   2   3
ENDBRANCH   1   2
BRANCH   1   9
HETATM    9  C   UNK N   1       1.026  -2.617   0.172  0.00  0.00     0.213 C 
BRANCH   9  10
HETATM   10  O   UNK N   1       1.597  -3.818  -0.181  0.00  0.00    -0.319 OA
BRANCH  10  11
HETATM   11  C   UNK N   1       2.916  -4.065   0.022  0.00  0.00     0.258 C 
HETATM   12  O   UNK N   1       3.385  -5.140  -0.313  0.00  0.00    -0.265 OA
BRANCH  11  13
HETATM   13  C   UNK N   1       3.811  -3.027   0.639  0.00  0.00     0.111 C 
BRANCH  13  14
HETATM   14  C   UNK N   1       4.845  -2.554  -0.364  0.00  0.00     0.005 C 
HETATM   15  C   UNK N   1       5.397  -1.214   0.078  0.00  0.00     0.005 C 
ENDBRANCH  13  14
ENDBRANCH  11  13
ENDBRANCH  10  11
ENDBRANCH   9  10
ENDBRANCH   1   9
BRANCH   1  16
HETATM   16  O   UNK N   1      -0.618  -1.066  -0.528  0.00  0.00    -0.312 OA
BRANCH  16  17
HETATM   17  C   UNK N   1      -1.415  -0.331   0.296  0.00  0.00     0.259 C 
HETATM   18  O   UNK N   1      -2.093  -0.855   1.167  0.00  0.00    -0.265 OA
BRANCH  17  19
HETATM   19  C   UNK N   1      -1.401   1.156   0.166  0.00  0.00     0.111 C 
BRANCH  19  20
HETATM   20  C   UNK N   1      -2.766   1.695  -0.214  0.00  0.00     0.005 C 
HETATM   21  C   UNK N   1      -2.747   3.205  -0.103  0.00  0.00     0.005 C 
ENDBRANCH  19  20
ENDBRANCH  17  19
ENDBRANCH  16  17
ENDBRANCH   1  16
TORSDOF 14
