REMARK  4 active torsions:
REMARK  status: ('A' for Active; 'I' for Inactive)
REMARK    1  A    between atoms: C_3  and  N_16 
REMARK    2  A    between atoms: C_9  and  N_8 
REMARK    3  A    between atoms: C_12  and  C_14 
REMARK    4  A    between atoms: C_14  and  O_15 
ROOT
HETATM    1  C   UNK N   1       1.755   1.180   0.121  0.00  0.00     0.145 A 
HETATM    2  C   UNK N   1       1.539   2.546  -0.069  0.00  0.00     0.175 A 
HETATM    3  C   UNK N   1       2.626   3.418  -0.004  0.00  0.00     0.143 A 
HETATM    4  N   UNK N   1       3.867   2.929   0.227  0.00  0.00    -0.292 N 
ATOM      5  HN  UNK N   1       4.659   3.571   0.268  1.00  0.00     0.172 HD
HETATM    6  C   UNK N   1       4.078   1.586   0.405  0.00  0.00     0.330 A 
HETATM    7  O   UNK N   1       5.205   1.184   0.631  0.00  0.00    -0.246 OA
HETATM    8  N   UNK N   1       3.012   0.705   0.353  0.00  0.00    -0.276 N 
HETATM    9  F   UNK N   1       0.288   3.016  -0.300  0.00  0.00    -0.201 F 
ENDROOT
BRANCH   8  10
HETATM   10  C   UNK N   1       3.242  -0.725   0.622  0.00  0.00     0.257 C 
HETATM   11  C   UNK N   1       4.017  -1.394  -0.449  0.00  0.00     0.025 C 
HETATM   12  C   UNK N   1       3.531  -2.593  -0.616  0.00  0.00     0.007 C 
HETATM   13  C   UNK N   1       2.394  -2.778   0.317  0.00  0.00     0.170 C 
HETATM   14  O   UNK N   1       2.048  -1.477   0.760  0.00  0.00    -0.352 OA
BRANCH  13  15
HETATM   15  C   UNK N   1       1.221  -3.454  -0.364  0.00  0.00     0.200 C 
BRANCH  15  16
HETATM   16  O   UNK N   1       1.493  -4.817  -0.502  0.00  0.00    -0.398 OA
HETATM   17  H   UNK N   1       0.768  -5.454  -0.599  0.00  0.00     0.209 HD
ENDBRANCH  15  16
ENDBRANCH  13  15
ENDBRANCH   8  10
BRANCH   3  18
HETATM   18  N   UNK N   1       2.438   4.805  -0.168  0.00  0.00    -0.383 N 
HETATM   19  H   UNK N   1       3.212   5.403  -0.283  0.00  0.00     0.157 HD
HETATM   20  H   UNK N   1       1.528   5.179  -0.168  0.00  0.00     0.157 HD
ENDBRANCH   3  18
TORSDOF 4
