REMARK  9 active torsions:
REMARK  status: ('A' for Active; 'I' for Inactive)
REMARK    1  A    between atoms: C_17  and  C_11 
REMARK    2  A    between atoms: C_22  and  C_11 
REMARK    3  A    between atoms: C_18  and  C_14 
REMARK    4  A    between atoms: N_25  and  C_14 
REMARK    5  A    between atoms: C_18  and  C_15 
REMARK    6  A    between atoms: O_27  and  C_15 
REMARK    7  A    between atoms: O_26  and  C_18 
REMARK    8  A    between atoms: O_27  and  C_21 
REMARK    9  A    between atoms: N_25  and  C_22 
ROOT
HETATM    1  C   UNK N   1      -4.865  -5.748  -0.623  0.00  0.00     0.002 A 
HETATM    2  C   UNK N   1      -3.491  -5.870  -0.434  0.00  0.00     0.003 A 
HETATM    3  C   UNK N   1      -5.507  -4.539  -0.366  0.00  0.00     0.025 A 
HETATM    4  C   UNK N   1      -2.765  -4.804   0.080  0.00  0.00     0.038 A 
HETATM    5  C   UNK N   1      -5.552  -2.212   0.256  0.00  0.00     0.102 C 
HETATM    6  C   UNK N   1      -4.795  -3.443   0.105  0.00  0.00     0.077 A 
HETATM    7  C   UNK N   1      -3.392  -3.595   0.374  0.00  0.00     0.089 A 
HETATM    8  N   UNK N   1      -6.191  -1.250   0.361  0.00  0.00    -0.191 NA
ENDROOT
BRANCH   7   9
HETATM    9  O   UNK N   1      -2.613  -2.623   0.885  0.00  0.00    -0.347 OA
BRANCH   9  10
HETATM   10  C   UNK N   1      -2.962  -1.308   0.864  0.00  0.00     0.209 C 
BRANCH  10  11
HETATM   11  C   UNK N   1      -3.015  -0.860  -0.582  0.00  0.00     0.159 C 
BRANCH  11  12
HETATM   12  C   UNK N   1      -1.723  -1.148  -1.326  0.00  0.00     0.148 C 
BRANCH  12  13
HETATM   13  N   UNK N   1      -0.684  -0.231  -0.911  0.00  0.00    -0.410 N 
HETATM   14  H   UNK N   1      -0.421   0.592  -1.453  0.00  0.00     0.154 HD
BRANCH  13  15
HETATM   15  C   UNK N   1      -0.041  -0.590   0.358  0.00  0.00     0.022 C 
HETATM   16  C   UNK N   1       0.303  -2.063   0.508  0.00  0.00     0.038 C 
HETATM   17  C   UNK N   1      -0.678   0.023   1.601  0.00  0.00     0.038 C 
BRANCH  15  18
HETATM   18  C   UNK N   1       1.268  -0.045   0.305  0.00  0.00     0.070 C 
BRANCH  18  19
HETATM   19  C   UNK N   1       1.500   1.273  -0.275  0.00  0.00    -0.028 A 
HETATM   20  C   UNK N   1       0.760   2.454  -0.278  0.00  0.00     0.096 A 
HETATM   21  N   UNK N   1       1.632   3.496  -0.322  0.00  0.00    -0.365 N 
HETATM   22  C   UNK N   1       2.858   2.928  -0.299  0.00  0.00     0.042 A 
HETATM   23  H   UNK N   1       1.416   4.456  -0.361  0.00  0.00     0.165 HD
HETATM   24  C   UNK N   1       4.081   3.527  -0.037  0.00  0.00     0.030 A 
HETATM   25  C   UNK N   1       2.773   1.589  -0.341  0.00  0.00    -0.002 A 
HETATM   26  C   UNK N   1       5.207   2.681   0.135  0.00  0.00     0.002 A 
HETATM   27  C   UNK N   1       5.094   1.279   0.011  0.00  0.00     0.001 A 
HETATM   28  C   UNK N   1       3.852   0.720  -0.215  0.00  0.00     0.014 A 
ENDBRANCH  18  19
ENDBRANCH  15  18
ENDBRANCH  13  15
ENDBRANCH  12  13
ENDBRANCH  11  12
BRANCH  11  29
HETATM   29  O   UNK N   1      -3.354   0.485  -0.641  0.00  0.00    -0.392 OA
HETATM   30  H   UNK N   1      -2.658   1.160  -0.681  0.00  0.00     0.210 HD
ENDBRANCH  11  29
ENDBRANCH  10  11
ENDBRANCH   9  10
ENDBRANCH   7   9
TORSDOF 9
