REMARK  9 active torsions:
REMARK  status: ('A' for Active; 'I' for Inactive)
REMARK    1  A    between atoms: C_2  and  C_3 
REMARK    2  A    between atoms: C_3  and  C_4 
REMARK    3  A    between atoms: C_5  and  C_15 
REMARK    4  A    between atoms: C_8  and  C_11 
REMARK    5  A    between atoms: C_16  and  C_17 
REMARK       I    between atoms: C_17  and  N_19 
REMARK    6  A    between atoms: N_19  and  C_20 
REMARK    7  A    between atoms: C_20  and  C_22 
REMARK    8  A    between atoms: C_25  and  N_29 
REMARK    9  A    between atoms: N_29  and  S_30 
ROOT
HETATM    1  C   UNK N   1       6.088  -2.331  -0.882  0.00  0.00     0.241 C 
HETATM    2  O   UNK N   1       6.485  -1.172  -0.916  0.00  0.00    -0.269 OA
HETATM    3  N   UNK N   1       6.428  -3.165   0.134  0.00  0.00    -0.349 N 
HETATM    4  H   UNK N   1       5.992  -4.047   0.134  0.00  0.00     0.163 HD
ENDROOT
BRANCH   1   5
HETATM    5  C   UNK N   1       5.481  -2.895  -2.089  0.00  0.00     0.075 C 
HETATM    6  C   UNK N   1       4.705  -3.985  -2.143  0.00  0.00     0.019 C 
BRANCH   6   7
HETATM    7  C   UNK N   1       3.785  -4.521  -1.116  0.00  0.00    -0.013 A 
HETATM    8  C   UNK N   1       2.770  -3.722  -0.542  0.00  0.00     0.019 A 
HETATM    9  N   UNK N   1       1.740  -4.321   0.118  0.00  0.00    -0.355 N 
HETATM   10  C   UNK N   1       1.679  -5.669   0.300  0.00  0.00     0.117 A 
ATOM     11  HN  UNK N   1       0.988  -3.740   0.488  1.00  0.00     0.166 HD
HETATM   12  C   UNK N   1       2.707  -6.480  -0.190  0.00  0.00     0.035 A 
HETATM   13  C   UNK N   1       3.748  -5.903  -0.914  0.00  0.00     0.015 A 
BRANCH   8  14
HETATM   14  C   UNK N   1       2.703  -2.246  -0.787  0.00  0.00     0.057 C 
BRANCH  14  15
HETATM   15  C   UNK N   1       2.655  -1.478   0.522  0.00  0.00     0.002 C 
HETATM   16  C   UNK N   1       1.354  -0.705   0.600  0.00  0.00     0.005 C 
ENDBRANCH  14  15
ENDBRANCH   8  14
BRANCH  10  17
HETATM   17  C   UNK N   1       0.395  -6.291   0.759  0.00  0.00     0.432 C 
HETATM   18  F   UNK N   1      -0.496  -6.227  -0.300  0.00  0.00    -0.165 F 
HETATM   19  F   UNK N   1       0.569  -7.619   1.106  0.00  0.00    -0.165 F 
HETATM   20  F   UNK N   1      -0.136  -5.599   1.830  0.00  0.00    -0.165 F 
ENDBRANCH  10  17
ENDBRANCH   6   7
ENDBRANCH   1   5
BRANCH   3  21
HETATM   21  C   UNK N   1       7.362  -2.910   1.224  0.00  0.00     0.114 C 
HETATM   22  C   UNK N   1       7.726  -1.435   1.420  0.00  0.00     0.037 C 
BRANCH  21  23
HETATM   23  C   UNK N   1       8.567  -3.789   0.984  0.00  0.00    -0.030 A 
HETATM   24  C   UNK N   1       9.833  -3.253   0.703  0.00  0.00     0.054 A 
HETATM   25  C   UNK N   1      10.912  -4.088   0.395  0.00  0.00     0.147 A 
HETATM   26  C   UNK N   1      10.737  -5.489   0.370  0.00  0.00     0.119 A 
HETATM   27  F   UNK N   1      12.113  -3.520   0.146  0.00  0.00    -0.204 F 
HETATM   28  C   UNK N   1       9.474  -6.022   0.671  0.00  0.00     0.147 A 
HETATM   29  C   UNK N   1       8.400  -5.178   0.963  0.00  0.00     0.054 A 
HETATM   30  F   UNK N   1       9.276  -7.363   0.647  0.00  0.00    -0.204 F 
BRANCH  26  31
HETATM   31  N   UNK N   1      11.795  -6.390   0.052  0.00  0.00    -0.279 N 
HETATM   32  H   UNK N   1      11.795  -7.267   0.501  0.00  0.00     0.179 HD
BRANCH  31  33
HETATM   33  S   UNK N   1      13.102  -6.055  -1.083  0.00  0.00     0.227 S 
HETATM   34  O   UNK N   1      14.072  -5.030  -0.481  0.00  0.00    -0.206 OA
HETATM   35  O   UNK N   1      13.927  -7.349  -1.162  0.00  0.00    -0.206 OA
HETATM   36  C   UNK N   1      13.683  -6.502   0.578  0.00  0.00     0.186 C 
ENDBRANCH  31  33
ENDBRANCH  26  31
ENDBRANCH  21  23
ENDBRANCH   3  21
TORSDOF 9
