REMARK  1 active torsions:
REMARK  status: ('A' for Active; 'I' for Inactive)
REMARK    1  A    between atoms: C_3  and  C_12 
ROOT
HETATM    1  O   UNK N   1       1.754  -3.077   0.031  0.00  0.00    -0.286 OA
HETATM    2  C   UNK N   1       1.752  -1.859   0.030  0.00  0.00     0.197 A 
HETATM    3  C   UNK N   1       0.540  -1.129   0.037  0.00  0.00     0.048 A 
HETATM    4  C   UNK N   1       0.620   0.274   0.037  0.00  0.00     0.159 A 
HETATM    5  O   UNK N   1       1.795   0.902   0.028  0.00  0.00    -0.321 OA
HETATM    6  C   UNK N   1       2.950   0.242   0.015  0.00  0.00     0.089 A 
HETATM    7  C   UNK N   1       4.157   0.948  -0.005  0.00  0.00     0.038 A 
HETATM    8  C   UNK N   1       5.374   0.256  -0.024  0.00  0.00     0.003 A 
HETATM    9  C   UNK N   1       5.389  -1.141  -0.021  0.00  0.00     0.001 A 
HETATM   10  C   UNK N   1       4.189  -1.852   0.000  0.00  0.00     0.018 A 
HETATM   11  C   UNK N   1       2.965  -1.166   0.017  0.00  0.00     0.049 A 
ENDROOT
BRANCH   3  12
HETATM   12  C   UNK N   1      -0.797  -1.797   0.029  0.00  0.00    -0.020 A 
HETATM   13  C   UNK N   1      -0.906  -3.198   0.014  0.00  0.00     0.012 A 
HETATM   14  C   UNK N   1      -2.153  -3.821  -0.008  0.00  0.00     0.001 A 
HETATM   15  C   UNK N   1      -3.314  -3.050  -0.016  0.00  0.00     0.000 A 
HETATM   16  C   UNK N   1      -3.227  -1.656  -0.000  0.00  0.00     0.001 A 
HETATM   17  C   UNK N   1      -1.975  -1.031   0.021  0.00  0.00     0.012 A 
ENDBRANCH   3  12
TORSDOF 1
