REMARK  3 active torsions:
REMARK  status: ('A' for Active; 'I' for Inactive)
REMARK    1  A    between atoms: C_2  and  C_13 
REMARK       I    between atoms: C_8  and  N_11 
REMARK    2  A    between atoms: C_15  and  N_20 
REMARK       I    between atoms: N_20  and  C_21 
REMARK    3  A    between atoms: C_21  and  C_23 
ROOT
HETATM    1  C   UNK N   1       1.240  -3.629   0.164  0.00  0.00     0.012 A 
HETATM    2  C   UNK N   1       0.552  -2.706  -0.639  0.00  0.00     0.042 A 
HETATM    3  C   UNK N   1       1.205  -1.573  -1.149  0.00  0.00     0.035 A 
HETATM    4  C   UNK N   1       2.544  -1.351  -0.832  0.00  0.00     0.032 A 
HETATM    5  C   UNK N   1       3.236  -2.246  -0.024  0.00  0.00     0.045 A 
HETATM    6  C   UNK N   1       2.593  -3.372   0.486  0.00  0.00     0.125 A 
HETATM    7  F   UNK N   1       3.292  -4.220   1.280  0.00  0.00    -0.205 F 
ENDROOT
BRANCH   1   8
HETATM    8  C   UNK N   1       0.554  -4.894   0.645  0.00  0.00     0.088 C 
HETATM    9  C   UNK N   1       0.565  -4.927   2.172  0.00  0.00     0.045 C 
HETATM   10  C   UNK N   1       1.383  -6.050   0.082  0.00  0.00     0.200 C 
HETATM   11  S   UNK N   1       0.550  -7.587   0.433  0.00  0.00     0.248 S 
HETATM   12  O   UNK N   1       0.790  -8.228   1.807  0.00  0.00    -0.205 OA
HETATM   13  O   UNK N   1       0.808  -8.701  -0.593  0.00  0.00    -0.205 OA
HETATM   14  N   UNK N   1      -1.160  -7.289   0.338  0.00  0.00    -0.113 N 
HETATM   15  C   UNK N   1      -1.631  -5.958   0.113  0.00  0.00     0.683 C 
HETATM   16  C   UNK N   1      -2.064  -8.409   0.236  0.00  0.00     0.189 C 
HETATM   17  N   UNK N   1      -0.839  -4.924   0.192  0.00  0.00    -0.212 N 
HETATM   18  N   UNK N   1      -2.978  -5.749  -0.254  0.00  0.00    -0.234 N 
ATOM     19  HN  UNK N   1      -1.237  -4.030  -0.095  1.00  0.00     0.179 HD
HETATM   20  H   UNK N   1      -3.321  -4.863  -0.510  0.00  0.00     0.174 HD
HETATM   21  H   UNK N   1      -3.595  -6.516  -0.254  0.00  0.00     0.174 HD
ENDBRANCH   1   8
BRANCH   3  22
HETATM   22  N   UNK N   1       0.484  -0.499  -1.712  0.00  0.00    -0.322 N 
HETATM   23  C   UNK N   1      -0.864  -0.447  -1.773  0.00  0.00     0.272 C 
HETATM   24  O   UNK N   1      -1.523  -1.400  -2.169  0.00  0.00    -0.266 OA
HETATM   25  H   UNK N   1       0.994   0.257  -2.083  0.00  0.00     0.169 HD
BRANCH  23  26
HETATM   26  C   UNK N   1      -1.490   0.655  -1.035  0.00  0.00     0.101 A 
HETATM   27  C   UNK N   1      -2.873   0.729  -0.840  0.00  0.00     0.038 A 
HETATM   28  C   UNK N   1      -3.384   1.709   0.017  0.00  0.00     0.046 A 
HETATM   29  C   UNK N   1      -2.512   2.580   0.679  0.00  0.00     0.131 A 
HETATM   30  C   UNK N   1      -1.143   2.474   0.461  0.00  0.00     0.130 A 
HETATM   31  F   UNK N   1      -2.986   3.521   1.527  0.00  0.00    -0.205 F 
HETATM   32  N   UNK N   1      -0.668   1.523  -0.378  0.00  0.00    -0.359 N 
ATOM     33  HN  UNK N   1       0.339   1.453  -0.523  1.00  0.00     0.165 HD
ENDBRANCH  23  26
ENDBRANCH   3  22
TORSDOF 3
