REMARK  5 active torsions:
REMARK  status: ('A' for Active; 'I' for Inactive)
REMARK    1  A    between atoms: C_3  and  C_8 
REMARK       I    between atoms: C_8  and  N_10 
REMARK    2  A    between atoms: N_10  and  C_11 
REMARK    3  A    between atoms: C_14  and  C_19 
REMARK    4  A    between atoms: C_15  and  N_18 
REMARK    5  A    between atoms: C_21  and  O_26 
ROOT
HETATM    1  C   UNK N   1       3.342  -4.038   0.217  0.00  0.00     0.109 A 
HETATM    2  C   UNK N   1       3.620  -2.703   0.518  0.00  0.00     0.050 A 
HETATM    3  C   UNK N   1       4.948  -2.259   0.481  0.00  0.00     0.020 A 
HETATM    4  C   UNK N   1       5.990  -3.141   0.137  0.00  0.00     0.020 A 
HETATM    5  C   UNK N   1       5.643  -4.460  -0.231  0.00  0.00     0.111 A 
HETATM    6  N   UNK N   1       4.351  -4.858  -0.173  0.00  0.00    -0.328 N 
ATOM      7  HN  UNK N   1       4.125  -5.818  -0.434  1.00  0.00     0.169 HD
ENDROOT
BRANCH   1   8
HETATM    8  N   UNK N   1       2.006  -4.520   0.199  0.00  0.00    -0.308 N 
HETATM    9  C   UNK N   1       1.716  -5.844   0.330  0.00  0.00     0.275 C 
HETATM   10  O   UNK N   1       2.573  -6.629   0.715  0.00  0.00    -0.266 OA
HETATM   11  H   UNK N   1       1.268  -3.877   0.088  0.00  0.00     0.170 HD
BRANCH   9  12
HETATM   12  C   UNK N   1       0.387  -6.373  -0.035  0.00  0.00     0.119 A 
HETATM   13  N   UNK N   1      -0.640  -5.675  -0.551  0.00  0.00    -0.292 N 
HETATM   14  C   UNK N   1      -0.692  -4.249  -0.832  0.00  0.00     0.178 C 
HETATM   15  N   UNK N   1      -1.639  -6.497  -0.811  0.00  0.00    -0.309 N 
HETATM   16  C   UNK N   1      -1.266  -7.747  -0.460  0.00  0.00     0.110 A 
ATOM     17  HN  UNK N   1      -2.540  -6.234  -1.209  1.00  0.00     0.186 HD
HETATM   18  C   UNK N   1       0.028  -7.705   0.039  0.00  0.00     0.055 A 
ENDBRANCH   9  12
ENDBRANCH   1   8
BRANCH   5  19
HETATM   19  N   UNK N   1       6.594  -5.352  -0.765  0.00  0.00    -0.385 N 
HETATM   20  H   UNK N   1       6.386  -6.239  -1.139  0.00  0.00     0.157 HD
HETATM   21  H   UNK N   1       7.536  -5.067  -0.765  0.00  0.00     0.157 HD
ENDBRANCH   5  19
BRANCH   4  22
HETATM   22  C   UNK N   1       7.398  -2.640   0.113  0.00  0.00     0.002 A 
HETATM   23  C   UNK N   1       7.630  -1.334  -0.353  0.00  0.00     0.051 A 
HETATM   24  C   UNK N   1       8.932  -0.806  -0.419  0.00  0.00     0.069 A 
HETATM   25  C   UNK N   1      10.008  -1.583   0.003  0.00  0.00     0.038 A 
HETATM   26  C   UNK N   1       9.796  -2.863   0.508  0.00  0.00     0.027 A 
HETATM   27  C   UNK N   1       8.511  -3.403   0.571  0.00  0.00     0.045 A 
HETATM   28 Cl   UNK N   1       8.364  -4.969   1.366  0.00  0.00    -0.083 Cl
BRANCH  24  29
HETATM   29  O   UNK N   1       9.173   0.442  -0.885  0.00  0.00    -0.356 OA
HETATM   30  C   UNK N   1       8.182   1.287  -1.327  0.00  0.00     0.210 C 
ENDBRANCH  24  29
ENDBRANCH   4  22
TORSDOF 5
