REMARK  2 active torsions:
REMARK  status: ('A' for Active; 'I' for Inactive)
REMARK    1  A    between atoms: C_17  and  N_28 
REMARK    2  A    between atoms: N_28  and  S_29 
ROOT
HETATM    1  C   UNK N   1      11.722   6.327   0.497  0.00  0.00     0.011 C 
HETATM    2  C   UNK N   1      10.782   5.166   0.252  0.00  0.00     0.001 C 
HETATM    3  C   UNK N   1      10.305   4.559   1.563  0.00  0.00     0.039 C 
HETATM    4  C   UNK N   1       9.288   3.428   1.313  0.00  0.00     0.145 C 
HETATM    5  C   UNK N   1       9.428   2.780  -0.061  0.00  0.00     0.112 C 
HETATM    6  C   UNK N   1       8.542   3.665  -0.866  0.00  0.00     0.041 C 
HETATM    7  C   UNK N   1       7.407   3.959   0.106  0.00  0.00     0.070 C 
HETATM    8  O   UNK N   1       7.965   3.931   1.412  0.00  0.00    -0.372 OA
HETATM    9  C   UNK N   1       6.314   2.900  -0.039  0.00  0.00     0.039 C 
HETATM   10  C   UNK N   1       5.393   2.922   1.150  0.00  0.00     0.012 C 
HETATM   11  C   UNK N   1       4.271   3.938   1.057  0.00  0.00     0.019 C 
HETATM   12  C   UNK N   1       3.194   3.667   0.046  0.00  0.00    -0.001 C 
HETATM   13  C   UNK N   1       2.371   2.400   0.020  0.00  0.00     0.006 C 
HETATM   14  C   UNK N   1       1.621   2.419  -1.322  0.00  0.00     0.006 C 
HETATM   15  C   UNK N   1       0.812   3.717  -1.571  0.00  0.00    -0.004 C 
HETATM   16  C   UNK N   1      -0.648   3.601  -1.132  0.00  0.00     0.031 C 
HETATM   17  C   UNK N   1      -0.963   4.419   0.116  0.00  0.00     0.093 C 
HETATM   18  C   UNK N   1      -0.620   5.904  -0.091  0.00  0.00     0.026 C 
HETATM   19  C   UNK N   1       0.513   6.180  -1.096  0.00  0.00     0.012 C 
HETATM   20  C   UNK N   1       1.534   5.043  -1.185  0.00  0.00    -0.036 C 
HETATM   21  C   UNK N   1       2.267   4.873   0.159  0.00  0.00     0.003 C 
HETATM   22  C   UNK N   1       3.167   6.039   0.606  0.00  0.00     0.040 C 
HETATM   23  C   UNK N   1       4.497   5.358   0.644  0.00  0.00    -0.073 C 
HETATM   24  C   UNK N   1       5.590   5.973   0.117  0.00  0.00    -0.078 C 
HETATM   25  C   UNK N   1       6.937   5.371  -0.214  0.00  0.00     0.072 C 
HETATM   26  C   UNK N   1       5.459   7.402  -0.319  0.00  0.00     0.044 C 
HETATM   27  C   UNK N   1       2.528   5.383  -2.290  0.00  0.00     0.016 C 
HETATM   28  C   UNK N   1       8.168   3.122  -2.242  0.00  0.00     0.015 C 
HETATM   29  N   UNK N   1      10.817   2.766  -0.551  0.00  0.00    -0.414 N 
HETATM   30  C   UNK N   1      11.475   4.090  -0.590  0.00  0.00     0.118 C 
HETATM   31  H   UNK N   1      11.289   1.909  -0.840  0.00  0.00     0.153 HD
ENDROOT
BRANCH  17  32
HETATM   32  N   UNK N   1      -2.387   4.321   0.425  0.00  0.00    -0.315 N 
HETATM   33  H   UNK N   1      -3.052   5.089   0.345  0.00  0.00     0.172 HD
BRANCH  32  34
HETATM   34  S   UNK N   1      -2.799   2.679   0.956  0.00  0.00     0.223 S 
HETATM   35  O   UNK N   1      -2.146   2.515   2.337  0.00  0.00    -0.206 OA
HETATM   36  O   UNK N   1      -4.285   2.781   1.332  0.00  0.00    -0.206 OA
HETATM   37  C   UNK N   1      -2.509   1.283  -0.170  0.00  0.00     0.185 C 
ENDBRANCH  32  34
ENDBRANCH  17  32
TORSDOF 2
