REMARK  7 active torsions:
REMARK  status: ('A' for Active; 'I' for Inactive)
REMARK    1  A    between atoms: C_6  and  N_8 
REMARK    2  A    between atoms: N_8  and  N_9 
REMARK       I    between atoms: N_9  and  C_10 
REMARK    3  A    between atoms: C_10  and  C_12 
REMARK    4  A    between atoms: C_13  and  N_14 
REMARK    5  A    between atoms: C_18  and  C_21 
REMARK    6  A    between atoms: C_23  and  C_31 
REMARK    7  A    between atoms: C_25  and  C_27 
ROOT
HETATM    1  N   UNK N   1       0.723  -0.036   0.317  0.00  0.00    -0.261 N 
HETATM    2  C   UNK N   1       1.905  -0.689   0.403  0.00  0.00     0.207 A 
HETATM    3  N   UNK N   1       1.694  -2.021   0.488  0.00  0.00    -0.335 N 
ATOM      4  HN  UNK N   1       2.385  -2.767   0.563  1.00  0.00     0.168 HD
HETATM    5  C   UNK N   1       0.350  -2.126   0.449  0.00  0.00     0.131 A 
HETATM    6  N   UNK N   1      -0.242  -0.924   0.358  0.00  0.00    -0.278 N 
ATOM      7  HN  UNK N   1      -1.244  -0.738   0.326  1.00  0.00     0.189 HD
ENDROOT
BRANCH   1   8
HETATM    8  C   UNK N   1       0.475   1.359   0.062  0.00  0.00     0.123 C 
HETATM    9  C   UNK N   1       1.273   2.085  -0.736  0.00  0.00     0.095 C 
BRANCH   9  10
HETATM   10  C   UNK N   1       2.329   1.422  -1.506  0.00  0.00     0.261 C 
HETATM   11  N   UNK N   1       3.594   1.567  -1.081  0.00  0.00    -0.265 N 
HETATM   12  H   UNK N   1       3.813   2.305  -0.468  0.00  0.00     0.190 HD
HETATM   13  O   UNK N   1       2.042   0.566  -2.333  0.00  0.00    -0.267 OA
BRANCH  11  14
HETATM   14  N   UNK N   1       4.589   0.712  -1.481  0.00  0.00    -0.283 N 
HETATM   15  H   UNK N   1       4.501   0.198  -2.315  0.00  0.00     0.188 HD
BRANCH  14  16
HETATM   16  C   UNK N   1       5.741   0.583  -0.675  0.00  0.00     0.119 A 
HETATM   17  N   UNK N   1       6.631  -0.417  -0.915  0.00  0.00    -0.351 N 
HETATM   18  C   UNK N   1       7.726  -0.592  -0.125  0.00  0.00     0.089 A 
ATOM     19  HN  UNK N   1       6.475  -1.047  -1.702  1.00  0.00     0.166 HD
HETATM   20  C   UNK N   1       7.958   0.262   0.957  0.00  0.00     0.017 A 
HETATM   21  C   UNK N   1       7.057   1.291   1.222  0.00  0.00     0.005 A 
HETATM   22  C   UNK N   1       5.939   1.450   0.409  0.00  0.00     0.050 A 
ENDBRANCH  14  16
ENDBRANCH  11  14
ENDBRANCH   9  10
ENDBRANCH   1   8
BRANCH   5  23
HETATM   23  C   UNK N   1      -0.413  -3.369   0.399  0.00  0.00     0.011 A 
HETATM   24  C   UNK N   1       0.185  -4.636   0.330  0.00  0.00     0.031 A 
HETATM   25  C   UNK N   1      -0.626  -5.784   0.236  0.00  0.00     0.049 A 
HETATM   26  C   UNK N   1      -2.026  -5.643   0.205  0.00  0.00     0.032 A 
HETATM   27  C   UNK N   1      -2.611  -4.372   0.272  0.00  0.00     0.049 A 
HETATM   28  C   UNK N   1      -1.797  -3.255   0.367  0.00  0.00     0.031 A 
BRANCH  25  29
HETATM   29  C   UNK N   1       0.001  -7.149   0.183  0.00  0.00     0.417 C 
HETATM   30  F   UNK N   1       0.777  -7.266  -0.956  0.00  0.00    -0.166 F 
HETATM   31  F   UNK N   1      -0.967  -8.140   0.165  0.00  0.00    -0.166 F 
HETATM   32  F   UNK N   1       0.801  -7.334   1.296  0.00  0.00    -0.166 F 
ENDBRANCH  25  29
BRANCH  27  33
HETATM   33  C   UNK N   1      -4.098  -4.191   0.246  0.00  0.00     0.417 C 
HETATM   34  F   UNK N   1      -4.599  -4.635  -0.962  0.00  0.00    -0.166 F 
HETATM   35  F   UNK N   1      -4.434  -2.854   0.400  0.00  0.00    -0.166 F 
HETATM   36  F   UNK N   1      -4.668  -4.910   1.278  0.00  0.00    -0.166 F 
ENDBRANCH  27  33
ENDBRANCH   5  23
TORSDOF 7
