REMARK  17 active torsions:
REMARK  status: ('A' for Active; 'I' for Inactive)
REMARK    1  A    between atoms: C_10  and  O_53 
REMARK    2  A    between atoms: C_12  and  O_42 
REMARK    3  A    between atoms: C_13  and  O_41 
REMARK    4  A    between atoms: C_18  and  O_19 
REMARK    5  A    between atoms: O_19  and  C_20 
REMARK    6  A    between atoms: C_20  and  C_22 
REMARK    7  A    between atoms: C_22  and  C_23 
REMARK    8  A    between atoms: C_22  and  O_40 
REMARK    9  A    between atoms: C_23  and  C_24 
REMARK   10  A    between atoms: C_23  and  N_32 
REMARK       I    between atoms: N_32  and  C_33 
REMARK   11  A    between atoms: C_33  and  O_35 
REMARK   12  A    between atoms: O_35  and  C_36 
REMARK   13  A    between atoms: O_42  and  C_43 
REMARK   14  A    between atoms: C_43  and  C_45 
REMARK   15  A    between atoms: O_53  and  C_54 
REMARK   16  A    between atoms: C_59  and  C_61 
REMARK   17  A    between atoms: C_61  and  N_62 
ROOT
HETATM    1  C   UNK N   1      -2.051  -1.674  -1.367  0.00  0.00     0.046 C 
HETATM    2  C   UNK N   1      -1.013  -0.695  -0.948  0.00  0.00    -0.049 C 
HETATM    3  C   UNK N   1       0.087  -1.077  -0.256  0.00  0.00    -0.033 C 
HETATM    4  C   UNK N   1       0.664  -2.414   0.283  0.00  0.00     0.184 C 
HETATM    5  C   UNK N   1       2.224  -2.589   0.069  0.00  0.00     0.166 C 
HETATM    6  C   UNK N   1       3.527  -1.562   0.400  0.00  0.00    -0.006 C 
HETATM    7  C   UNK N   1       4.656  -2.346  -0.277  0.00  0.00     0.015 C 
HETATM    8  C   UNK N   1       6.044  -1.955   0.195  0.00  0.00     0.036 C 
HETATM    9  C   UNK N   1       6.373  -0.481  -0.005  0.00  0.00     0.159 C 
HETATM   10  C   UNK N   1       5.245   0.521   0.107  0.00  0.00     0.124 C 
HETATM   11  C   UNK N   1       3.798   0.061  -0.132  0.00  0.00     0.069 C 
HETATM   12  C   UNK N   1       2.776   1.436  -0.307  0.00  0.00     0.175 C 
HETATM   13  C   UNK N   1       1.155   1.325  -0.353  0.00  0.00     0.098 C 
HETATM   14  C   UNK N   1       1.099  -0.112  -0.134  0.00  0.00     0.012 C 
HETATM   15  C   UNK N   1       1.427  -0.181   1.424  0.00  0.00     0.023 C 
HETATM   16  C   UNK N   1       1.739  -0.627  -1.552  0.00  0.00     0.023 C 
HETATM   17  C   UNK N   1       0.234   1.553  -1.592  0.00  0.00     0.078 C 
HETATM   18  C   UNK N   1      -1.135   0.807  -1.349  0.00  0.00     0.164 C 
HETATM   19  C   UNK N   1       5.809   0.991  -1.221  0.00  0.00     0.210 C 
HETATM   20  O   UNK N   1       6.676  -0.115  -1.323  0.00  0.00    -0.380 OA
HETATM   21  C   UNK N   1       3.761  -1.637   1.915  0.00  0.00     0.018 C 
HETATM   22  O   UNK N   1       2.391  -3.917   0.443  0.00  0.00    -0.350 OA
HETATM   23  C   UNK N   1       1.120  -4.527   0.185  0.00  0.00     0.289 C 
HETATM   24  O   UNK N   1       0.117  -3.588  -0.169  0.00  0.00    -0.347 OA
ENDROOT
BRANCH  18  25
HETATM   25  O   UNK N   1      -1.926   1.532  -0.468  0.00  0.00    -0.309 OA
BRANCH  25  26
HETATM   26  C   UNK N   1      -2.178   1.242   0.845  0.00  0.00     0.290 C 
HETATM   27  O   UNK N   1      -1.442   0.522   1.501  0.00  0.00    -0.262 OA
BRANCH  26  28
HETATM   28  C   UNK N   1      -3.434   1.723   1.469  0.00  0.00     0.246 C 
BRANCH  28  29
HETATM   29  C   UNK N   1      -4.647   1.271   0.637  0.00  0.00     0.178 C 
BRANCH  29  30
HETATM   30  C   UNK N   1      -4.830  -0.226   0.532  0.00  0.00     0.074 A 
HETATM   31  C   UNK N   1      -6.015  -0.746  -0.006  0.00  0.00     0.141 A 
HETATM   32  C   UNK N   1      -6.171  -2.128  -0.118  0.00  0.00     0.046 A 
HETATM   33  F   UNK N   1      -7.014   0.080  -0.404  0.00  0.00    -0.204 F 
HETATM   34  C   UNK N   1      -5.151  -2.980   0.305  0.00  0.00     0.020 A 
HETATM   35  C   UNK N   1      -3.992  -2.434   0.853  0.00  0.00     0.088 A 
HETATM   36  N   UNK N   1      -3.858  -1.084   0.956  0.00  0.00    -0.365 N 
ATOM     37  HN  UNK N   1      -3.004  -0.701   1.363  1.00  0.00     0.165 HD
ENDBRANCH  29  30
BRANCH  29  38
HETATM   38  N   UNK N   1      -4.596   1.857  -0.685  0.00  0.00    -0.324 N 
HETATM   39  C   UNK N   1      -5.206   3.032  -0.949  0.00  0.00     0.362 C 
HETATM   40  O   UNK N   1      -5.096   3.539  -2.048  0.00  0.00    -0.238 OA
HETATM   41  H   UNK N   1      -4.110   1.391  -1.404  0.00  0.00     0.165 HD
BRANCH  39  42
HETATM   42  O   UNK N   1      -5.879   3.657   0.062  0.00  0.00    -0.294 OA
BRANCH  42  43
HETATM   43  C   UNK N   1      -6.547   4.865   0.023  0.00  0.00     0.061 C 
HETATM   44  C   UNK N   1      -6.666   5.346   1.453  0.00  0.00     0.046 C 
HETATM   45  C   UNK N   1      -7.944   4.690  -0.543  0.00  0.00     0.046 C 
HETATM   46  C   UNK N   1      -5.791   5.926  -0.762  0.00  0.00     0.046 C 
ENDBRANCH  42  43
ENDBRANCH  39  42
ENDBRANCH  29  38
ENDBRANCH  28  29
BRANCH  28  47
HETATM   47  O   UNK N   1      -3.405   3.114   1.584  0.00  0.00    -0.383 OA
HETATM   48  H   UNK N   1      -2.558   3.580   1.663  0.00  0.00     0.210 HD
ENDBRANCH  28  47
ENDBRANCH  26  28
ENDBRANCH  25  26
ENDBRANCH  18  25
BRANCH  13  49
HETATM   49  O   UNK N   1       0.610   2.086   0.699  0.00  0.00    -0.386 OA
HETATM   50  H   UNK N   1       0.877   2.673   1.424  0.00  0.00     0.210 HD
ENDBRANCH  13  49
BRANCH  12  51
HETATM   51  O   UNK N   1       3.343   2.703  -0.551  0.00  0.00    -0.308 OA
BRANCH  51  52
HETATM   52  C   UNK N   1       2.647   3.891  -0.677  0.00  0.00     0.293 C 
HETATM   53  O   UNK N   1       1.443   3.899  -0.864  0.00  0.00    -0.259 OA
BRANCH  52  54
HETATM   54  C   UNK N   1       3.302   5.202  -0.515  0.00  0.00     0.039 A 
HETATM   55  C   UNK N   1       2.502   6.326  -0.239  0.00  0.00     0.017 A 
HETATM   56  C   UNK N   1       3.079   7.579  -0.036  0.00  0.00     0.001 A 
HETATM   57  C   UNK N   1       4.463   7.726  -0.133  0.00  0.00     0.000 A 
HETATM   58  C   UNK N   1       5.265   6.618  -0.426  0.00  0.00     0.001 A 
HETATM   59  C   UNK N   1       4.687   5.356  -0.604  0.00  0.00     0.017 A 
ENDBRANCH  52  54
ENDBRANCH  51  52
ENDBRANCH  12  51
BRANCH  10  60
HETATM   60  O   UNK N   1       5.380   1.315   1.238  0.00  0.00    -0.305 OA
BRANCH  60  61
HETATM   61  C   UNK N   1       5.808   2.602   1.296  0.00  0.00     0.255 C 
HETATM   62  O   UNK N   1       6.215   3.182   0.303  0.00  0.00    -0.266 OA
HETATM   63  C   UNK N   1       5.783   3.319   2.599  0.00  0.00     0.126 C 
ENDBRANCH  60  61
ENDBRANCH  10  60
BRANCH  23  64
HETATM   64  C   UNK N   1       1.233  -5.566  -0.934  0.00  0.00     0.331 C 
BRANCH  64  65
HETATM   65  N   UNK N   1       1.946  -6.789  -0.551  0.00  0.00     0.084 N 
HETATM   66  C   UNK N   1       3.347  -6.504  -0.285  0.00  0.00     0.309 C 
HETATM   67  C   UNK N   1       1.351  -7.384   0.638  0.00  0.00     0.309 C 
ENDBRANCH  64  65
ENDBRANCH  23  64
TORSDOF 17
