REMARK  10 active torsions:
REMARK  status: ('A' for Active; 'I' for Inactive)
REMARK    1  A    between atoms: C_17  and  C_16 
REMARK    2  A    between atoms: N_35  and  C_16 
REMARK    3  A    between atoms: O_38  and  C_17 
REMARK    4  A    between atoms: N_32  and  C_21 
REMARK    5  A    between atoms: N_30  and  C_22 
REMARK    6  A    between atoms: O_38  and  C_23 
REMARK    7  A    between atoms: S_39  and  C_24 
REMARK    8  A    between atoms: N_30  and  C_25 
REMARK       I    between atoms: N_32  and  C_26 
REMARK    9  A    between atoms: N_34  and  C_27 
REMARK   10  A    between atoms: S_39  and  N_34 
ROOT
HETATM    1  C   UNK N   1       2.450   3.548  -0.514  0.00  0.00     0.054 C 
HETATM    2  C   UNK N   1       0.587   4.192   1.020  0.00  0.00     0.116 A 
HETATM    3  C   UNK N   1       1.504   4.562   0.035  0.00  0.00    -0.001 A 
HETATM    4  C   UNK N   1       1.515   5.895  -0.393  0.00  0.00     0.128 A 
HETATM    5  C   UNK N   1      -0.255   6.401   1.093  0.00  0.00     0.684 A 
HETATM    6  N   UNK N   1      -0.294   5.106   1.509  0.00  0.00    -0.201 N 
ATOM      7  HN  UNK N   1      -0.991   4.818   2.196  1.00  0.00     0.183 HD
HETATM    8  N   UNK N   1      -1.331   7.271   1.384  0.00  0.00    -0.192 N 
HETATM    9  N   UNK N   1       0.635   6.776   0.158  0.00  0.00    -0.176 N 
HETATM   10  H   UNK N   1      -1.209   8.044   1.981  0.00  0.00     0.184 HD
HETATM   11  H   UNK N   1       0.652   7.715  -0.137  0.00  0.00     0.186 HD
ENDROOT
BRANCH   4  12
HETATM   12  N   UNK N   1       2.337   6.306  -1.296  0.00  0.00    -0.342 N 
ATOM     13  HN  UNK N   1       2.939   5.645  -1.788  1.00  0.00     0.167 HD
BRANCH  12  14
HETATM   14  C   UNK N   1       2.393   7.687  -1.595  0.00  0.00     0.035 A 
HETATM   15  C   UNK N   1       1.454   8.301  -2.437  0.00  0.00     0.029 A 
HETATM   16  C   UNK N   1       1.390   9.703  -2.500  0.00  0.00     0.004 A 
HETATM   17  C   UNK N   1       2.233  10.488  -1.693  0.00  0.00     0.025 A 
HETATM   18  C   UNK N   1       3.161   9.865  -0.845  0.00  0.00     0.081 A 
HETATM   19  C   UNK N   1       3.202   8.470  -0.793  0.00  0.00     0.054 A 
BRANCH  18  20
HETATM   20  S   UNK N   1       4.195  10.791   0.316  0.00  0.00     0.259 S 
HETATM   21  O   UNK N   1       5.114  10.274  -0.803  0.00  0.00    -0.201 OA
HETATM   22  O   UNK N   1       4.719   9.673   1.233  0.00  0.00    -0.201 OA
BRANCH  20  23
HETATM   23  N   UNK N   1       5.621  11.845   0.351  0.00  0.00    -0.307 N 
HETATM   24  H   UNK N   1       6.563  11.519   0.134  0.00  0.00     0.173 HD
BRANCH  23  25
HETATM   25  C   UNK N   1       5.317  13.222   0.721  0.00  0.00     0.029 C 
HETATM   26  C   UNK N   1       4.516  13.892  -0.378  0.00  0.00     0.038 C 
HETATM   27  C   UNK N   1       4.571  13.302   2.044  0.00  0.00     0.038 C 
HETATM   28  C   UNK N   1       6.631  13.956   0.878  0.00  0.00     0.038 C 
ENDBRANCH  23  25
ENDBRANCH  20  23
ENDBRANCH  18  20
ENDBRANCH  12  14
ENDBRANCH   4  12
BRANCH   8  29
HETATM   29  C   UNK N   1      -2.591   7.000   0.793  0.00  0.00     0.049 A 
HETATM   30  C   UNK N   1      -3.724   7.735   1.151  0.00  0.00     0.033 A 
HETATM   31  C   UNK N   1      -4.977   7.378   0.629  0.00  0.00     0.039 A 
HETATM   32  C   UNK N   1      -5.094   6.294  -0.255  0.00  0.00     0.069 A 
HETATM   33  C   UNK N   1      -3.940   5.624  -0.670  0.00  0.00     0.039 A 
HETATM   34  C   UNK N   1      -2.708   5.966  -0.148  0.00  0.00     0.033 A 
BRANCH  32  35
HETATM   35  O   UNK N   1      -6.329   5.871  -0.630  0.00  0.00    -0.349 OA
BRANCH  35  36
HETATM   36  C   UNK N   1      -6.635   4.746  -1.392  0.00  0.00     0.206 C 
BRANCH  36  37
HETATM   37  C   UNK N   1      -5.754   3.503  -1.151  0.00  0.00     0.299 C 
BRANCH  37  38
HETATM   38  N   UNK N   1      -5.548   3.209   0.266  0.00  0.00     0.090 N 
HETATM   39  C   UNK N   1      -6.558   2.247   0.689  0.00  0.00     0.272 C 
HETATM   40  C   UNK N   1      -5.971   0.849   0.590  0.00  0.00     0.032 C 
HETATM   41  C   UNK N   1      -4.520   1.034   0.229  0.00  0.00     0.032 C 
HETATM   42  C   UNK N   1      -4.269   2.517   0.392  0.00  0.00     0.272 C 
ENDBRANCH  37  38
ENDBRANCH  36  37
ENDBRANCH  35  36
ENDBRANCH  32  35
ENDBRANCH   8  29
TORSDOF 10
