REMARK  16 active torsions:
REMARK  status: ('A' for Active; 'I' for Inactive)
REMARK    1  A    between atoms: C_3  and  C_2 
REMARK    2  A    between atoms: N_10  and  C_83 
REMARK    3  A    between atoms: C_11  and  C_80 
REMARK    4  A    between atoms: C_15  and  C_77 
REMARK    5  A    between atoms: C_19  and  C_72 
REMARK    6  A    between atoms: C_31  and  C_65 
REMARK    7  A    between atoms: C_35  and  C_60 
REMARK    8  A    between atoms: C_39  and  C_56 
REMARK    9  A    between atoms: C_43  and  C_47 
REMARK   10  A    between atoms: C_47  and  C_48 
REMARK   11  A    between atoms: C_47  and  O_54 
REMARK   12  A    between atoms: C_48  and  C_50 
REMARK   13  A    between atoms: C_50  and  C_51 
REMARK   14  A    between atoms: C_60  and  C_61 
REMARK   15  A    between atoms: C_65  and  C_66 
REMARK   16  A    between atoms: C_72  and  C_73 
ROOT
HETATM    1  C   UNK N   1       3.848   0.649   0.873  0.00  0.00     0.176 C 
HETATM    2  C   UNK N   1       2.513   1.206   1.110  0.00  0.00     0.243 C 
HETATM    3  O   UNK N   1       2.448   2.348   1.528  0.00  0.00    -0.271 OA
HETATM    4  N   UNK N   1       1.468   0.667   0.402  0.00  0.00    -0.342 N 
HETATM    5  C   UNK N   1       1.115   1.236  -0.890  0.00  0.00     0.175 C 
HETATM    6  C   UNK N   1      -0.011   2.034  -0.576  0.00  0.00     0.243 C 
HETATM    7  O   UNK N   1       0.077   2.757   0.403  0.00  0.00    -0.271 OA
HETATM    8  N   UNK N   1      -1.201   1.705  -1.110  0.00  0.00    -0.337 N 
HETATM    9  C   UNK N   1      -2.249   1.651  -0.134  0.00  0.00     0.182 C 
HETATM   10  C   UNK N   1      -1.915   0.524   0.751  0.00  0.00     0.241 C 
HETATM   11  O   UNK N   1      -1.790   0.621   1.962  0.00  0.00    -0.271 OA
HETATM   12  N   UNK N   1      -2.066  -0.653   0.185  0.00  0.00    -0.346 N 
HETATM   13  C   UNK N   1      -3.337  -1.226   0.301  0.00  0.00     0.174 C 
HETATM   14  C   UNK N   1      -3.223  -2.199   1.403  0.00  0.00     0.223 C 
HETATM   15  O   UNK N   1      -3.634  -1.941   2.522  0.00  0.00    -0.277 OA
HETATM   16  N   UNK N   1      -3.044  -3.463   1.025  0.00  0.00    -0.242 NA
HETATM   17  C   UNK N   1      -3.996  -3.821  -0.002  0.00  0.00     0.157 C 
HETATM   18  C   UNK N   1      -3.928  -5.220  -0.322  0.00  0.00     0.236 C 
HETATM   19  O   UNK N   1      -4.673  -5.981   0.272  0.00  0.00    -0.272 OA
HETATM   20  N   UNK N   1      -3.166  -5.620  -1.372  0.00  0.00    -0.347 N 
HETATM   21  C   UNK N   1      -3.143  -6.979  -1.844  0.00  0.00     0.172 C 
HETATM   22  C   UNK N   1      -2.742  -7.880  -0.734  0.00  0.00     0.240 C 
HETATM   23  O   UNK N   1      -3.408  -7.928   0.284  0.00  0.00    -0.271 OA
HETATM   24  N   UNK N   1      -1.657  -8.655  -0.826  0.00  0.00    -0.346 N 
HETATM   25  C   UNK N   1      -1.291  -9.456   0.318  0.00  0.00     0.172 C 
HETATM   26  C   UNK N   1      -1.017  -8.517   1.468  0.00  0.00     0.242 C 
HETATM   27  O   UNK N   1      -1.818  -8.405   2.391  0.00  0.00    -0.271 OA
HETATM   28  N   UNK N   1       0.074  -7.730   1.422  0.00  0.00    -0.341 N 
HETATM   29  C   UNK N   1       1.187  -8.176   0.619  0.00  0.00     0.179 C 
HETATM   30  C   UNK N   1       1.170  -7.828  -0.844  0.00  0.00     0.243 C 
HETATM   31  O   UNK N   1       0.738  -8.646  -1.638  0.00  0.00    -0.271 OA
HETATM   32  N   UNK N   1       2.155  -7.046  -1.260  0.00  0.00    -0.341 N 
HETATM   33  C   UNK N   1       3.503  -7.599  -1.285  0.00  0.00     0.179 C 
HETATM   34  C   UNK N   1       4.462  -6.832  -0.543  0.00  0.00     0.243 C 
HETATM   35  O   UNK N   1       5.594  -6.813  -1.012  0.00  0.00    -0.271 OA
HETATM   36  N   UNK N   1       4.129  -5.972   0.450  0.00  0.00    -0.341 N 
HETATM   37  C   UNK N   1       4.892  -4.825   0.428  0.00  0.00     0.182 C 
HETATM   38  C   UNK N   1       4.506  -4.128  -0.904  0.00  0.00     0.243 C 
HETATM   39  O   UNK N   1       4.303  -4.746  -1.974  0.00  0.00    -0.271 OA
HETATM   40  N   UNK N   1       4.252  -2.852  -0.914  0.00  0.00    -0.339 N 
HETATM   41  C   UNK N   1       5.027  -2.156   0.053  0.00  0.00     0.207 C 
HETATM   42  C   UNK N   1       4.300  -1.642   1.144  0.00  0.00     0.243 C 
HETATM   43  O   UNK N   1       4.591  -1.807   2.319  0.00  0.00    -0.271 OA
HETATM   44  N   UNK N   1       3.531  -0.698   0.768  0.00  0.00    -0.346 N 
HETATM   45  C   UNK N   1       3.533  -2.171  -1.950  0.00  0.00     0.153 C 
HETATM   46  C   UNK N   1       2.851  -5.866   1.104  0.00  0.00     0.153 C 
HETATM   47  C   UNK N   1       1.823  -5.782  -1.886  0.00  0.00     0.153 C 
HETATM   48  C   UNK N   1       0.249  -6.640   2.351  0.00  0.00     0.153 C 
HETATM   49  C   UNK N   1      -2.364 -10.498   0.582  0.00  0.00     0.042 C 
HETATM   50  C   UNK N   1      -4.525  -7.378  -2.327  0.00  0.00     0.042 C 
HETATM   51  C   UNK N   1      -1.667  -3.768   0.667  0.00  0.00     0.120 C 
HETATM   52  C   UNK N   1       2.078   2.171  -1.573  0.00  0.00     0.042 C 
HETATM   53  C   UNK N   1       1.009  -0.697   0.652  0.00  0.00     0.153 C 
HETATM   54  H   UNK N   1      -1.332  -1.102  -0.292  0.00  0.00     0.163 HD
HETATM   55  H   UNK N   1      -2.607  -4.952  -1.829  0.00  0.00     0.163 HD
HETATM   56  H   UNK N   1      -1.122  -8.678  -1.652  0.00  0.00     0.163 HD
HETATM   57  H   UNK N   1       2.660  -0.939   0.379  0.00  0.00     0.163 HD
ENDROOT
BRANCH  41  58
HETATM   58  C   UNK N   1       6.509  -2.420   0.016  0.00  0.00     0.154 C 
BRANCH  58  59
HETATM   59  C   UNK N   1       7.248  -1.184   0.296  0.00  0.00     0.016 C 
HETATM   60  C   UNK N   1       7.039  -0.668   1.715  0.00  0.00     0.013 C 
BRANCH  59  61
HETATM   61  C   UNK N   1       6.928  -0.171  -0.792  0.00  0.00     0.033 C 
BRANCH  61  62
HETATM   62  C   UNK N   1       7.879   0.925  -0.629  0.00  0.00    -0.031 C 
HETATM   63  C   UNK N   1       9.163   0.609  -0.621  0.00  0.00    -0.035 C 
HETATM   64  C   UNK N   1      10.158   1.617  -0.231  0.00  0.00     0.036 C 
ENDBRANCH  61  62
ENDBRANCH  59  61
ENDBRANCH  58  59
BRANCH  58  65
HETATM   65  O   UNK N   1       6.889  -2.886  -1.251  0.00  0.00    -0.393 OA
HETATM   66  H   UNK N   1       6.741  -3.275  -2.128  0.00  0.00     0.210 HD
ENDBRANCH  58  65
ENDBRANCH  41  58
BRANCH  37  67
HETATM   67  C   UNK N   1       6.290  -4.974   1.115  0.00  0.00     0.009 C 
HETATM   68  C   UNK N   1       7.455  -5.315   0.204  0.00  0.00     0.012 C 
HETATM   69  C   UNK N   1       6.256  -5.956   2.281  0.00  0.00     0.012 C 
ENDBRANCH  37  67
BRANCH   1  70
HETATM   70  C   UNK N   1       4.342   0.987  -0.553  0.00  0.00     0.030 C 
HETATM   71  C   UNK N   1       4.888   2.382  -0.800  0.00  0.00     0.007 C 
ENDBRANCH   1  70
BRANCH  33  72
HETATM   72  C   UNK N   1       3.705  -9.068  -0.939  0.00  0.00     0.039 C 
BRANCH  72  73
HETATM   73  C   UNK N   1       5.102  -9.390  -0.372  0.00  0.00    -0.020 C 
HETATM   74  C   UNK N   1       5.145  -9.596   1.136  0.00  0.00     0.009 C 
HETATM   75  C   UNK N   1       5.834 -10.424  -1.173  0.00  0.00     0.009 C 
ENDBRANCH  72  73
ENDBRANCH  33  72
BRANCH   8  76
HETATM   76  C   UNK N   1      -1.219   0.751  -2.227  0.00  0.00     0.122 C 
HETATM   77  C   UNK N   1      -2.598   0.497  -2.808  0.00  0.00     0.026 C 
ENDBRANCH   8  76
BRANCH  29  78
HETATM   78  C   UNK N   1       1.866  -9.432   1.218  0.00  0.00     0.039 C 
BRANCH  78  79
HETATM   79  C   UNK N   1       1.708 -10.879   0.680  0.00  0.00    -0.020 C 
HETATM   80  C   UNK N   1       2.918 -11.560   0.107  0.00  0.00     0.009 C 
HETATM   81  C   UNK N   1       0.443 -11.536   0.204  0.00  0.00     0.009 C 
ENDBRANCH  78  79
ENDBRANCH  29  78
BRANCH   9  82
HETATM   82  C   UNK N   1      -2.904   2.900   0.446  0.00  0.00     0.009 C 
HETATM   83  C   UNK N   1      -4.039   3.283  -0.456  0.00  0.00     0.012 C 
HETATM   84  C   UNK N   1      -2.038   4.117   0.695  0.00  0.00     0.012 C 
ENDBRANCH   9  82
BRANCH  13  85
HETATM   85  C   UNK N   1      -4.526  -0.243   0.141  0.00  0.00     0.009 C 
HETATM   86  C   UNK N   1      -5.698  -0.733  -0.674  0.00  0.00     0.012 C 
HETATM   87  C   UNK N   1      -4.953   0.460   1.413  0.00  0.00     0.012 C 
ENDBRANCH  13  85
BRANCH  17  88
HETATM   88  C   UNK N   1      -5.429  -3.497   0.477  0.00  0.00     0.033 C 
BRANCH  88  89
HETATM   89  C   UNK N   1      -6.547  -3.617  -0.548  0.00  0.00    -0.021 C 
HETATM   90  C   UNK N   1      -6.152  -4.184  -1.904  0.00  0.00     0.009 C 
HETATM   91  C   UNK N   1      -7.636  -4.452   0.074  0.00  0.00     0.009 C 
ENDBRANCH  88  89
ENDBRANCH  17  88
TORSDOF 16
