REMARK WARNING: 32 MAX_TORS EXCEEDED!!!
REMARK  34 active torsions:
REMARK  status: ('A' for Active; 'I' for Inactive)
REMARK    1  A    between atoms: C_2  and  C_3 
REMARK    2  A    between atoms: C_3  and  C_4 
REMARK    3  A    between atoms: C_4  and  C_5 
REMARK    4  A    between atoms: C_5  and  C_6 
REMARK    5  A    between atoms: C_6  and  C_7 
REMARK    6  A    between atoms: C_7  and  C_8 
REMARK    7  A    between atoms: C_8  and  C_9 
REMARK    8  A    between atoms: C_9  and  C_10 
REMARK    9  A    between atoms: C_10  and  C_11 
REMARK   10  A    between atoms: C_11  and  C_12 
REMARK   11  A    between atoms: C_12  and  S_13 
REMARK   12  A    between atoms: S_13  and  C_14 
REMARK   13  A    between atoms: C_14  and  C_15 
REMARK   14  A    between atoms: C_15  and  C_16 
REMARK   15  A    between atoms: C_15  and  O_42 
REMARK   16  A    between atoms: C_16  and  O_17 
REMARK   17  A    between atoms: O_17  and  P_18 
REMARK   18  A    between atoms: P_18  and  O_20 
REMARK   19  A    between atoms: P_18  and  O_21 
REMARK   20  A    between atoms: O_21  and  C_22 
REMARK   21  A    between atoms: C_23  and  C_22 
REMARK   22  A    between atoms: C_24  and  N_37 
REMARK   23  A    between atoms: C_26  and  N_28 
REMARK   24  A    between atoms: N_37  and  N_39 
REMARK   25  A    between atoms: N_39  and  N_40 
REMARK   26  A    between atoms: O_42  and  C_43 
REMARK   27  A    between atoms: C_43  and  C_44 
REMARK   28  A    between atoms: C_44  and  C_45 
REMARK   29  A    between atoms: C_45  and  C_46 
REMARK   30  A    between atoms: C_46  and  C_47 
REMARK   31  A    between atoms: C_47  and  C_48 
REMARK   32  A    between atoms: C_48  and  C_49 
REMARK   33  A    between atoms: C_49  and  C_50 
REMARK   34  A    between atoms: C_50  and  C_51 
ROOT
HETATM    1  O   UNK N   1      11.716 -11.232  -0.722  0.00  0.00    -0.294 OA
ENDROOT
BRANCH   1   2
HETATM    2  C   UNK N   1      10.369 -11.320  -1.025  0.00  0.00     0.213 C 
BRANCH   2   3
HETATM    3  C   UNK N   1       9.716 -12.329  -0.087  0.00  0.00     0.155 C 
BRANCH   3   4
HETATM    4  C   UNK N   1       9.525 -11.940   1.365  0.00  0.00     0.108 C 
BRANCH   4   5
HETATM    5  S   UNK N   1       7.751 -11.899   1.752  0.00  0.00    -0.167 SA
BRANCH   5   6
HETATM    6  C   UNK N   1       7.231 -10.583   0.566  0.00  0.00     0.074 C 
BRANCH   6   7
HETATM    7  C   UNK N   1       7.400 -10.915  -0.928  0.00  0.00     0.010 C 
BRANCH   7   8
HETATM    8  C   UNK N   1       6.432 -11.926  -1.540  0.00  0.00     0.001 C 
BRANCH   8   9
HETATM    9  C   UNK N   1       6.552 -13.302  -0.921  0.00  0.00     0.000 C 
BRANCH   9  10
HETATM   10  C   UNK N   1       5.572 -13.374   0.227  0.00  0.00     0.000 C 
BRANCH  10  11
HETATM   11  C   UNK N   1       5.860 -14.601   1.065  0.00  0.00     0.000 C 
BRANCH  11  12
HETATM   12  C   UNK N   1       4.626 -15.474   1.120  0.00  0.00     0.000 C 
BRANCH  12  13
HETATM   13  C   UNK N   1       4.241 -15.911  -0.284  0.00  0.00     0.000 C 
BRANCH  13  14
HETATM   14  C   UNK N   1       2.899 -15.314  -0.644  0.00  0.00     0.000 C 
BRANCH  14  15
HETATM   15  C   UNK N   1       1.815 -16.173  -0.033  0.00  0.00    -0.000 C 
BRANCH  15  16
HETATM   16  C   UNK N   1       0.477 -15.487  -0.158  0.00  0.00    -0.005 C 
HETATM   17  C   UNK N   1      -0.609 -16.485   0.178  0.00  0.00     0.005 C 
ENDBRANCH  15  16
ENDBRANCH  14  15
ENDBRANCH  13  14
ENDBRANCH  12  13
ENDBRANCH  11  12
ENDBRANCH  10  11
ENDBRANCH   9  10
ENDBRANCH   8   9
ENDBRANCH   7   8
ENDBRANCH   6   7
ENDBRANCH   5   6
ENDBRANCH   4   5
ENDBRANCH   3   4
BRANCH   3  18
HETATM   18  O   UNK N   1       9.739 -13.703  -0.392  0.00  0.00    -0.383 OA
BRANCH  18  19
HETATM   19  C   UNK N   1      11.027 -14.062  -0.813  0.00  0.00     0.168 C 
BRANCH  19  20
HETATM   20  C   UNK N   1      11.879 -14.478   0.367  0.00  0.00     0.026 C 
BRANCH  20  21
HETATM   21  C   UNK N   1      12.854 -13.362   0.701  0.00  0.00     0.002 C 
BRANCH  21  22
HETATM   22  C   UNK N   1      14.264 -13.901   0.778  0.00  0.00     0.000 C 
BRANCH  22  23
HETATM   23  C   UNK N   1      14.694 -14.431  -0.579  0.00  0.00     0.000 C 
BRANCH  23  24
HETATM   24  C   UNK N   1      15.570 -15.652  -0.396  0.00  0.00     0.000 C 
BRANCH  24  25
HETATM   25  C   UNK N   1      16.941 -15.221   0.074  0.00  0.00     0.000 C 
BRANCH  25  26
HETATM   26  C   UNK N   1      17.892 -16.390  -0.000  0.00  0.00    -0.000 C 
BRANCH  26  27
HETATM   27  C   UNK N   1      19.301 -15.867   0.160  0.00  0.00    -0.005 C 
HETATM   28  C   UNK N   1      20.283 -17.006   0.001  0.00  0.00     0.005 C 
ENDBRANCH  26  27
ENDBRANCH  25  26
ENDBRANCH  24  25
ENDBRANCH  23  24
ENDBRANCH  22  23
ENDBRANCH  21  22
ENDBRANCH  20  21
ENDBRANCH  19  20
ENDBRANCH  18  19
ENDBRANCH   3  18
ENDBRANCH   2   3
ENDBRANCH   1   2
BRANCH   1  29
HETATM   29  P   UNK N   1      11.886  -9.753   0.149  0.00  0.00     0.393 P 
HETATM   30  O   UNK N   1      13.212  -9.881   0.954  0.00  0.00    -0.631 OA
BRANCH  29  31
HETATM   31  O   UNK N   1      10.662  -9.452   1.341  0.00  0.00    -0.307 OA
HETATM   32  H   UNK N   1      10.465  -8.776   2.007  0.00  0.00     0.222 HD
ENDBRANCH  29  31
BRANCH  29  33
HETATM   33  O   UNK N   1      11.961  -8.425  -0.985  0.00  0.00    -0.294 OA
BRANCH  33  34
HETATM   34  C   UNK N   1      13.231  -8.443  -1.565  0.00  0.00     0.214 C 
BRANCH  34  35
HETATM   35  C   UNK N   1      14.221  -7.953  -0.535  0.00  0.00     0.173 C 
HETATM   36  C   UNK N   1      13.936  -6.565   0.005  0.00  0.00     0.149 C 
HETATM   37  C   UNK N   1      15.144  -6.356   0.831  0.00  0.00     0.084 C 
HETATM   38  C   UNK N   1      16.076  -6.985  -0.161  0.00  0.00     0.234 C 
HETATM   39  O   UNK N   1      15.544  -7.992  -0.967  0.00  0.00    -0.356 OA
BRANCH  36  40
HETATM   40  N   UNK N   1      12.730  -6.479   0.776  0.00  0.00    -0.245 N 
ATOM     41  HN  UNK N   1      12.594  -7.077   1.591  1.00  0.00     0.197 HD
BRANCH  40  42
HETATM   42  N   UNK N   1      11.872  -5.682   0.445  0.00  0.00    -0.248 NA
BRANCH  42  43
HETATM   43  N   UNK N   1      11.031  -4.876   0.092  0.00  0.00    -0.261 N 
HETATM   44  H   UNK N   1      11.255  -3.961  -0.194  0.00  0.00     0.193 HD
ATOM     45  HN  UNK N   1      10.051  -5.161   0.092  1.00  0.00     0.193 HD
ENDBRANCH  42  43
ENDBRANCH  40  42
ENDBRANCH  36  40
BRANCH  38  46
HETATM   46  N   UNK N   1      17.498  -6.802  -0.099  0.00  0.00    -0.282 N 
HETATM   47  C   UNK N   1      17.957  -5.551  -0.332  0.00  0.00     0.110 A 
HETATM   48  C   UNK N   1      19.310  -5.283  -0.304  0.00  0.00     0.022 A 
HETATM   49  C   UNK N   1      20.196  -6.331  -0.037  0.00  0.00     0.256 A 
HETATM   50  C   UNK N   1      19.776  -3.893  -0.561  0.00  0.00     0.056 C 
HETATM   51  O   UNK N   1      21.396  -6.132  -0.013  0.00  0.00    -0.267 OA
HETATM   52  N   UNK N   1      19.712  -7.593   0.199  0.00  0.00    -0.275 N 
HETATM   53  C   UNK N   1      18.366  -7.835   0.172  0.00  0.00     0.331 A 
HETATM   54  H   UNK N   1      20.337  -8.329   0.389  0.00  0.00     0.173 HD
HETATM   55  O   UNK N   1      17.947  -8.962   0.383  0.00  0.00    -0.246 OA
ENDBRANCH  38  46
ENDBRANCH  34  35
ENDBRANCH  33  34
ENDBRANCH  29  33
ENDBRANCH   1  29
TORSDOF 34
