REMARK  6 active torsions:
REMARK  status: ('A' for Active; 'I' for Inactive)
REMARK    1  A    between atoms: C_13  and  C_10 
REMARK    2  A    between atoms: N_14  and  C_10 
REMARK    3  A    between atoms: C_13  and  C_11 
REMARK    4  A    between atoms: O_16  and  C_11 
REMARK    5  A    between atoms: N_15  and  C_12 
REMARK    6  A    between atoms: C_13  and  O_17 
ROOT
HETATM    1  C   UNK N   1       2.311   2.596   0.783  0.00  0.00     0.292 C 
HETATM    2  C   UNK N   1       4.414   2.675  -0.175  0.00  0.00     0.292 C 
HETATM    3  C   UNK N   1       2.096   1.112   0.543  0.00  0.00     0.153 C 
HETATM    4  C   UNK N   1       4.502   1.151  -0.322  0.00  0.00     0.153 C 
HETATM    5  N   UNK N   1       3.049   3.150  -0.342  0.00  0.00     0.094 N 
HETATM    6  N   UNK N   1       3.300   0.424   0.103  0.00  0.00    -0.378 N 
ENDROOT
BRANCH   5   7
HETATM    7  C   UNK N   1       3.098   4.615  -0.284  0.00  0.00     0.306 C 
BRANCH   7   8
HETATM    8  C   UNK N   1       1.745   5.282  -0.006  0.00  0.00     0.170 C 
BRANCH   8   9
HETATM    9  C   UNK N   1       1.830   6.754  -0.369  0.00  0.00     0.197 C 
BRANCH   9  10
HETATM   10  O   UNK N   1       0.615   7.387  -0.100  0.00  0.00    -0.398 OA
HETATM   11  H   UNK N   1       0.574   8.338   0.086  0.00  0.00     0.209 HD
ENDBRANCH   9  10
ENDBRANCH   8   9
BRANCH   8  12
HETATM   12  O   UNK N   1       0.736   4.675  -0.757  0.00  0.00    -0.392 OA
HETATM   13  H   UNK N   1       0.021   5.071  -1.279  0.00  0.00     0.210 HD
ENDBRANCH   8  12
ENDBRANCH   7   8
ENDBRANCH   5   7
BRANCH   6  14
HETATM   14  C   UNK N   1       3.299  -1.004   0.031  0.00  0.00     0.030 A 
HETATM   15  C   UNK N   1       4.471  -1.713  -0.273  0.00  0.00     0.029 A 
HETATM   16  C   UNK N   1       4.467  -3.110  -0.324  0.00  0.00     0.002 A 
HETATM   17  C   UNK N   1       3.284  -3.815  -0.081  0.00  0.00     0.000 A 
HETATM   18  C   UNK N   1       2.109  -3.123   0.217  0.00  0.00     0.002 A 
HETATM   19  C   UNK N   1       2.114  -1.727   0.279  0.00  0.00     0.029 A 
ENDBRANCH   6  14
TORSDOF 6
