REMARK  1 active torsions:
REMARK  status: ('A' for Active; 'I' for Inactive)
REMARK    1  A    between atoms: N_5  and  C_8 
ROOT
HETATM    1  C   UNK N   1       3.588   0.951  -0.000  0.00  0.00     0.067 A 
HETATM    2  C   UNK N   1       4.791   0.204   0.000  0.00  0.00     0.032 A 
HETATM    3  C   UNK N   1       4.757  -1.213  -0.000  0.00  0.00     0.005 A 
HETATM    4  C   UNK N   1       3.526  -1.903  -0.000  0.00  0.00     0.032 A 
HETATM    5  C   UNK N   1       2.363  -1.141  -0.000  0.00  0.00     0.073 A 
HETATM    6  C   UNK N   1       2.394   0.222  -0.000  0.00  0.00     0.134 A 
HETATM    7  O   UNK N   1       1.165   0.662   0.000  0.00  0.00    -0.257 OA
HETATM    8  C   UNK N   1       0.379  -0.388   0.000  0.00  0.00     0.370 A 
HETATM    9  O   UNK N   1      -0.831  -0.323   0.000  0.00  0.00    -0.238 OA
HETATM   10  N   UNK N   1       1.087  -1.562  -0.000  0.00  0.00    -0.300 N 
HETATM   11  H   UNK N   1       0.745  -2.485  -0.000  0.00  0.00     0.171 HD
ENDROOT
BRANCH   1  12
HETATM   12  N   UNK N   1       3.580   2.385   0.000  0.00  0.00    -0.375 N 
HETATM   13  C   UNK N   1       4.848   3.091  -0.000  0.00  0.00     0.142 A 
HETATM   14  C   UNK N   1       4.812   4.616   0.000  0.00  0.00     0.136 A 
HETATM   15  N   UNK N   1       3.495   5.232  -0.000  0.00  0.00    -0.414 N 
HETATM   16  C   UNK N   1       3.436   6.680   0.000  0.00  0.00     0.143 C 
HETATM   17  C   UNK N   1       2.220   4.554   0.000  0.00  0.00     0.136 A 
HETATM   18  C   UNK N   1       2.288   3.050  -0.000  0.00  0.00     0.142 A 
ENDBRANCH   1  12
TORSDOF 1
