REMARK  5 active torsions:
REMARK  status: ('A' for Active; 'I' for Inactive)
REMARK    1  A    between atoms: C_3  and  C_19 
REMARK    2  A    between atoms: C_5  and  O_7 
REMARK    3  A    between atoms: O_7  and  C_8 
REMARK    4  A    between atoms: C_11  and  C_15 
REMARK       I    between atoms: N_23  and  C_26 
REMARK       I    between atoms: C_26  and  N_28 
REMARK    5  A    between atoms: N_28  and  C_29 
ROOT
HETATM    1  C   UNK N   1      -2.676  -6.472   1.048  0.00  0.00     0.014 C 
HETATM    2  C   UNK N   1      -2.865  -7.803   1.225  0.00  0.00    -0.076 C 
HETATM    3  C   UNK N   1      -1.744  -8.740   1.005  0.00  0.00     0.054 C 
HETATM    4  C   UNK N   1      -1.783  -8.864  -0.496  0.00  0.00     0.132 C 
HETATM    5  N   UNK N   1      -2.900  -9.733  -0.693  0.00  0.00    -0.333 N 
HETATM    6  C   UNK N   1      -4.233  -9.228  -0.343  0.00  0.00     0.132 C 
HETATM    7  C   UNK N   1      -4.226  -8.419   1.012  0.00  0.00     0.054 C 
HETATM    8  C   UNK N   1      -2.591 -11.048  -0.801  0.00  0.00     0.324 C 
HETATM    9  O   UNK N   1      -3.460 -11.904  -0.697  0.00  0.00    -0.247 OA
HETATM   10  N   UNK N   1      -1.275 -11.384  -0.893  0.00  0.00    -0.294 N 
HETATM   11  H   UNK N   1      -0.677 -10.704  -1.279  0.00  0.00     0.172 HD
ENDROOT
BRANCH   1  12
HETATM   12  C   UNK N   1      -1.333  -5.903   0.707  0.00  0.00    -0.033 A 
HETATM   13  C   UNK N   1      -0.165  -6.682   0.836  0.00  0.00     0.011 A 
HETATM   14  C   UNK N   1       1.006  -6.367   0.193  0.00  0.00     0.004 A 
HETATM   15  C   UNK N   1       1.054  -5.211  -0.540  0.00  0.00     0.037 A 
HETATM   16  C   UNK N   1      -0.043  -4.321  -0.574  0.00  0.00     0.078 A 
HETATM   17  C   UNK N   1      -1.260  -4.693   0.008  0.00  0.00     0.048 A 
BRANCH  16  18
HETATM   18  O   UNK N   1       0.149  -3.064  -1.047  0.00  0.00    -0.294 OA
BRANCH  18  19
HETATM   19  C   UNK N   1       1.333  -2.456  -0.760  0.00  0.00     0.147 A 
HETATM   20  C   UNK N   1       1.797  -1.363  -1.490  0.00  0.00     0.057 A 
HETATM   21  C   UNK N   1       3.079  -0.863  -1.202  0.00  0.00     0.022 A 
HETATM   22  C   UNK N   1       3.867  -1.471  -0.206  0.00  0.00     0.063 A 
HETATM   23  C   UNK N   1       3.339  -2.517   0.524  0.00  0.00     0.106 A 
HETATM   24  N   UNK N   1       2.105  -2.962   0.248  0.00  0.00    -0.346 N 
ATOM     25  HN  UNK N   1       1.723  -3.715   0.819  1.00  0.00     0.167 HD
BRANCH  22  26
HETATM   26  C   UNK N   1       5.266  -1.038   0.071  0.00  0.00     0.418 C 
HETATM   27  F   UNK N   1       6.001  -1.106  -1.097  0.00  0.00    -0.166 F 
HETATM   28  F   UNK N   1       5.262   0.254   0.552  0.00  0.00    -0.166 F 
HETATM   29  F   UNK N   1       5.860  -1.868   1.013  0.00  0.00    -0.166 F 
ENDBRANCH  22  26
ENDBRANCH  18  19
ENDBRANCH  16  18
ENDBRANCH   1  12
BRANCH  10  30
HETATM   30  C   UNK N   1      -0.671 -12.591  -0.498  0.00  0.00     0.123 A 
HETATM   31  C   UNK N   1       0.701 -12.745  -0.686  0.00  0.00     0.051 A 
HETATM   32  C   UNK N   1       1.344 -13.842  -0.128  0.00  0.00     0.022 A 
HETATM   33  C   UNK N   1       0.601 -14.746   0.627  0.00  0.00     0.107 A 
HETATM   34  N   UNK N   1      -0.733 -14.545   0.797  0.00  0.00    -0.310 N 
HETATM   35  N   UNK N   1      -1.350 -13.492   0.259  0.00  0.00    -0.286 N 
ATOM     36  HN  UNK N   1      -1.273 -15.214   1.346  1.00  0.00     0.186 HD
ATOM     37  HN  UNK N   1      -2.349 -13.360   0.420  1.00  0.00     0.188 HD
ENDBRANCH  10  30
TORSDOF 5
