REMARK  15 active torsions:
REMARK  status: ('A' for Active; 'I' for Inactive)
REMARK    1  A    between atoms: C_12  and  C_8 
REMARK    2  A    between atoms: C_14  and  C_8 
REMARK    3  A    between atoms: C_13  and  C_9 
REMARK    4  A    between atoms: C_15  and  C_9 
REMARK    5  A    between atoms: C_16  and  C_10 
REMARK    6  A    between atoms: C_17  and  C_10 
REMARK    7  A    between atoms: C_18  and  C_11 
REMARK    8  A    between atoms: C_19  and  C_11 
REMARK    9  A    between atoms: C_24  and  C_14 
REMARK   10  A    between atoms: C_26  and  C_15 
REMARK   11  A    between atoms: C_25  and  C_17 
REMARK   12  A    between atoms: C_27  and  C_19 
REMARK   13  A    between atoms: C_21  and  C_20 
REMARK   14  A    between atoms: O_29  and  C_21 
REMARK   15  A    between atoms: O_29  and  C_27 
ROOT
HETATM    1  C   UNK N   1       1.203  -1.877  -0.534  0.00  0.00     0.037 C 
ENDROOT
BRANCH   1   2
HETATM    2  C   UNK N   1       0.287  -1.158   0.412  0.00  0.00    -0.024 C 
HETATM    3  C   UNK N   1       0.623  -0.007   1.027  0.00  0.00    -0.087 C 
HETATM    4  C   UNK N   1       1.958   0.633   0.839  0.00  0.00     0.043 C 
BRANCH   3   5
HETATM    5  C   UNK N   1      -0.372   0.709   1.887  0.00  0.00     0.037 C 
BRANCH   5   6
HETATM    6  C   UNK N   1      -1.552   1.240   1.072  0.00  0.00     0.031 C 
BRANCH   6   7
HETATM    7  C   UNK N   1      -1.093   2.067  -0.101  0.00  0.00    -0.024 C 
HETATM    8  C   UNK N   1      -1.316   3.386  -0.175  0.00  0.00    -0.087 C 
HETATM    9  C   UNK N   1      -0.824   4.131  -1.380  0.00  0.00     0.043 C 
BRANCH   8  10
HETATM   10  C   UNK N   1      -2.044   4.101   0.938  0.00  0.00     0.037 C 
BRANCH  10  11
HETATM   11  C   UNK N   1      -2.605   5.452   0.523  0.00  0.00     0.031 C 
BRANCH  11  12
HETATM   12  C   UNK N   1      -1.584   6.533   0.689  0.00  0.00    -0.024 C 
HETATM   13  C   UNK N   1      -1.787   7.773   0.231  0.00  0.00    -0.091 C 
HETATM   14  C   UNK N   1      -3.041   8.146  -0.495  0.00  0.00     0.042 C 
HETATM   15  C   UNK N   1      -0.737   8.808   0.436  0.00  0.00     0.042 C 
ENDBRANCH  11  12
ENDBRANCH  10  11
ENDBRANCH   8  10
ENDBRANCH   6   7
ENDBRANCH   5   6
ENDBRANCH   3   5
ENDBRANCH   1   2
BRANCH   1  16
HETATM   16  C   UNK N   1       2.423  -2.457   0.157  0.00  0.00     0.115 C 
BRANCH  16  17
HETATM   17  C   UNK N   1       3.645  -2.043  -0.588  0.00  0.00     0.259 C 
HETATM   18  O   UNK N   1       4.301  -2.883  -1.189  0.00  0.00    -0.265 OA
BRANCH  17  19
HETATM   19  O   UNK N   1       4.024  -0.742  -0.578  0.00  0.00    -0.318 OA
BRANCH  19  20
HETATM   20  C   UNK N   1       5.130  -0.282  -1.253  0.00  0.00     0.206 C 
BRANCH  20  21
HETATM   21  C   UNK N   1       6.133   0.302  -0.300  0.00  0.00     0.002 C 
HETATM   22  C   UNK N   1       6.764  -0.438   0.633  0.00  0.00    -0.085 C 
HETATM   23  C   UNK N   1       6.486  -1.896   0.804  0.00  0.00     0.043 C 
BRANCH  22  24
HETATM   24  C   UNK N   1       7.819   0.177   1.507  0.00  0.00     0.037 C 
BRANCH  24  25
HETATM   25  C   UNK N   1       9.031   0.640   0.696  0.00  0.00     0.031 C 
BRANCH  25  26
HETATM   26  C   UNK N   1       9.532  -0.454  -0.207  0.00  0.00    -0.024 C 
HETATM   27  C   UNK N   1      10.759  -0.975  -0.125  0.00  0.00    -0.091 C 
HETATM   28  C   UNK N   1      11.749  -0.500   0.887  0.00  0.00     0.042 C 
HETATM   29  C   UNK N   1      11.144  -2.062  -1.067  0.00  0.00     0.042 C 
ENDBRANCH  25  26
ENDBRANCH  24  25
ENDBRANCH  22  24
ENDBRANCH  20  21
ENDBRANCH  19  20
ENDBRANCH  17  19
ENDBRANCH  16  17
ENDBRANCH   1  16
TORSDOF 15
