REMARK  3 active torsions:
REMARK  status: ('A' for Active; 'I' for Inactive)
REMARK    1  A    between atoms: C_5  and  S_8 
REMARK    2  A    between atoms: S_8  and  C_9 
REMARK    3  A    between atoms: C_14  and  C_15 
ROOT
HETATM    1  C   UNK N   1       4.647  -4.386   0.460  0.00  0.00     0.012 A 
HETATM    2  C   UNK N   1       5.849  -3.693   0.237  0.00  0.00     0.019 A 
HETATM    3  C   UNK N   1       6.928  -4.316  -0.386  0.00  0.00     0.001 A 
HETATM    4  C   UNK N   1       6.833  -5.649  -0.779  0.00  0.00     0.001 A 
HETATM    5  C   UNK N   1       5.653  -6.359  -0.550  0.00  0.00     0.009 A 
HETATM    6  C   UNK N   1       4.551  -5.743   0.063  0.00  0.00    -0.037 A 
ENDROOT
BRANCH   1   7
HETATM    7  S   UNK N   1       3.295  -3.575   1.353  0.00  0.00    -0.090 SA
BRANCH   7   8
HETATM    8  C   UNK N   1       3.385  -1.927   0.633  0.00  0.00     0.005 A 
HETATM    9  C   UNK N   1       4.468  -1.086   0.920  0.00  0.00     0.019 A 
HETATM   10  C   UNK N   1       4.495   0.222   0.430  0.00  0.00     0.008 A 
HETATM   11  C   UNK N   1       3.427   0.706  -0.330  0.00  0.00    -0.062 A 
HETATM   12  C   UNK N   1       3.447   2.104  -0.833  0.00  0.00     0.048 C 
HETATM   13  C   UNK N   1       2.335  -0.124  -0.607  0.00  0.00     0.008 A 
HETATM   14  C   UNK N   1       2.313  -1.438  -0.123  0.00  0.00     0.019 A 
ENDBRANCH   7   8
ENDBRANCH   1   7
BRANCH   6  15
HETATM   15  C   UNK N   1       3.288  -6.541   0.326  0.00  0.00     0.023 C 
HETATM   16  C   UNK N   1       3.462  -8.053   0.129  0.00  0.00     0.028 C 
HETATM   17  C   UNK N   1       2.136  -8.757   0.398  0.00  0.00     0.114 C 
HETATM   18  N   UNK N   1       1.118  -8.269  -0.530  0.00  0.00    -0.421 N 
HETATM   19  C   UNK N   1       0.879  -6.851  -0.261  0.00  0.00     0.114 C 
HETATM   20  H   UNK N   1       0.652  -8.825  -1.247  0.00  0.00     0.153 HD
HETATM   21  C   UNK N   1       2.140  -6.038  -0.550  0.00  0.00     0.028 C 
ENDBRANCH   6  15
TORSDOF 3
