REMARK  6 active torsions:
REMARK  status: ('A' for Active; 'I' for Inactive)
REMARK    1  A    between atoms: C_1  and  O_7 
REMARK    2  A    between atoms: C_2  and  O_12 
REMARK    3  A    between atoms: C_3  and  O_11 
REMARK    4  A    between atoms: C_4  and  O_10 
REMARK    5  A    between atoms: C_5  and  O_9 
REMARK    6  A    between atoms: C_6  and  O_8 
ROOT
HETATM    1  C   UNK N   1      -3.503  -4.144   0.000  0.00  0.00     0.180 A 
HETATM    2  C   UNK N   1      -5.025  -4.121  -0.000  0.00  0.00     0.181 A 
HETATM    3  C   UNK N   1      -5.848  -5.411   0.000  0.00  0.00     0.183 A 
HETATM    4  C   UNK N   1      -5.072  -6.757  -0.000  0.00  0.00     0.181 A 
HETATM    5  C   UNK N   1      -3.546  -6.769   0.000  0.00  0.00     0.180 A 
HETATM    6  C   UNK N   1      -2.761  -5.467  -0.000  0.00  0.00     0.180 A 
ENDROOT
BRANCH   1   7
HETATM    7  O   UNK N   1      -2.790  -2.944  -0.000  0.00  0.00    -0.390 OA
HETATM    8  H   UNK N   1      -1.820  -2.955  -0.000  0.00  0.00     0.210 HD
ENDBRANCH   1   7
BRANCH   2   9
HETATM    9  O   UNK N   1      -5.686  -2.894   0.000  0.00  0.00    -0.390 OA
HETATM   10  H   UNK N   1      -5.177  -2.068   0.000  0.00  0.00     0.210 HD
ENDBRANCH   2   9
BRANCH   6  11
HETATM   11  O   UNK N   1      -1.365  -5.488   0.000  0.00  0.00    -0.390 OA
HETATM   12  H   UNK N   1      -0.893  -6.336   0.000  0.00  0.00     0.210 HD
ENDBRANCH   6  11
BRANCH   3  13
HETATM   13  O   UNK N   1      -7.254  -5.233  -0.000  0.00  0.00    -0.385 OA
HETATM   14  C   UNK N   1      -7.928  -6.458   0.000  0.00  0.00     0.202 C 
ENDBRANCH   3  13
BRANCH   5  15
HETATM   15  O   UNK N   1      -2.865  -7.986  -0.000  0.00  0.00    -0.390 OA
HETATM   16  H   UNK N   1      -3.361  -8.820  -0.000  0.00  0.00     0.210 HD
ENDBRANCH   5  15
BRANCH   4  17
HETATM   17  O   UNK N   1      -5.732  -7.988   0.000  0.00  0.00    -0.390 OA
HETATM   18  H   UNK N   1      -6.702  -8.019   0.000  0.00  0.00     0.210 HD
ENDBRANCH   4  17
TORSDOF 6
