REMARK  4 active torsions:
REMARK  status: ('A' for Active; 'I' for Inactive)
REMARK       I    between atoms: C_2  and  N_4 
REMARK    1  A    between atoms: N_4  and  C_5 
REMARK    2  A    between atoms: C_8  and  C_11 
REMARK       I    between atoms: C_11  and  N_13 
REMARK    3  A    between atoms: N_13  and  C_14 
REMARK    4  A    between atoms: C_19  and  N_20 
ROOT
HETATM    1  C   UNK N   1       1.425  -5.391  -0.656  0.00  0.00     0.256 C 
HETATM    2  O   UNK N   1       0.525  -5.952  -1.265  0.00  0.00    -0.267 OA
HETATM    3  N   UNK N   1       2.462  -6.094  -0.127  0.00  0.00    -0.321 N 
HETATM    4  H   UNK N   1       3.216  -5.557   0.207  0.00  0.00     0.169 HD
ENDROOT
BRANCH   1   5
HETATM    5  C   UNK N   1       1.386  -3.926  -0.478  0.00  0.00     0.032 A 
HETATM    6  C   UNK N   1       2.467  -3.266   0.126  0.00  0.00     0.019 A 
HETATM    7  C   UNK N   1       2.413  -1.893   0.365  0.00  0.00     0.030 A 
HETATM    8  C   UNK N   1       1.269  -1.163   0.035  0.00  0.00     0.034 A 
HETATM    9  C   UNK N   1       0.190  -1.818  -0.584  0.00  0.00     0.030 A 
HETATM   10  C   UNK N   1       0.251  -3.190  -0.844  0.00  0.00     0.019 A 
BRANCH   8  11
HETATM   11  N   UNK N   1       1.236   0.229   0.330  0.00  0.00    -0.328 N 
HETATM   12  C   UNK N   1       0.108   0.977   0.453  0.00  0.00     0.218 C 
HETATM   13  C   UNK N   1       0.226   2.441   0.695  0.00  0.00     0.117 C 
HETATM   14  O   UNK N   1      -1.000   0.464   0.413  0.00  0.00    -0.274 OA
HETATM   15  H   UNK N   1       2.098   0.686   0.454  0.00  0.00     0.169 HD
ENDBRANCH   8  11
ENDBRANCH   1   5
BRANCH   3  16
HETATM   16  C   UNK N   1       2.602  -7.508   0.005  0.00  0.00     0.061 A 
HETATM   17  C   UNK N   1       3.903  -8.026   0.024  0.00  0.00     0.032 A 
HETATM   18  C   UNK N   1       4.132  -9.390   0.211  0.00  0.00     0.002 A 
HETATM   19  C   UNK N   1       3.057 -10.258   0.397  0.00  0.00     0.002 A 
HETATM   20  C   UNK N   1       1.755  -9.760   0.408  0.00  0.00     0.031 A 
HETATM   21  C   UNK N   1       1.510  -8.396   0.218  0.00  0.00     0.052 A 
BRANCH  21  22
HETATM   22  N   UNK N   1       0.182  -7.939   0.314  0.00  0.00    -0.397 N 
HETATM   23  H   UNK N   1      -0.006  -6.975   0.382  0.00  0.00     0.156 HD
HETATM   24  H   UNK N   1      -0.561  -8.585   0.314  0.00  0.00     0.156 HD
ENDBRANCH  21  22
ENDBRANCH   3  16
TORSDOF 4
