REMARK  6 active torsions:
REMARK  status: ('A' for Active; 'I' for Inactive)
REMARK    1  A    between atoms: N_4  and  C_8 
REMARK    2  A    between atoms: C_8  and  C_9 
REMARK    3  A    between atoms: C_12  and  C_15 
REMARK    4  A    between atoms: C_15  and  C_16 
REMARK       I    between atoms: C_16  and  N_18 
REMARK    5  A    between atoms: C_21  and  N_24 
REMARK    6  A    between atoms: N_24  and  C_25 
ROOT
HETATM    1  C   UNK N   1      12.655  -8.233  -0.050  0.00  0.00     0.224 C 
HETATM    2  O   UNK N   1      13.802  -7.800  -0.023  0.00  0.00    -0.273 OA
HETATM    3  N   UNK N   1      12.394  -9.569   0.091  0.00  0.00    -0.352 N 
HETATM    4  C   UNK N   1      13.443 -10.570   0.303  0.00  0.00     0.127 C 
HETATM    5  C   UNK N   1      12.983 -12.041   0.030  0.00  0.00     0.045 C 
HETATM    6  C   UNK N   1      11.472 -12.236   0.221  0.00  0.00     0.084 C 
HETATM    7  C   UNK N   1      10.787 -11.223  -0.646  0.00  0.00     0.045 C 
HETATM    8  C   UNK N   1      10.995  -9.965   0.121  0.00  0.00     0.127 C 
ENDROOT
BRANCH   1   9
HETATM    9  C   UNK N   1      11.470  -7.329  -0.255  0.00  0.00     0.141 C 
BRANCH   9  10
HETATM   10  C   UNK N   1      11.220  -5.872  -0.142  0.00  0.00    -0.049 A 
HETATM   11  C   UNK N   1      12.170  -4.874   0.125  0.00  0.00     0.008 A 
HETATM   12  C   UNK N   1      11.742  -3.531   0.237  0.00  0.00     0.009 A 
HETATM   13  C   UNK N   1      10.379  -3.200   0.076  0.00  0.00    -0.030 A 
HETATM   14  C   UNK N   1       9.467  -4.216  -0.198  0.00  0.00     0.009 A 
HETATM   15  C   UNK N   1       9.883  -5.527  -0.300  0.00  0.00     0.008 A 
BRANCH  13  16
HETATM   16  C   UNK N   1       9.900  -1.774   0.246  0.00  0.00     0.311 C 
BRANCH  16  17
HETATM   17  N   UNK N   1       8.519  -1.533  -0.211  0.00  0.00     0.096 N 
HETATM   18  C   UNK N   1       8.238  -0.110  -0.018  0.00  0.00     0.296 C 
HETATM   19  C   UNK N   1       6.805   0.223  -0.464  0.00  0.00     0.100 C 
HETATM   20  C   UNK N   1       6.524   1.681  -0.166  0.00  0.00     0.033 C 
HETATM   21  N   UNK N   1       5.830  -0.601   0.253  0.00  0.00    -0.414 N 
HETATM   22  C   UNK N   1       6.148  -2.013   0.060  0.00  0.00     0.144 C 
HETATM   23  H   UNK N   1       5.048  -0.244   0.802  0.00  0.00     0.153 HD
HETATM   24  C   UNK N   1       7.550  -2.280   0.596  0.00  0.00     0.292 C 
ENDBRANCH  16  17
ENDBRANCH  13  16
ENDBRANCH   9  10
ENDBRANCH   1   9
BRANCH   6  25
HETATM   25  N   UNK N   1      11.005 -13.577  -0.070  0.00  0.00    -0.385 N 
HETATM   26  H   UNK N   1      11.662 -14.269  -0.312  0.00  0.00     0.160 HD
BRANCH  25  27
HETATM   27  C   UNK N   1       9.618 -13.928  -0.019  0.00  0.00     0.031 A 
HETATM   28  C   UNK N   1       9.237 -15.269  -0.137  0.00  0.00     0.029 A 
HETATM   29  C   UNK N   1       7.881 -15.623  -0.115  0.00  0.00     0.005 A 
HETATM   30  C   UNK N   1       6.897 -14.637   0.006  0.00  0.00     0.042 A 
HETATM   31  C   UNK N   1       7.266 -13.296   0.119  0.00  0.00     0.118 A 
HETATM   32  C   UNK N   1       8.617 -12.946   0.115  0.00  0.00     0.071 A 
HETATM   33  F   UNK N   1       6.316 -12.333   0.215  0.00  0.00    -0.206 F 
ENDBRANCH  25  27
ENDBRANCH   6  25
TORSDOF 6
