REMARK WARNING: 32 MAX_TORS EXCEEDED!!!
REMARK  55 active torsions:
REMARK  status: ('A' for Active; 'I' for Inactive)
REMARK    1  A    between atoms: C_1  and  C_2 
REMARK    2  A    between atoms: C_1  and  C_104 
REMARK    3  A    between atoms: C_2  and  C_3 
REMARK    4  A    between atoms: C_3  and  C_4 
REMARK    5  A    between atoms: C_3  and  N_103 
REMARK       I    between atoms: C_4  and  N_6 
REMARK    6  A    between atoms: C_7  and  N_6 
REMARK    7  A    between atoms: C_7  and  C_8 
REMARK    8  A    between atoms: C_7  and  C_16 
REMARK    9  A    between atoms: C_8  and  C_9 
REMARK   10  A    between atoms: C_9  and  C_10 
REMARK   11  A    between atoms: C_10  and  N_11 
REMARK       I    between atoms: N_11  and  C_12 
REMARK       I    between atoms: C_12  and  N_15 
REMARK       I    between atoms: C_16  and  N_18 
REMARK   12  A    between atoms: C_19  and  N_18 
REMARK   13  A    between atoms: C_19  and  C_20 
REMARK   14  A    between atoms: C_19  and  C_28 
REMARK   15  A    between atoms: C_20  and  C_21 
REMARK   16  A    between atoms: C_21  and  C_22 
REMARK   17  A    between atoms: C_22  and  N_23 
REMARK       I    between atoms: N_23  and  C_24 
REMARK       I    between atoms: C_24  and  N_27 
REMARK       I    between atoms: C_28  and  N_30 
REMARK   18  A    between atoms: C_31  and  N_30 
REMARK   19  A    between atoms: C_31  and  C_32 
REMARK   20  A    between atoms: C_31  and  C_40 
REMARK   21  A    between atoms: C_32  and  C_33 
REMARK   22  A    between atoms: C_33  and  C_34 
REMARK   23  A    between atoms: C_34  and  N_35 
REMARK       I    between atoms: N_35  and  C_36 
REMARK       I    between atoms: C_36  and  N_39 
REMARK       I    between atoms: C_40  and  N_42 
REMARK   24  A    between atoms: C_43  and  N_42 
REMARK   25  A    between atoms: C_43  and  C_44 
REMARK   26  A    between atoms: C_43  and  C_52 
REMARK   27  A    between atoms: C_44  and  C_45 
REMARK   28  A    between atoms: C_45  and  C_46 
REMARK   29  A    between atoms: C_46  and  N_47 
REMARK       I    between atoms: N_47  and  C_48 
REMARK       I    between atoms: C_48  and  N_51 
REMARK       I    between atoms: C_52  and  N_54 
REMARK   30  A    between atoms: C_55  and  N_54 
REMARK   31  A    between atoms: C_55  and  C_56 
REMARK   32  A    between atoms: C_55  and  C_64 
REMARK   33  A    between atoms: C_56  and  C_57 
REMARK   34  A    between atoms: C_57  and  C_58 
REMARK   35  A    between atoms: C_58  and  N_59 
REMARK       I    between atoms: N_59  and  C_60 
REMARK       I    between atoms: C_60  and  N_63 
REMARK       I    between atoms: C_64  and  N_66 
REMARK   36  A    between atoms: C_67  and  N_66 
REMARK   37  A    between atoms: C_67  and  C_68 
REMARK   38  A    between atoms: C_67  and  C_76 
REMARK   39  A    between atoms: C_68  and  C_69 
REMARK   40  A    between atoms: C_69  and  C_70 
REMARK   41  A    between atoms: C_70  and  N_71 
REMARK       I    between atoms: N_71  and  C_72 
REMARK       I    between atoms: C_72  and  N_75 
REMARK       I    between atoms: C_76  and  N_78 
REMARK   42  A    between atoms: C_79  and  N_78 
REMARK   43  A    between atoms: C_79  and  C_80 
REMARK   44  A    between atoms: C_79  and  C_88 
REMARK   45  A    between atoms: C_80  and  C_81 
REMARK   46  A    between atoms: C_81  and  C_82 
REMARK   47  A    between atoms: C_82  and  N_83 
REMARK       I    between atoms: N_83  and  C_84 
REMARK       I    between atoms: C_84  and  N_87 
REMARK       I    between atoms: C_88  and  N_90 
REMARK   48  A    between atoms: C_91  and  N_90 
REMARK   49  A    between atoms: C_91  and  C_92 
REMARK   50  A    between atoms: C_91  and  C_100 
REMARK   51  A    between atoms: C_92  and  C_93 
REMARK   52  A    between atoms: C_93  and  C_94 
REMARK   53  A    between atoms: C_94  and  N_95 
REMARK       I    between atoms: N_95  and  C_96 
REMARK       I    between atoms: C_96  and  N_99 
REMARK   54  A    between atoms: C_100  and  O_102 
REMARK   55  A    between atoms: C_104  and  N_105 
REMARK       I    between atoms: N_105  and  C_106 
REMARK       I    between atoms: C_106  and  N_109 
ROOT
HETATM    1  C   UNK N   1      33.403  13.576   0.974  0.00  0.00     0.176 C 
ENDROOT
BRANCH   1   2
HETATM    2  N   UNK N   1      34.435  13.108   0.088  0.00  0.00    -0.346 N 
HETATM    3  C   UNK N   1      35.319  12.188   0.521  0.00  0.00     0.241 C 
HETATM    4  O   UNK N   1      35.286  11.802   1.677  0.00  0.00    -0.271 OA
HETATM    5  H   UNK N   1      34.495  13.459  -0.830  0.00  0.00     0.163 HD
BRANCH   3   6
HETATM    6  C   UNK N   1      36.373  11.688  -0.413  0.00  0.00     0.176 C 
BRANCH   6   7
HETATM    7  N   UNK N   1      37.390  11.095   0.410  0.00  0.00    -0.346 N 
HETATM    8  C   UNK N   1      38.179  11.815   1.238  0.00  0.00     0.241 C 
HETATM    9  O   UNK N   1      38.782  11.212   2.117  0.00  0.00    -0.271 OA
HETATM   10  H   UNK N   1      37.518  10.120   0.370  0.00  0.00     0.163 HD
BRANCH   8  11
HETATM   11  C   UNK N   1      38.447  13.320   1.103  0.00  0.00     0.176 C 
BRANCH  11  12
HETATM   12  N   UNK N   1      39.882  13.388   0.964  0.00  0.00    -0.346 N 
HETATM   13  C   UNK N   1      40.506  12.915  -0.145  0.00  0.00     0.241 C 
HETATM   14  O   UNK N   1      39.936  12.917  -1.228  0.00  0.00    -0.271 OA
HETATM   15  H   UNK N   1      40.418  13.785   1.688  0.00  0.00     0.163 HD
BRANCH  13  16
HETATM   16  C   UNK N   1      41.632  11.958   0.075  0.00  0.00     0.176 C 
BRANCH  16  17
HETATM   17  N   UNK N   1      42.582  11.938  -1.004  0.00  0.00    -0.346 N 
HETATM   18  C   UNK N   1      43.489  12.915  -1.234  0.00  0.00     0.240 C 
HETATM   19  O   UNK N   1      44.306  12.753  -2.125  0.00  0.00    -0.271 OA
HETATM   20  H   UNK N   1      42.572  11.165  -1.613  0.00  0.00     0.163 HD
BRANCH  18  21
HETATM   21  C   UNK N   1      43.546  14.197  -0.434  0.00  0.00     0.167 C 
BRANCH  21  22
HETATM   22  C   UNK N   1      43.399  14.108   1.096  0.00  0.00     0.036 C 
BRANCH  22  23
HETATM   23  C   UNK N   1      44.066  12.922   1.792  0.00  0.00     0.023 C 
BRANCH  23  24
HETATM   24  C   UNK N   1      45.539  12.819   1.471  0.00  0.00     0.138 C 
BRANCH  24  25
HETATM   25  N   UNK N   1      45.721  11.788   0.483  0.00  0.00    -0.227 N 
HETATM   26  C   UNK N   1      46.919  11.668  -0.262  0.00  0.00     0.665 C 
HETATM   27  N   UNK N   1      47.885  12.492  -0.081  0.00  0.00    -0.235 N 
HETATM   28  N   UNK N   1      47.019  10.679  -1.263  0.00  0.00    -0.235 N 
HETATM   29  H   UNK N   1      48.804  12.165   0.057  0.00  0.00     0.174 HD
ATOM     30  HN  UNK N   1      47.700  13.495  -0.081  1.00  0.00     0.174 HD
HETATM   31  H   UNK N   1      46.456  10.274  -1.961  0.00  0.00     0.174 HD
HETATM   32  H   UNK N   1      47.917  10.275  -1.263  0.00  0.00     0.174 HD
HETATM   33  H   UNK N   1      44.992  11.148   0.321  0.00  0.00     0.177 HD
ENDBRANCH  24  25
ENDBRANCH  23  24
ENDBRANCH  22  23
ENDBRANCH  21  22
BRANCH  21  34
HETATM   34  N   UNK N   1      42.583  15.146  -0.959  0.00  0.00    -0.418 N 
HETATM   35  H   UNK N   1      42.822  16.066  -1.328  0.00  0.00     0.150 HD
HETATM   36  H   UNK N   1      41.600  14.875  -0.959  0.00  0.00     0.150 HD
ENDBRANCH  21  34
ENDBRANCH  18  21
ENDBRANCH  16  17
BRANCH  16  37
HETATM   37  C   UNK N   1      41.091  10.541   0.294  0.00  0.00     0.036 C 
BRANCH  37  38
HETATM   38  C   UNK N   1      40.182  10.071  -0.840  0.00  0.00     0.023 C 
BRANCH  38  39
HETATM   39  C   UNK N   1      40.210   8.565  -0.923  0.00  0.00     0.138 C 
BRANCH  39  40
HETATM   40  N   UNK N   1      38.875   8.043  -1.055  0.00  0.00    -0.227 N 
HETATM   41  C   UNK N   1      38.380   7.061  -0.158  0.00  0.00     0.665 C 
HETATM   42  N   UNK N   1      39.106   6.637   0.810  0.00  0.00    -0.235 N 
HETATM   43  N   UNK N   1      37.123   6.470  -0.395  0.00  0.00    -0.235 N 
HETATM   44  H   UNK N   1      39.103   5.991   1.553  0.00  0.00     0.174 HD
ATOM     45  HN  UNK N   1      39.992   7.142   0.810  1.00  0.00     0.174 HD
HETATM   46  H   UNK N   1      36.326   7.024  -0.560  0.00  0.00     0.174 HD
HETATM   47  H   UNK N   1      37.040   5.489  -0.395  0.00  0.00     0.174 HD
HETATM   48  H   UNK N   1      38.295   8.374  -1.779  0.00  0.00     0.177 HD
ENDBRANCH  39  40
ENDBRANCH  38  39
ENDBRANCH  37  38
ENDBRANCH  16  37
ENDBRANCH  13  16
ENDBRANCH  11  12
BRANCH  11  49
HETATM   49  C   UNK N   1      37.764  14.087  -0.047  0.00  0.00     0.036 C 
BRANCH  49  50
HETATM   50  C   UNK N   1      37.105  15.401   0.360  0.00  0.00     0.023 C 
BRANCH  50  51
HETATM   51  C   UNK N   1      37.945  16.267   1.294  0.00  0.00     0.138 C 
BRANCH  51  52
HETATM   52  N   UNK N   1      39.277  16.509   0.786  0.00  0.00    -0.227 N 
HETATM   53  C   UNK N   1      39.547  17.290  -0.369  0.00  0.00     0.665 C 
HETATM   54  N   UNK N   1      38.592  17.775  -1.074  0.00  0.00    -0.235 N 
HETATM   55  N   UNK N   1      40.885  17.581  -0.712  0.00  0.00    -0.235 N 
HETATM   56  H   UNK N   1      38.548  18.596  -1.615  0.00  0.00     0.174 HD
ATOM     57  HN  UNK N   1      37.738  17.218  -1.074  1.00  0.00     0.174 HD
HETATM   58  H   UNK N   1      41.527  16.874  -0.951  0.00  0.00     0.174 HD
HETATM   59  H   UNK N   1      41.184  18.518  -0.712  0.00  0.00     0.174 HD
HETATM   60  H   UNK N   1      40.038  16.112   1.267  0.00  0.00     0.177 HD
ENDBRANCH  51  52
ENDBRANCH  50  51
ENDBRANCH  49  50
ENDBRANCH  11  49
ENDBRANCH   8  11
ENDBRANCH   6   7
BRANCH   6  61
HETATM   61  C   UNK N   1      35.786  10.680  -1.402  0.00  0.00     0.036 C 
BRANCH  61  62
HETATM   62  C   UNK N   1      35.865   9.238  -0.910  0.00  0.00     0.023 C 
BRANCH  62  63
HETATM   63  C   UNK N   1      34.987   8.976   0.297  0.00  0.00     0.138 C 
BRANCH  63  64
HETATM   64  N   UNK N   1      33.800   8.331  -0.174  0.00  0.00    -0.227 N 
HETATM   65  C   UNK N   1      33.598   6.935  -0.049  0.00  0.00     0.665 C 
HETATM   66  N   UNK N   1      34.410   6.215   0.631  0.00  0.00    -0.235 N 
HETATM   67  N   UNK N   1      32.590   6.314  -0.813  0.00  0.00    -0.235 N 
HETATM   68  H   UNK N   1      34.243   5.397   1.153  0.00  0.00     0.174 HD
ATOM     69  HN  UNK N   1      35.378   6.537   0.631  1.00  0.00     0.174 HD
HETATM   70  H   UNK N   1      31.863   6.706  -1.348  0.00  0.00     0.174 HD
HETATM   71  H   UNK N   1      32.619   5.330  -0.813  0.00  0.00     0.174 HD
HETATM   72  H   UNK N   1      33.099   8.877  -0.599  0.00  0.00     0.177 HD
ENDBRANCH  63  64
ENDBRANCH  62  63
ENDBRANCH  61  62
ENDBRANCH   6  61
ENDBRANCH   3   6
ENDBRANCH   1   2
BRANCH   1  73
HETATM   73  C   UNK N   1      32.545  14.591   0.239  0.00  0.00     0.036 C 
BRANCH  73  74
HETATM   74  C   UNK N   1      33.290  15.883   0.074  0.00  0.00     0.023 C 
BRANCH  74  75
HETATM   75  C   UNK N   1      33.267  16.652   1.380  0.00  0.00     0.138 C 
BRANCH  75  76
HETATM   76  N   UNK N   1      34.512  17.358   1.549  0.00  0.00    -0.227 N 
HETATM   77  C   UNK N   1      34.978  18.321   0.615  0.00  0.00     0.665 C 
HETATM   78  N   UNK N   1      34.307  18.587  -0.446  0.00  0.00    -0.235 N 
HETATM   79  N   UNK N   1      36.213  18.964   0.837  0.00  0.00    -0.235 N 
HETATM   80  H   UNK N   1      34.226  19.135  -1.260  0.00  0.00     0.174 HD
ATOM     81  HN  UNK N   1      33.507  17.954  -0.446  1.00  0.00     0.174 HD
HETATM   82  H   UNK N   1      37.033  18.442   0.993  0.00  0.00     0.174 HD
HETATM   83  H   UNK N   1      36.255  19.947   0.837  0.00  0.00     0.174 HD
HETATM   84  H   UNK N   1      35.060  17.166   2.344  0.00  0.00     0.177 HD
ENDBRANCH  75  76
ENDBRANCH  74  75
ENDBRANCH  73  74
ENDBRANCH   1  73
BRANCH   1  85
HETATM   85  C   UNK N   1      32.515  12.442   1.286  0.00  0.00     0.241 C 
HETATM   86  O   UNK N   1      32.091  12.281   2.424  0.00  0.00    -0.271 OA
HETATM   87  N   UNK N   1      32.020  11.739   0.251  0.00  0.00    -0.346 N 
HETATM   88  H   UNK N   1      32.580  11.568  -0.541  0.00  0.00     0.163 HD
BRANCH  87  89
HETATM   89  C   UNK N   1      30.694  11.244   0.302  0.00  0.00     0.176 C 
BRANCH  89  90
HETATM   90  C   UNK N   1      30.459  10.255  -0.827  0.00  0.00     0.036 C 
BRANCH  90  91
HETATM   91  C   UNK N   1      31.088   8.935  -0.479  0.00  0.00     0.023 C 
BRANCH  91  92
HETATM   92  C   UNK N   1      30.491   8.379   0.804  0.00  0.00     0.138 C 
BRANCH  92  93
HETATM   93  N   UNK N   1      29.162   7.926   0.511  0.00  0.00    -0.227 N 
HETATM   94  C   UNK N   1      28.944   6.655  -0.069  0.00  0.00     0.665 C 
HETATM   95  N   UNK N   1      29.862   5.761  -0.047  0.00  0.00    -0.235 N 
HETATM   96  N   UNK N   1      27.791   6.443  -0.844  0.00  0.00    -0.235 N 
HETATM   97  H   UNK N   1      29.621   4.807  -0.030  0.00  0.00     0.174 HD
ATOM     98  HN  UNK N   1      30.844   6.039  -0.047  1.00  0.00     0.174 HD
HETATM   99  H   UNK N   1      27.259   7.068  -1.387  0.00  0.00     0.174 HD
HETATM  100  H   UNK N   1      27.461   5.515  -0.844  0.00  0.00     0.174 HD
HETATM  101  H   UNK N   1      28.394   8.506   0.715  0.00  0.00     0.177 HD
ENDBRANCH  92  93
ENDBRANCH  91  92
ENDBRANCH  90  91
ENDBRANCH  89  90
BRANCH  89 102
HETATM  102  C   UNK N   1      29.864  12.451   0.085  0.00  0.00     0.241 C 
HETATM  103  O   UNK N   1      29.698  13.243   1.002  0.00  0.00    -0.271 OA
HETATM  104  N   UNK N   1      29.530  12.791  -1.180  0.00  0.00    -0.346 N 
HETATM  105  H   UNK N   1      30.234  13.109  -1.789  0.00  0.00     0.163 HD
BRANCH 104 106
HETATM  106  C   UNK N   1      28.177  12.702  -1.665  0.00  0.00     0.176 C 
BRANCH 106 107
HETATM  107  C   UNK N   1      27.675  14.057  -2.180  0.00  0.00     0.036 C 
BRANCH 107 108
HETATM  108  C   UNK N   1      27.141  15.028  -1.127  0.00  0.00     0.023 C 
BRANCH 108 109
HETATM  109  C   UNK N   1      28.148  15.362  -0.042  0.00  0.00     0.138 C 
BRANCH 109 110
HETATM  110  N   UNK N   1      29.199  16.204  -0.551  0.00  0.00    -0.227 N 
HETATM  111  C   UNK N   1      29.749  17.246   0.239  0.00  0.00     0.665 C 
HETATM  112  N   UNK N   1      29.336  17.446   1.437  0.00  0.00    -0.235 N 
HETATM  113  N   UNK N   1      30.776  18.055  -0.290  0.00  0.00    -0.235 N 
HETATM  114  H   UNK N   1      29.310  17.797   2.357  0.00  0.00     0.174 HD
ATOM    115  HN  UNK N   1      28.492  16.873   1.437  1.00  0.00     0.174 HD
HETATM  116  H   UNK N   1      31.624  17.717  -0.659  0.00  0.00     0.174 HD
HETATM  117  H   UNK N   1      30.634  19.030  -0.290  0.00  0.00     0.174 HD
HETATM  118  H   UNK N   1      29.541  16.055  -1.462  0.00  0.00     0.177 HD
ENDBRANCH 109 110
ENDBRANCH 108 109
ENDBRANCH 107 108
ENDBRANCH 106 107
BRANCH 106 119
HETATM  119  C   UNK N   1      27.245  12.009  -0.708  0.00  0.00     0.241 C 
HETATM  120  O   UNK N   1      26.562  11.076  -1.102  0.00  0.00    -0.271 OA
HETATM  121  N   UNK N   1      27.132  12.482   0.567  0.00  0.00    -0.346 N 
HETATM  122  H   UNK N   1      27.886  13.009   0.917  0.00  0.00     0.163 HD
BRANCH 121 123
HETATM  123  C   UNK N   1      26.007  12.281   1.448  0.00  0.00     0.176 C 
BRANCH 123 124
HETATM  124  C   UNK N   1      25.453  10.861   1.491  0.00  0.00     0.036 C 
BRANCH 124 125
HETATM  125  C   UNK N   1      26.425   9.715   1.709  0.00  0.00     0.023 C 
BRANCH 125 126
HETATM  126  C   UNK N   1      25.627   8.408   1.679  0.00  0.00     0.138 C 
BRANCH 126 127
HETATM  127  N   UNK N   1      24.691   8.419   0.574  0.00  0.00    -0.227 N 
HETATM  128  C   UNK N   1      24.550   7.348  -0.342  0.00  0.00     0.665 C 
HETATM  129  N   UNK N   1      25.130   6.226  -0.130  0.00  0.00    -0.235 N 
HETATM  130  N   UNK N   1      23.697   7.496  -1.456  0.00  0.00    -0.235 N 
HETATM  131  H   UNK N   1      24.605   5.409   0.033  0.00  0.00     0.174 HD
ATOM    132  HN  UNK N   1      26.148   6.179  -0.130  1.00  0.00     0.174 HD
HETATM  133  H   UNK N   1      23.488   8.063  -2.233  0.00  0.00     0.174 HD
HETATM  134  H   UNK N   1      23.067   6.739  -1.456  0.00  0.00     0.174 HD
HETATM  135  H   UNK N   1      24.123   9.213   0.452  0.00  0.00     0.177 HD
ENDBRANCH 126 127
ENDBRANCH 125 126
ENDBRANCH 124 125
ENDBRANCH 123 124
BRANCH 123 136
HETATM  136  C   UNK N   1      24.925  13.132   0.888  0.00  0.00     0.241 C 
HETATM  137  O   UNK N   1      24.335  13.930   1.598  0.00  0.00    -0.271 OA
HETATM  138  N   UNK N   1      24.632  12.994  -0.435  0.00  0.00    -0.345 N 
HETATM  139  H   UNK N   1      25.235  12.417  -0.957  0.00  0.00     0.163 HD
BRANCH 138 140
HETATM  140  C   UNK N   1      23.542  13.596  -1.157  0.00  0.00     0.182 C 
BRANCH 140 141
HETATM  141  C   UNK N   1      22.351  12.641  -1.193  0.00  0.00     0.038 C 
BRANCH 141 142
HETATM  142  C   UNK N   1      22.224  11.785   0.069  0.00  0.00     0.023 C 
BRANCH 142 143
HETATM  143  C   UNK N   1      21.519  12.531   1.191  0.00  0.00     0.138 C 
BRANCH 143 144
HETATM  144  N   UNK N   1      20.218  12.979   0.757  0.00  0.00    -0.227 N 
HETATM  145  C   UNK N   1      19.241  12.086   0.246  0.00  0.00     0.665 C 
HETATM  146  N   UNK N   1      18.121  12.545  -0.166  0.00  0.00    -0.235 N 
HETATM  147  N   UNK N   1      19.516  10.703   0.125  0.00  0.00    -0.235 N 
HETATM  148  H   UNK N   1      17.996  13.468  -0.484  0.00  0.00     0.174 HD
ATOM    149  HN  UNK N   1      17.314  11.921  -0.166  1.00  0.00     0.174 HD
HETATM  150  H   UNK N   1      18.779  10.056   0.041  0.00  0.00     0.174 HD
HETATM  151  H   UNK N   1      20.448  10.387   0.125  0.00  0.00     0.174 HD
HETATM  152  H   UNK N   1      20.001  13.938   0.817  0.00  0.00     0.177 HD
ENDBRANCH 143 144
ENDBRANCH 142 143
ENDBRANCH 141 142
ENDBRANCH 140 141
BRANCH 140 153
HETATM  153  C   UNK N   1      23.268  15.022  -0.780  0.00  0.00     0.163 C 
HETATM  154  O   UNK N   1      22.164  15.359  -0.385  0.00  0.00    -0.648 OA
BRANCH 153 155
HETATM  155  O   UNK N   1      24.242  15.943  -0.905  0.00  0.00    -0.775 OA
HETATM  156  H   UNK N   1      25.136  15.677  -0.992  0.00  0.00     0.167 HD
ENDBRANCH 153 155
ENDBRANCH 140 153
ENDBRANCH 138 140
ENDBRANCH 123 136
ENDBRANCH 121 123
ENDBRANCH 106 119
ENDBRANCH 104 106
ENDBRANCH  89 102
ENDBRANCH  87  89
ENDBRANCH   1  85
TORSDOF 55
