REMARK  5 active torsions:
REMARK  status: ('A' for Active; 'I' for Inactive)
REMARK    1  A    between atoms: C_3  and  C_14 
REMARK    2  A    between atoms: C_6  and  C_7 
REMARK    3  A    between atoms: C_7  and  N_8 
REMARK    4  A    between atoms: C_15  and  C_16 
REMARK    5  A    between atoms: C_16  and  O_18 
ROOT
HETATM    1  C   UNK N   1       3.488   3.776   0.000  0.00  0.00     0.009 A 
HETATM    2  C   UNK N   1       4.690   4.505   0.000  0.00  0.00     0.012 A 
HETATM    3  C   UNK N   1       5.918   3.829  -0.000  0.00  0.00    -0.036 A 
HETATM    4  C   UNK N   1       5.931   2.431  -0.000  0.00  0.00     0.012 A 
HETATM    5  C   UNK N   1       4.743   1.716  -0.000  0.00  0.00     0.009 A 
HETATM    6  C   UNK N   1       3.509   2.373  -0.000  0.00  0.00    -0.040 A 
ENDROOT
BRANCH   6   7
HETATM    7  C   UNK N   1       2.198   1.616  -0.000  0.00  0.00     0.167 C 
BRANCH   7   8
HETATM    8  N   UNK N   1       2.265   0.146  -0.000  0.00  0.00    -0.347 N 
HETATM    9  C   UNK N   1       3.338  -0.671   0.000  0.00  0.00     0.109 A 
HETATM   10  C   UNK N   1       2.885  -1.971   0.000  0.00  0.00     0.106 A 
HETATM   11  N   UNK N   1       1.537  -1.952  -0.000  0.00  0.00    -0.361 N 
HETATM   12  C   UNK N   1       1.185  -0.652  -0.000  0.00  0.00     0.182 A 
ATOM     13  HN  UNK N   1       0.911  -2.758  -0.000  1.00  0.00     0.166 HD
ENDBRANCH   7   8
ENDBRANCH   6   7
BRANCH   3  14
HETATM   14  C   UNK N   1       7.190   4.574   0.000  0.00  0.00     0.018 C 
HETATM   15  C   UNK N   1       8.353   3.907  -0.000  0.00  0.00     0.082 C 
BRANCH  15  16
HETATM   16  C   UNK N   1       9.667   4.561   0.000  0.00  0.00     0.165 C 
HETATM   17  O   UNK N   1       9.763   5.777   0.000  0.00  0.00    -0.647 OA
BRANCH  16  18
HETATM   18  O   UNK N   1      10.778   3.801  -0.000  0.00  0.00    -0.773 OA
HETATM   19  H   UNK N   1      10.707   2.867  -0.000  0.00  0.00     0.167 HD
ENDBRANCH  16  18
ENDBRANCH  15  16
ENDBRANCH   3  14
TORSDOF 5
