REMARK  5 active torsions:
REMARK  status: ('A' for Active; 'I' for Inactive)
REMARK    1  A    between atoms: C_12  and  C_7 
REMARK    2  A    between atoms: C_21  and  O_37 
REMARK    3  A    between atoms: C_22  and  C_34 
REMARK    4  A    between atoms: C_26  and  O_31 
REMARK    5  A    between atoms: C_34  and  C_35 
ROOT
HETATM    1  C   UNK N   1       0.720  -0.127   0.082  0.00  0.00     0.167 C 
HETATM    2  C   UNK N   1      -0.222   0.826   0.797  0.00  0.00     0.072 C 
HETATM    3  C   UNK N   1      -0.713   1.711  -0.332  0.00  0.00     0.159 A 
HETATM    4  C   UNK N   1      -0.606   3.140   0.044  0.00  0.00     0.084 A 
HETATM    5  O   UNK N   1      -1.854   2.494  -0.063  0.00  0.00    -0.369 OA
HETATM    6  C   UNK N   1      -0.168   3.997  -1.126  0.00  0.00     0.040 C 
HETATM    7  C   UNK N   1       1.255   3.586  -1.505  0.00  0.00     0.004 C 
HETATM    8  C   UNK N   1       2.287   4.675  -1.255  0.00  0.00     0.007 C 
HETATM    9  C   UNK N   1       2.935   4.573   0.123  0.00  0.00     0.011 C 
HETATM   10  C   UNK N   1       4.463   4.735  -0.056  0.00  0.00     0.133 C 
HETATM   11  C   UNK N   1       5.341   3.466   0.135  0.00  0.00     0.089 C 
HETATM   12  C   UNK N   1       4.904   2.209  -0.607  0.00  0.00     0.144 C 
HETATM   13  O   UNK N   1       3.928   2.250  -1.340  0.00  0.00    -0.297 OA
HETATM   14  C   UNK N   1       5.698   0.902  -0.534  0.00  0.00     0.040 C 
HETATM   15  C   UNK N   1       4.786  -0.287  -0.173  0.00  0.00     0.142 C 
HETATM   16  C   UNK N   1       4.290  -0.238   1.277  0.00  0.00     0.144 C 
HETATM   17  C   UNK N   1       2.798  -0.204   1.357  0.00  0.00     0.262 C 
HETATM   18  O   UNK N   1       2.246  -0.510   2.404  0.00  0.00    -0.265 OA
HETATM   19  O   UNK N   1       2.074   0.106   0.251  0.00  0.00    -0.311 OA
HETATM   20  C   UNK N   1       6.859   0.943   0.455  0.00  0.00     0.026 C 
HETATM   21  C   UNK N   1       6.288   0.674  -1.919  0.00  0.00     0.026 C 
HETATM   22  C   UNK N   1       2.322   5.682   0.974  0.00  0.00     0.012 C 
HETATM   23  C   UNK N   1      -0.394   3.623   1.470  0.00  0.00     0.049 C 
ENDROOT
BRANCH   1  24
HETATM   24  C   UNK N   1       0.317  -1.565   0.061  0.00  0.00    -0.026 A 
HETATM   25  C   UNK N   1       1.288  -2.576   0.173  0.00  0.00     0.040 A 
HETATM   26  C   UNK N   1       0.888  -3.904   0.075  0.00  0.00     0.050 A 
HETATM   27  N   UNK N   1       1.738  -4.975   0.162  0.00  0.00    -0.353 N 
HETATM   28  C   UNK N   1      -0.457  -4.209  -0.134  0.00  0.00     0.033 A 
HETATM   29  C   UNK N   1       1.063  -6.153   0.023  0.00  0.00     0.048 A 
ATOM     30  HN  UNK N   1       2.744  -4.902   0.311  1.00  0.00     0.166 HD
HETATM   31  C   UNK N   1       1.703  -7.490   0.070  0.00  0.00     0.076 C 
HETATM   32  S   UNK N   1      -0.555  -5.852  -0.204  0.00  0.00    -0.075 SA
HETATM   33  C   UNK N   1      -1.439  -3.241  -0.254  0.00  0.00     0.022 A 
HETATM   34  C   UNK N   1      -1.039  -1.900  -0.163  0.00  0.00     0.011 A 
ENDBRANCH   1  24
BRANCH  15  35
HETATM   35  O   UNK N   1       5.438  -1.507  -0.389  0.00  0.00    -0.394 OA
HETATM   36  H   UNK N   1       4.932  -2.321  -0.539  0.00  0.00     0.210 HD
ENDBRANCH  15  35
BRANCH  11  37
HETATM   37  C   UNK N   1       6.735   3.834  -0.374  0.00  0.00     0.041 C 
BRANCH  37  38
HETATM   38  C   UNK N   1       7.700   4.022   0.747  0.00  0.00    -0.036 C 
HETATM   39  C   UNK N   1       8.854   3.359   0.741  0.00  0.00     0.007 C 
ENDBRANCH  37  38
ENDBRANCH  11  37
BRANCH  10  40
HETATM   40  O   UNK N   1       4.977   5.775   0.730  0.00  0.00    -0.394 OA
HETATM   41  H   UNK N   1       5.778   5.827   1.274  0.00  0.00     0.210 HD
ENDBRANCH  10  40
TORSDOF 5
