REMARK  6 active torsions:
REMARK  status: ('A' for Active; 'I' for Inactive)
REMARK    1  A    between atoms: N_2  and  C_4 
REMARK    2  A    between atoms: C_4  and  C_5 
REMARK    3  A    between atoms: C_5  and  C_6 
REMARK    4  A    between atoms: C_6  and  N_7 
REMARK    5  A    between atoms: C_11  and  N_26 
REMARK    6  A    between atoms: C_19  and  O_24 
ROOT
HETATM    1  N   UNK N   1      -0.517  -2.041   0.206  0.00  0.00    -0.291 N 
HETATM    2  C   UNK N   1      -1.035  -0.790   0.144  0.00  0.00     0.065 A 
HETATM    3  C   UNK N   1      -2.345  -0.316   0.179  0.00  0.00     0.034 A 
HETATM    4  C   UNK N   1      -2.526   1.095   0.110  0.00  0.00     0.041 A 
HETATM    5  C   UNK N   1      -1.407   1.992   0.021  0.00  0.00     0.130 A 
HETATM    6  C   UNK N   1      -0.097   1.431  -0.005  0.00  0.00     0.081 A 
HETATM    7  C   UNK N   1      -0.017   0.070   0.054  0.00  0.00     0.050 A 
HETATM    8  C   UNK N   1       1.115  -0.639   0.056  0.00  0.00     0.075 A 
HETATM    9  N   UNK N   1       0.815  -1.955   0.147  0.00  0.00    -0.296 N 
ATOM     10  HN  UNK N   1       1.477  -2.731   0.167  1.00  0.00     0.187 HD
HETATM   11  C   UNK N   1       2.330   0.019  -0.001  0.00  0.00     0.022 A 
HETATM   12  C   UNK N   1       3.538  -0.670   0.017  0.00  0.00     0.053 A 
HETATM   13  C   UNK N   1       4.742   0.031  -0.021  0.00  0.00     0.069 A 
HETATM   14  C   UNK N   1       4.725   1.442  -0.081  0.00  0.00     0.039 A 
HETATM   15  C   UNK N   1       3.510   2.148  -0.103  0.00  0.00     0.033 A 
HETATM   16  C   UNK N   1       2.299   1.451  -0.063  0.00  0.00     0.045 A 
HETATM   17  N   UNK N   1       1.087   2.128  -0.067  0.00  0.00    -0.353 N 
HETATM   18  H   UNK N   1       1.076   3.111  -0.114  0.00  0.00     0.166 HD
ENDROOT
BRANCH   1  19
HETATM   19  C   UNK N   1      -1.229  -3.294   0.389  0.00  0.00     0.151 C 
BRANCH  19  20
HETATM   20  C   UNK N   1      -2.269  -3.501  -0.686  0.00  0.00     0.052 C 
BRANCH  20  21
HETATM   21  C   UNK N   1      -3.456  -4.180  -0.029  0.00  0.00     0.273 C 
BRANCH  21  22
HETATM   22  N   UNK N   1      -4.704  -3.560  -0.446  0.00  0.00     0.080 N 
HETATM   23  C   UNK N   1      -5.770  -4.417   0.034  0.00  0.00     0.309 C 
HETATM   24  C   UNK N   1      -4.847  -2.296   0.260  0.00  0.00     0.309 C 
ENDBRANCH  21  22
ENDBRANCH  20  21
ENDBRANCH  19  20
ENDBRANCH   1  19
BRANCH   5  25
HETATM   25  N   UNK N   1      -1.640   3.397  -0.024  0.00  0.00    -0.113 N 
HETATM   26  O   UNK N   1      -0.728   4.167  -0.077  0.00  0.00    -0.532 OA
HETATM   27  O   UNK N   1      -2.872   3.861   0.004  0.00  0.00    -0.532 OA
ENDBRANCH   5  25
BRANCH  13  28
HETATM   28  O   UNK N   1       5.897  -0.673   0.003  0.00  0.00    -0.356 OA
HETATM   29  C   UNK N   1       7.142  -0.089  -0.018  0.00  0.00     0.210 C 
ENDBRANCH  13  28
TORSDOF 6
