REMARK  13 active torsions:
REMARK  status: ('A' for Active; 'I' for Inactive)
REMARK    1  A    between atoms: C_2  and  C_3 
REMARK    2  A    between atoms: C_3  and  C_4 
REMARK    3  A    between atoms: C_3  and  N_18 
REMARK    4  A    between atoms: C_4  and  O_6 
REMARK    5  A    between atoms: O_6  and  C_7 
REMARK    6  A    between atoms: C_8  and  O_16 
REMARK    7  A    between atoms: C_12  and  O_13 
REMARK    8  A    between atoms: N_18  and  C_19 
REMARK    9  A    between atoms: N_18  and  C_23 
REMARK   10  A    between atoms: C_19  and  C_20 
REMARK   11  A    between atoms: C_20  and  O_21 
REMARK   12  A    between atoms: C_23  and  C_24 
REMARK   13  A    between atoms: C_24  and  O_25 
ROOT
HETATM    1  C   UNK N   1       4.567  -1.969  -0.302  0.00  0.00     0.298 C 
HETATM    2  O   UNK N   1       5.228  -2.532  -1.163  0.00  0.00    -0.262 OA
ENDROOT
BRANCH   1   3
HETATM    3  C   UNK N   1       3.357  -2.649   0.310  0.00  0.00     0.321 C 
BRANCH   3   4
HETATM    4  C   UNK N   1       2.032  -2.021  -0.117  0.00  0.00     0.042 C 
HETATM    5  C   UNK N   1       1.778  -0.727   0.628  0.00  0.00     0.007 C 
ENDBRANCH   3   4
BRANCH   3   6
HETATM    6  N   UNK N   1       3.332  -4.113   0.181  0.00  0.00     0.106 N 
BRANCH   6   7
HETATM    7  C   UNK N   1       3.129  -4.553  -1.205  0.00  0.00     0.299 C 
BRANCH   7   8
HETATM    8  C   UNK N   1       2.277  -5.813  -1.232  0.00  0.00     0.197 C 
BRANCH   8   9
HETATM    9  O   UNK N   1       1.017  -5.555  -0.688  0.00  0.00    -0.394 OA
HETATM   10  C   UNK N   1       0.924  -6.405   0.415  0.00  0.00     0.201 C 
ENDBRANCH   8   9
ENDBRANCH   7   8
ENDBRANCH   6   7
BRANCH   6  11
HETATM   11  C   UNK N   1       4.494  -4.692   0.885  0.00  0.00     0.299 C 
BRANCH  11  12
HETATM   12  C   UNK N   1       5.345  -5.650   0.053  0.00  0.00     0.197 C 
BRANCH  12  13
HETATM   13  O   UNK N   1       6.692  -5.319   0.187  0.00  0.00    -0.394 OA
HETATM   14  C   UNK N   1       7.293  -6.458   0.721  0.00  0.00     0.201 C 
ENDBRANCH  12  13
ENDBRANCH  11  12
ENDBRANCH   6  11
ENDBRANCH   3   6
ENDBRANCH   1   3
BRANCH   1  15
HETATM   15  O   UNK N   1       4.891  -0.717   0.113  0.00  0.00    -0.271 OA
BRANCH  15  16
HETATM   16  C   UNK N   1       6.112  -0.105   0.100  0.00  0.00     0.145 A 
HETATM   17  C   UNK N   1       6.167   1.319   0.062  0.00  0.00     0.105 A 
HETATM   18  C   UNK N   1       7.407   1.963   0.095  0.00  0.00     0.046 A 
HETATM   19  C   UNK N   1       8.591   1.239   0.162  0.00  0.00    -0.057 A 
HETATM   20  C   UNK N   1       8.555  -0.147   0.203  0.00  0.00     0.046 A 
HETATM   21  C   UNK N   1       9.895   1.949   0.204  0.00  0.00     0.048 C 
HETATM   22  C   UNK N   1       7.332  -0.839   0.178  0.00  0.00     0.105 A 
BRANCH  17  23
HETATM   23  O   UNK N   1       5.066   2.113  -0.008  0.00  0.00    -0.353 OA
HETATM   24  C   UNK N   1       3.767   1.683  -0.142  0.00  0.00     0.210 C 
ENDBRANCH  17  23
BRANCH  22  25
HETATM   25  O   UNK N   1       7.327  -2.192   0.265  0.00  0.00    -0.353 OA
HETATM   26  C   UNK N   1       8.476  -2.949   0.339  0.00  0.00     0.210 C 
ENDBRANCH  22  25
ENDBRANCH  15  16
ENDBRANCH   1  15
TORSDOF 13
