REMARK  6 active torsions:
REMARK  status: ('A' for Active; 'I' for Inactive)
REMARK    1  A    between atoms: C_3  and  C_8 
REMARK    2  A    between atoms: C_10  and  O_22 
REMARK    3  A    between atoms: C_11  and  C_15 
REMARK       I    between atoms: C_15  and  N_17 
REMARK    4  A    between atoms: N_17  and  C_18 
REMARK    5  A    between atoms: C_18  and  C_19 
REMARK    6  A    between atoms: C_19  and  O_21 
ROOT
HETATM    1  C   UNK N   1      -1.804   1.632   0.029  0.00  0.00    -0.008 A 
HETATM    2  C   UNK N   1      -1.916   3.023   0.078  0.00  0.00     0.052 A 
HETATM    3  C   UNK N   1      -0.785   3.830   0.076  0.00  0.00     0.098 A 
HETATM    4  C   UNK N   1       0.496   3.236   0.019  0.00  0.00     0.134 A 
HETATM    5  N   UNK N   1       0.581   1.873  -0.022  0.00  0.00    -0.358 N 
ATOM      6  HN  UNK N   1       1.504   1.439  -0.058  1.00  0.00     0.165 HD
HETATM    7  C   UNK N   1      -0.521   1.070  -0.017  0.00  0.00     0.101 A 
ENDROOT
BRANCH   4   8
HETATM    8  C   UNK N   1       1.740   4.084  -0.000  0.00  0.00     0.271 C 
HETATM    9  O   UNK N   1       1.628   5.300   0.013  0.00  0.00    -0.266 OA
HETATM   10  N   UNK N   1       2.996   3.565  -0.033  0.00  0.00    -0.346 N 
HETATM   11  H   UNK N   1       3.748   4.200  -0.048  0.00  0.00     0.163 HD
BRANCH  10  12
HETATM   12  C   UNK N   1       3.314   2.158  -0.048  0.00  0.00     0.232 C 
BRANCH  12  13
HETATM   13  C   UNK N   1       4.798   1.941  -0.011  0.00  0.00     0.158 C 
HETATM   14  O   UNK N   1       5.570   2.887   0.020  0.00  0.00    -0.649 OA
BRANCH  13  15
HETATM   15  O   UNK N   1       5.282   0.686  -0.005  0.00  0.00    -0.775 OA
HETATM   16  H   UNK N   1       4.694  -0.043  -0.001  0.00  0.00     0.167 HD
ENDBRANCH  13  15
ENDBRANCH  12  13
ENDBRANCH  10  12
ENDBRANCH   4   8
BRANCH   3  17
HETATM   17  O   UNK N   1      -0.942   5.164   0.128  0.00  0.00    -0.358 OA
HETATM   18  H   UNK N   1      -0.192   5.724   0.163  0.00  0.00     0.217 HD
ENDBRANCH   3  17
BRANCH   1  19
HETATM   19  C   UNK N   1      -3.029   0.794   0.015  0.00  0.00    -0.023 A 
HETATM   20  C   UNK N   1      -4.292   1.411   0.008  0.00  0.00     0.012 A 
HETATM   21  C   UNK N   1      -5.459   0.647  -0.015  0.00  0.00     0.003 A 
HETATM   22  C   UNK N   1      -5.379  -0.746  -0.026  0.00  0.00     0.024 A 
HETATM   23  C   UNK N   1      -4.131  -1.375  -0.017  0.00  0.00     0.034 A 
HETATM   24  C   UNK N   1      -2.957  -0.609   0.002  0.00  0.00     0.036 A 
HETATM   25 Cl   UNK N   1      -4.046  -3.122  -0.024  0.00  0.00    -0.084 Cl
ENDBRANCH   1  19
TORSDOF 6
