REMARK  6 active torsions:
REMARK  status: ('A' for Active; 'I' for Inactive)
REMARK    1  A    between atoms: C_4  and  C_2 
REMARK    2  A    between atoms: C_4  and  C_21 
REMARK    3  A    between atoms: C_6  and  C_10 
REMARK       I    between atoms: C_21  and  N_23 
REMARK    4  A    between atoms: C_24  and  N_23 
REMARK    5  A    between atoms: C_29  and  C_30 
REMARK    6  A    between atoms: C_29  and  O_32 
ROOT
HETATM    1  C   UNK N   1       1.100   3.024   0.155  0.00  0.00     0.177 A 
HETATM    2  C   UNK N   1       0.975   1.825  -0.812  0.00  0.00     0.112 A 
HETATM    3  C   UNK N   1       0.265   0.859   0.063  0.00  0.00     0.063 A 
HETATM    4  N   UNK N   1       0.016   1.358   1.201  0.00  0.00    -0.267 N 
ATOM      5  HN  UNK N   1      -0.445   0.854   1.959  1.00  0.00     0.194 HD
HETATM    6  O   UNK N   1       0.424   2.602   1.287  0.00  0.00    -0.258 OA
ENDROOT
BRANCH   1   7
HETATM    7  C   UNK N   1       0.446   4.321  -0.375  0.00  0.00     0.025 C 
HETATM    8  C   UNK N   1      -1.055   4.188  -0.570  0.00  0.00     0.013 C 
HETATM    9  C   UNK N   1       1.075   4.861  -1.648  0.00  0.00     0.013 C 
ENDBRANCH   1   7
BRANCH   1  10
HETATM   10  C   UNK N   1       2.575   3.241   0.434  0.00  0.00     0.256 C 
HETATM   11  O   UNK N   1       2.984   3.283   1.586  0.00  0.00    -0.270 OA
HETATM   12  N   UNK N   1       3.427   3.393  -0.618  0.00  0.00    -0.348 N 
HETATM   13  H   UNK N   1       3.057   3.237  -1.516  0.00  0.00     0.163 HD
BRANCH  12  14
HETATM   14  C   UNK N   1       4.827   3.764  -0.541  0.00  0.00     0.159 C 
HETATM   15  C   UNK N   1       5.064   5.168  -0.018  0.00  0.00     0.141 C 
HETATM   16  C   UNK N   1       6.417   4.969   0.530  0.00  0.00     0.263 C 
HETATM   17  O   UNK N   1       7.118   5.888   0.920  0.00  0.00    -0.265 OA
HETATM   18  O   UNK N   1       6.802   3.687   0.615  0.00  0.00    -0.279 OA
HETATM   19  C   UNK N   1       5.854   2.819   0.132  0.00  0.00     0.218 C 
BRANCH  19  20
HETATM   20  C   UNK N   1       6.492   1.873  -0.875  0.00  0.00     0.293 C 
HETATM   21  F   UNK N   1       5.570   0.970  -1.367  0.00  0.00    -0.250 F 
ENDBRANCH  19  20
BRANCH  19  22
HETATM   22  O   UNK N   1       5.317   2.095   1.198  0.00  0.00    -0.361 OA
HETATM   23  H   UNK N   1       4.695   2.166   1.939  0.00  0.00     0.213 HD
ENDBRANCH  19  22
ENDBRANCH  12  14
ENDBRANCH   1  10
BRANCH   3  24
HETATM   24  C   UNK N   1       0.374  -0.599  -0.099  0.00  0.00     0.068 A 
HETATM   25  C   UNK N   1       1.645  -1.209  -0.084  0.00  0.00     0.003 A 
HETATM   26  C   UNK N   1       2.820  -0.457   0.084  0.00  0.00     0.014 A 
HETATM   27  C   UNK N   1       1.732  -2.612  -0.190  0.00  0.00    -0.022 A 
HETATM   28  C   UNK N   1       4.061  -1.090   0.147  0.00  0.00     0.001 A 
HETATM   29  C   UNK N   1       4.143  -2.480   0.036  0.00  0.00     0.001 A 
HETATM   30  C   UNK N   1       2.981  -3.240  -0.134  0.00  0.00     0.012 A 
HETATM   31  C   UNK N   1       0.569  -3.366  -0.327  0.00  0.00     0.029 A 
HETATM   32  C   UNK N   1      -0.671  -2.721  -0.332  0.00  0.00     0.089 A 
HETATM   33  N   UNK N   1      -0.745  -1.366  -0.201  0.00  0.00    -0.364 N 
ATOM     34  HN  UNK N   1      -1.660  -0.916  -0.180  1.00  0.00     0.165 HD
ENDBRANCH   3  24
TORSDOF 6
