REMARK  4 active torsions:
REMARK  status: ('A' for Active; 'I' for Inactive)
REMARK    1  A    between atoms: C_10  and  C_11 
REMARK    2  A    between atoms: C_11  and  N_12 
REMARK       I    between atoms: N_12  and  C_14 
REMARK    3  A    between atoms: C_14  and  C_16 
REMARK    4  A    between atoms: C_17  and  C_18 
ROOT
HETATM    1  N   UNK N   1      -3.429  -1.571   0.685  0.00  0.00    -0.347 N 
HETATM    2  C   UNK N   1      -3.568  -0.931   1.975  0.00  0.00     0.153 C 
HETATM    3  C   UNK N   1      -2.742  -2.744   0.581  0.00  0.00     0.243 C 
HETATM    4  O   UNK N   1      -2.282  -3.279   1.579  0.00  0.00    -0.268 OA
ENDROOT
BRANCH   3   5
HETATM    5  C   UNK N   1      -2.497  -3.373  -0.735  0.00  0.00     0.075 C 
HETATM    6  C   UNK N   1      -1.424  -3.068  -1.479  0.00  0.00     0.018 C 
BRANCH   6   7
HETATM    7  C   UNK N   1      -0.445  -2.038  -1.089  0.00  0.00    -0.020 A 
HETATM    8  C   UNK N   1       0.783  -2.417  -0.549  0.00  0.00     0.023 A 
HETATM    9  C   UNK N   1       1.710  -1.440  -0.192  0.00  0.00    -0.013 A 
HETATM   10  C   UNK N   1       1.400  -0.085  -0.393  0.00  0.00     0.114 A 
HETATM   11  C   UNK N   1       3.018  -1.823   0.431  0.00  0.00     0.051 C 
HETATM   12  N   UNK N   1       0.191   0.265  -0.911  0.00  0.00    -0.351 N 
HETATM   13  N   UNK N   1       2.355   0.915  -0.070  0.00  0.00    -0.313 N 
HETATM   14  C   UNK N   1      -0.730  -0.676  -1.257  0.00  0.00     0.101 A 
ATOM     15  HN  UNK N   1      -0.030   1.253  -1.042  1.00  0.00     0.166 HD
HETATM   16  C   UNK N   1       3.647   0.586   0.189  0.00  0.00     0.223 C 
HETATM   17  H   UNK N   1       2.076   1.858  -0.033  0.00  0.00     0.170 HD
HETATM   18  O   UNK N   1       4.444   1.455   0.499  0.00  0.00    -0.273 OA
HETATM   19  C   UNK N   1       4.117  -0.838   0.037  0.00  0.00     0.108 C 
ENDBRANCH   6   7
ENDBRANCH   3   5
BRANCH   1  20
HETATM   20  C   UNK N   1      -3.954  -0.906  -0.490  0.00  0.00     0.191 C 
BRANCH  20  21
HETATM   21  C   UNK N   1      -5.392  -0.536  -0.313  0.00  0.00     0.078 A 
HETATM   22  O   UNK N   1      -5.779   0.692  -0.024  0.00  0.00    -0.312 OA
HETATM   23  C   UNK N   1      -7.085   0.699   0.086  0.00  0.00     0.086 A 
HETATM   24  C   UNK N   1      -7.904   1.781   0.389  0.00  0.00     0.038 A 
HETATM   25  C   UNK N   1      -7.587  -0.556  -0.140  0.00  0.00     0.006 A 
HETATM   26  C   UNK N   1      -9.289   1.551   0.456  0.00  0.00     0.003 A 
HETATM   27  C   UNK N   1      -9.813   0.258   0.220  0.00  0.00     0.001 A 
HETATM   28  C   UNK N   1      -8.954  -0.817  -0.083  0.00  0.00     0.015 A 
HETATM   29  C   UNK N   1      -6.506  -1.368  -0.398  0.00  0.00    -0.018 A 
HETATM   30  C   UNK N   1      -6.531  -2.827  -0.706  0.00  0.00     0.052 C 
ENDBRANCH  20  21
ENDBRANCH   1  20
TORSDOF 4
