REMARK  5 active torsions:
REMARK  status: ('A' for Active; 'I' for Inactive)
REMARK    1  A    between atoms: C_6  and  C_7 
REMARK    2  A    between atoms: C_7  and  N_8 
REMARK    3  A    between atoms: C_11  and  N_14 
REMARK    4  A    between atoms: N_14  and  C_15 
REMARK    5  A    between atoms: C_18  and  C_23 
ROOT
HETATM    1  N   UNK N   1       3.401  -2.542   0.843  0.00  0.00     0.092 N 
HETATM    2  C   UNK N   1       2.505  -3.516   1.514  0.00  0.00     0.275 C 
HETATM    3  C   UNK N   1       1.056  -3.397   1.012  0.00  0.00     0.055 C 
HETATM    4  C   UNK N   1       0.559  -1.952   1.076  0.00  0.00     0.086 C 
HETATM    5  C   UNK N   1       1.614  -1.051   1.757  0.00  0.00     0.055 C 
HETATM    6  C   UNK N   1       2.934  -1.153   0.974  0.00  0.00     0.275 C 
ENDROOT
BRANCH   4   7
HETATM    7  N   UNK N   1       0.309  -1.449  -0.262  0.00  0.00    -0.371 N 
HETATM    8  H   UNK N   1       0.293  -2.058  -1.036  0.00  0.00     0.161 HD
BRANCH   7   9
HETATM    9  C   UNK N   1       0.090  -0.065  -0.424  0.00  0.00     0.116 A 
HETATM   10  C   UNK N   1      -0.589   0.647   0.570  0.00  0.00     0.052 A 
HETATM   11  C   UNK N   1      -0.482   2.024   0.615  0.00  0.00     0.039 A 
HETATM   12  C   UNK N   1       0.327   2.669  -0.315  0.00  0.00     0.132 A 
HETATM   13  N   UNK N   1       0.932   1.942  -1.298  0.00  0.00    -0.295 N 
HETATM   14  N   UNK N   1       0.820   0.617  -1.348  0.00  0.00    -0.285 N 
ATOM     15  HN  UNK N   1       1.481   2.424  -2.010  1.00  0.00     0.187 HD
ATOM     16  HN  UNK N   1       1.289   0.103  -2.093  1.00  0.00     0.188 HD
BRANCH  12  17
HETATM   17  C   UNK N   1       0.589   4.130  -0.172  0.00  0.00     0.433 C 
HETATM   18  F   UNK N   1       1.468   4.565  -1.147  0.00  0.00    -0.165 F 
HETATM   19  F   UNK N   1      -0.596   4.833  -0.272  0.00  0.00    -0.165 F 
HETATM   20  F   UNK N   1       1.155   4.362   1.070  0.00  0.00    -0.165 F 
ENDBRANCH  12  17
ENDBRANCH   7   9
ENDBRANCH   4   7
BRANCH   1  21
HETATM   21  C   UNK N   1       3.619  -2.882  -0.575  0.00  0.00     0.311 C 
BRANCH  21  22
HETATM   22  C   UNK N   1       4.021  -4.316  -0.638  0.00  0.00    -0.027 A 
HETATM   23  C   UNK N   1       3.024  -5.268  -0.875  0.00  0.00     0.054 A 
HETATM   24  C   UNK N   1       3.246  -6.604  -0.551  0.00  0.00     0.155 A 
HETATM   25  C   UNK N   1       4.464  -6.990   0.020  0.00  0.00     0.154 A 
HETATM   26  F   UNK N   1       2.255  -7.510  -0.732  0.00  0.00    -0.203 F 
HETATM   27  C   UNK N   1       5.473  -6.045   0.226  0.00  0.00     0.046 A 
HETATM   28  F   UNK N   1       4.661  -8.275   0.396  0.00  0.00    -0.203 F 
HETATM   29  C   UNK N   1       5.244  -4.704  -0.082  0.00  0.00     0.012 A 
ENDBRANCH  21  22
ENDBRANCH   1  21
TORSDOF 5
