REMARK  6 active torsions:
REMARK  status: ('A' for Active; 'I' for Inactive)
REMARK    1  A    between atoms: C_3  and  C_4 
REMARK    2  A    between atoms: C_12  and  N_6 
REMARK    3  A    between atoms: C_13  and  O_20 
REMARK    4  A    between atoms: C_14  and  O_19 
REMARK    5  A    between atoms: C_15  and  C_17 
REMARK    6  A    between atoms: C_17  and  O_18 
ROOT
HETATM    1  C   UNK N   1       3.228   7.160  -0.210  0.00  0.00     0.112 C 
HETATM    2  C   UNK N   1       1.883   6.586  -0.161  0.00  0.00    -0.105 C 
HETATM    3  C   UNK N   1       0.795   6.069  -0.142  0.00  0.00    -0.060 C 
ENDROOT
BRANCH   3   4
HETATM    4  C   UNK N   1      -0.449   5.347  -0.168  0.00  0.00     0.101 A 
HETATM    5  C   UNK N   1      -0.404   3.990  -0.436  0.00  0.00     0.124 A 
HETATM    6  N   UNK N   1      -1.526   3.222  -0.483  0.00  0.00    -0.278 N 
HETATM    7  C   UNK N   1      -2.758   3.837  -0.301  0.00  0.00     0.331 A 
HETATM    8  O   UNK N   1      -3.794   3.200  -0.393  0.00  0.00    -0.246 OA
HETATM    9  N   UNK N   1      -2.825   5.183  -0.034  0.00  0.00    -0.274 N 
HETATM   10  C   UNK N   1      -1.691   5.948   0.037  0.00  0.00     0.269 A 
HETATM   11  H   UNK N   1      -3.703   5.605   0.109  0.00  0.00     0.173 HD
HETATM   12  O   UNK N   1      -1.777   7.143   0.264  0.00  0.00    -0.266 OA
BRANCH   6  13
HETATM   13  C   UNK N   1      -1.399   1.791  -0.874  0.00  0.00     0.264 C 
HETATM   14  C   UNK N   1      -0.065   1.060  -0.571  0.00  0.00     0.198 C 
HETATM   15  C   UNK N   1      -0.478   0.070   0.454  0.00  0.00     0.182 C 
HETATM   16  C   UNK N   1      -1.834  -0.254  -0.089  0.00  0.00     0.179 C 
HETATM   17  O   UNK N   1      -2.448   0.981  -0.369  0.00  0.00    -0.353 OA
BRANCH  14  18
HETATM   18  O   UNK N   1       1.004   1.829  -0.109  0.00  0.00    -0.388 OA
HETATM   19  H   UNK N   1       1.838   1.453   0.211  0.00  0.00     0.210 HD
ENDBRANCH  14  18
BRANCH  15  20
HETATM   20  O   UNK N   1       0.362  -1.044   0.430  0.00  0.00    -0.390 OA
HETATM   21  H   UNK N   1      -0.017  -1.937   0.413  0.00  0.00     0.210 HD
ENDBRANCH  15  20
BRANCH  16  22
HETATM   22  C   UNK N   1      -2.644  -1.083   0.888  0.00  0.00     0.198 C 
BRANCH  22  23
HETATM   23  O   UNK N   1      -3.731  -1.649   0.224  0.00  0.00    -0.398 OA
HETATM   24  H   UNK N   1      -4.451  -1.191  -0.238  0.00  0.00     0.209 HD
ENDBRANCH  22  23
ENDBRANCH  16  22
ENDBRANCH   6  13
ENDBRANCH   3   4
TORSDOF 6
