REMARK  7 active torsions:
REMARK  status: ('A' for Active; 'I' for Inactive)
REMARK    1  A    between atoms: C_4  and  C_7 
REMARK    2  A    between atoms: C_7  and  C_8 
REMARK    3  A    between atoms: C_7  and  C_30 
REMARK    4  A    between atoms: C_8  and  C_9 
REMARK       I    between atoms: C_9  and  N_11 
REMARK    5  A    between atoms: N_14  and  C_17 
REMARK    6  A    between atoms: C_17  and  C_18 
REMARK    7  A    between atoms: C_17  and  C_24 
ROOT
HETATM    1  C   UNK N   1      -0.524   0.794  -1.067  0.00  0.00     0.220 C 
HETATM    2  O   UNK N   1      -1.301   1.484  -1.703  0.00  0.00    -0.273 OA
HETATM    3  N   UNK N   1       0.503   1.356  -0.382  0.00  0.00    -0.349 N 
HETATM    4  C   UNK N   1       0.771   2.758  -0.516  0.00  0.00     0.156 C 
HETATM    5  C   UNK N   1       2.001   2.847  -1.408  0.00  0.00     0.293 C 
HETATM    6  N   UNK N   1       3.132   2.051  -0.876  0.00  0.00     0.105 N 
HETATM    7  C   UNK N   1       2.755   0.648  -0.619  0.00  0.00     0.293 C 
HETATM    8  C   UNK N   1       1.507   0.549   0.252  0.00  0.00     0.156 C 
ENDROOT
BRANCH   1   9
HETATM    9  C   UNK N   1      -0.680  -0.692  -1.098  0.00  0.00     0.117 C 
BRANCH   9  10
HETATM   10  C   UNK N   1      -1.209  -1.188   0.235  0.00  0.00     0.060 C 
BRANCH  10  11
HETATM   11  C   UNK N   1      -0.974  -2.671   0.284  0.00  0.00    -0.049 A 
HETATM   12  C   UNK N   1      -1.998  -3.601   0.058  0.00  0.00     0.008 A 
HETATM   13  C   UNK N   1      -1.700  -4.968  -0.009  0.00  0.00     0.001 A 
HETATM   14  C   UNK N   1      -0.381  -5.409   0.148  0.00  0.00     0.000 A 
HETATM   15  C   UNK N   1       0.641  -4.487   0.377  0.00  0.00     0.001 A 
HETATM   16  C   UNK N   1       0.347  -3.124   0.434  0.00  0.00     0.008 A 
ENDBRANCH  10  11
BRANCH  10  17
HETATM   17  C   UNK N   1      -2.598  -0.632   0.400  0.00  0.00    -0.049 A 
HETATM   18  C   UNK N   1      -3.623  -0.957  -0.500  0.00  0.00     0.008 A 
HETATM   19  C   UNK N   1      -4.838  -0.266  -0.458  0.00  0.00     0.001 A 
HETATM   20  C   UNK N   1      -5.021   0.771   0.461  0.00  0.00     0.000 A 
HETATM   21  C   UNK N   1      -4.000   1.103   1.356  0.00  0.00     0.001 A 
HETATM   22  C   UNK N   1      -2.790   0.405   1.322  0.00  0.00     0.008 A 
ENDBRANCH  10  17
ENDBRANCH   9  10
ENDBRANCH   1   9
BRANCH   6  23
HETATM   23  C   UNK N   1       3.773   2.626   0.321  0.00  0.00     0.289 C 
BRANCH  23  24
HETATM   24  C   UNK N   1       5.155   2.034   0.460  0.00  0.00    -0.021 A 
HETATM   25  C   UNK N   1       6.252   2.576  -0.227  0.00  0.00     0.010 A 
HETATM   26  C   UNK N   1       7.486   1.919  -0.214  0.00  0.00     0.001 A 
HETATM   27  C   UNK N   1       7.623   0.697   0.451  0.00  0.00     0.000 A 
HETATM   28  C   UNK N   1       6.529   0.139   1.116  0.00  0.00     0.001 A 
HETATM   29  C   UNK N   1       5.299   0.802   1.116  0.00  0.00     0.010 A 
ENDBRANCH  23  24
BRANCH  23  30
HETATM   30  C   UNK N   1       3.695   4.136   0.338  0.00  0.00    -0.021 A 
HETATM   31  C   UNK N   1       2.898   4.763   1.303  0.00  0.00     0.010 A 
HETATM   32  C   UNK N   1       2.663   6.139   1.234  0.00  0.00     0.001 A 
HETATM   33  C   UNK N   1       3.212   6.891   0.190  0.00  0.00     0.000 A 
HETATM   34  C   UNK N   1       4.009   6.270  -0.775  0.00  0.00     0.001 A 
HETATM   35  C   UNK N   1       4.244   4.895  -0.708  0.00  0.00     0.010 A 
ENDBRANCH  23  30
ENDBRANCH   6  23
TORSDOF 7
