REMARK  2 active torsions:
REMARK  status: ('A' for Active; 'I' for Inactive)
REMARK    1  A    between atoms: C_8  and  C_11 
REMARK       I    between atoms: C_11  and  N_13 
REMARK    2  A    between atoms: C_14  and  N_13 
ROOT
HETATM    1  C   UNK N   1       2.118   1.122   0.011  0.00  0.00     0.257 C 
HETATM    2  O   UNK N   1       3.184   0.526   0.086  0.00  0.00    -0.267 OA
HETATM    3  N   UNK N   1       2.071   2.476   0.142  0.00  0.00    -0.350 N 
HETATM    4  H   UNK N   1       1.212   2.914  -0.054  0.00  0.00     0.163 HD
ENDROOT
BRANCH   1   5
HETATM    5  C   UNK N   1       0.846   0.358  -0.104  0.00  0.00     0.098 A 
HETATM    6  C   UNK N   1      -0.382   1.068  -0.136  0.00  0.00     0.109 A 
HETATM    7  N   UNK N   1      -1.580   0.410  -0.144  0.00  0.00    -0.364 N 
HETATM    8  C   UNK N   1      -1.610  -0.945  -0.109  0.00  0.00     0.053 A 
HETATM    9  H   UNK N   1      -2.421   0.920  -0.176  0.00  0.00     0.165 HD
HETATM   10  C   UNK N   1      -0.437  -1.677  -0.088  0.00  0.00     0.082 A 
HETATM   11  C   UNK N   1      -2.792  -1.730  -0.074  0.00  0.00     0.038 A 
HETATM   12  S   UNK N   1      -0.860  -3.271  -0.030  0.00  0.00    -0.096 SA
HETATM   13  C   UNK N   1       0.807  -1.059  -0.092  0.00  0.00     0.208 A 
HETATM   14  C   UNK N   1      -2.526  -3.113  -0.024  0.00  0.00     0.053 A 
HETATM   15  O   UNK N   1       1.827  -1.729  -0.054  0.00  0.00    -0.286 OA
ENDBRANCH   1   5
BRANCH   3  16
HETATM   16  C   UNK N   1       3.172   3.338   0.545  0.00  0.00     0.117 C 
HETATM   17  C   UNK N   1       3.010   4.770  -0.003  0.00  0.00     0.297 C 
HETATM   18  N   UNK N   1       4.323   5.337  -0.370  0.00  0.00     0.090 N 
HETATM   19  C   UNK N   1       4.864   4.566  -1.505  0.00  0.00     0.273 C 
HETATM   20  C   UNK N   1       5.253   5.225   0.772  0.00  0.00     0.273 C 
HETATM   21  C   UNK N   1       4.976   3.061  -1.164  0.00  0.00     0.037 C 
HETATM   22  C   UNK N   1       4.607   2.837   0.308  0.00  0.00     0.013 C 
HETATM   23  C   UNK N   1       5.509   3.746   1.150  0.00  0.00     0.037 C 
ENDBRANCH   3  16
TORSDOF 2
