REMARK  7 active torsions:
REMARK  status: ('A' for Active; 'I' for Inactive)
REMARK    1  A    between atoms: C_2  and  C_3 
REMARK    2  A    between atoms: C_3  and  N_4 
REMARK       I    between atoms: N_4  and  C_5 
REMARK    3  A    between atoms: C_5  and  C_7 
REMARK    4  A    between atoms: C_8  and  N_29 
REMARK    5  A    between atoms: C_13  and  C_19 
REMARK    6  A    between atoms: C_21  and  O_27 
REMARK    7  A    between atoms: C_24  and  O_25 
ROOT
HETATM    1  C   UNK N   1       3.552  -2.818  -0.055  0.00  0.00     0.143 A 
HETATM    2  C   UNK N   1       4.835  -2.231   0.013  0.00  0.00     0.072 A 
HETATM    3  C   UNK N   1       5.967  -3.065   0.037  0.00  0.00     0.022 A 
HETATM    4  C   UNK N   1       7.248  -2.514   0.103  0.00  0.00     0.016 A 
HETATM    5  C   UNK N   1       8.362  -3.340   0.129  0.00  0.00     0.002 A 
HETATM    6  C   UNK N   1       8.205  -4.723   0.101  0.00  0.00     0.015 A 
HETATM    7  C   UNK N   1       6.936  -5.344   0.042  0.00  0.00     0.006 A 
HETATM    8  C   UNK N   1       5.799  -4.471  -0.001  0.00  0.00     0.071 A 
HETATM    9  N   UNK N   1       4.543  -4.952  -0.085  0.00  0.00    -0.298 N 
ATOM     10  HN  UNK N   1       4.411  -5.962  -0.133  1.00  0.00     0.187 HD
HETATM   11  N   UNK N   1       3.469  -4.169  -0.109  0.00  0.00    -0.293 N 
ATOM     12  HN  UNK N   1       2.548  -4.602  -0.170  1.00  0.00     0.187 HD
ENDROOT
BRANCH   7  13
HETATM   13  C   UNK N   1       6.941  -6.881   0.033  0.00  0.00     0.012 A 
HETATM   14  C   UNK N   1       8.219  -7.483  -0.033  0.00  0.00     0.052 A 
HETATM   15  C   UNK N   1       8.406  -8.873  -0.046  0.00  0.00     0.069 A 
HETATM   16  C   UNK N   1       7.301  -9.706   0.003  0.00  0.00     0.039 A 
HETATM   17  C   UNK N   1       6.027  -9.166   0.077  0.00  0.00     0.040 A 
HETATM   18  C   UNK N   1       5.813  -7.774   0.098  0.00  0.00     0.079 A 
BRANCH  15  19
HETATM   19  O   UNK N   1       9.640  -9.426  -0.104  0.00  0.00    -0.356 OA
HETATM   20  C   UNK N   1      10.798  -8.684  -0.141  0.00  0.00     0.210 C 
ENDBRANCH  15  19
BRANCH  18  21
HETATM   21  O   UNK N   1       4.544  -7.327   0.199  0.00  0.00    -0.355 OA
HETATM   22  C   UNK N   1       3.432  -8.140   0.248  0.00  0.00     0.210 C 
ENDBRANCH  18  21
ENDBRANCH   7  13
BRANCH   2  23
HETATM   23  N   UNK N   1       4.993  -0.825   0.060  0.00  0.00    -0.396 N 
HETATM   24  H   UNK N   1       5.895  -0.432   0.092  0.00  0.00     0.156 HD
HETATM   25  H   UNK N   1       4.201  -0.240   0.060  0.00  0.00     0.156 HD
ENDBRANCH   2  23
BRANCH   1  26
HETATM   26  C   UNK N   1       2.286  -2.004  -0.066  0.00  0.00     0.271 C 
HETATM   27  N   UNK N   1       1.049  -2.565  -0.179  0.00  0.00    -0.356 N 
HETATM   28  H   UNK N   1       0.274  -1.957  -0.168  0.00  0.00     0.162 HD
HETATM   29  O   UNK N   1       2.356  -0.789   0.028  0.00  0.00    -0.266 OA
BRANCH  27  30
HETATM   30  C   UNK N   1       0.782  -3.978  -0.312  0.00  0.00     0.122 C 
BRANCH  30  31
HETATM   31  C   UNK N   1      -0.471  -4.355   0.456  0.00  0.00     0.015 C 
HETATM   32  C   UNK N   1      -1.694  -3.782  -0.234  0.00  0.00     0.006 C 
ENDBRANCH  30  31
ENDBRANCH  27  30
ENDBRANCH   1  26
TORSDOF 7
