REMARK  1 active torsions:
REMARK  status: ('A' for Active; 'I' for Inactive)
REMARK    1  A    between atoms: N_14  and  C_10 
ROOT
HETATM    1  C   UNK N   1       5.057   0.687  -0.029  0.00  0.00     0.001 A 
HETATM    2  C   UNK N   1       5.187   2.087  -0.015  0.00  0.00     0.001 A 
HETATM    3  C   UNK N   1       3.784   0.095  -0.019  0.00  0.00     0.018 A 
HETATM    4  C   UNK N   1       4.046   2.900   0.009  0.00  0.00     0.013 A 
HETATM    5  C   UNK N   1       2.659   0.925   0.005  0.00  0.00     0.045 A 
HETATM    6  C   UNK N   1       2.791   2.295   0.018  0.00  0.00    -0.009 A 
HETATM    7  C   UNK N   1       1.347   0.524   0.013  0.00  0.00     0.278 A 
HETATM    8  N   UNK N   1       0.440   1.554   0.030  0.00  0.00    -0.210 N 
HETATM    9  O   UNK N   1       1.018  -0.651   0.001  0.00  0.00    -0.265 OA
HETATM   10 Se   UNK N   1       1.219   3.189   0.043  0.00  0.00     0.000 Se
ENDROOT
BRANCH   8  11
HETATM   11  C   UNK N   1      -0.999   1.418   0.036  0.00  0.00     0.060 A 
HETATM   12  C   UNK N   1      -1.622   0.159   0.052  0.00  0.00     0.031 A 
HETATM   13  C   UNK N   1      -3.017   0.058   0.059  0.00  0.00     0.002 A 
HETATM   14  C   UNK N   1      -3.802   1.214   0.048  0.00  0.00     0.000 A 
HETATM   15  C   UNK N   1      -3.195   2.470   0.029  0.00  0.00     0.002 A 
HETATM   16  C   UNK N   1      -1.804   2.570   0.024  0.00  0.00     0.031 A 
ENDBRANCH   8  11
TORSDOF 1
