REMARK  1 active torsions:
REMARK  status: ('A' for Active; 'I' for Inactive)
REMARK    1  A    between atoms: C_2  and  N_10 
ROOT
HETATM    1  C   UNK N   1       1.510  -3.063   0.000  0.00  0.00     0.136 A 
HETATM    2  C   UNK N   1       0.296  -2.358  -0.002  0.00  0.00     0.120 A 
HETATM    3  N   UNK N   1       0.333  -0.994  -0.001  0.00  0.00    -0.331 N 
ATOM      4  HN  UNK N   1      -0.544  -0.473  -0.001  1.00  0.00     0.168 HD
HETATM    5  C   UNK N   1       1.507  -0.316  -0.001  0.00  0.00     0.120 A 
HETATM    6  C   UNK N   1       2.710  -1.021  -0.001  0.00  0.00     0.130 A 
HETATM    7  N   UNK N   1       2.687  -2.381   0.000  0.00  0.00    -0.369 N 
ATOM      8  HN  UNK N   1       3.567  -2.897   0.001  1.00  0.00     0.164 HD
HETATM    9 Cl   UNK N   1       1.499   1.435  -0.000  0.00  0.00    -0.063 Cl
ENDROOT
BRANCH   2  10
HETATM   10  N   UNK N   1      -0.962  -3.030  -0.000  0.00  0.00    -0.363 N 
HETATM   11  C   UNK N   1      -1.008  -4.488  -0.078  0.00  0.00     0.143 C 
HETATM   12  C   UNK N   1      -2.383  -5.065   0.265  0.00  0.00     0.133 C 
HETATM   13  N   UNK N   1      -3.438  -4.290  -0.370  0.00  0.00    -0.418 N 
HETATM   14  C   UNK N   1      -3.436  -2.991   0.280  0.00  0.00     0.133 C 
HETATM   15  H   UNK N   1      -4.055  -4.597  -1.121  0.00  0.00     0.153 HD
HETATM   16  C   UNK N   1      -2.173  -2.225  -0.092  0.00  0.00     0.143 C 
ENDBRANCH   2  10
TORSDOF 1
