REMARK  7 active torsions:
REMARK  status: ('A' for Active; 'I' for Inactive)
REMARK    1  A    between atoms: C_10  and  C_8 
REMARK    2  A    between atoms: C_17  and  C_8 
REMARK    3  A    between atoms: O_23  and  C_10 
REMARK    4  A    between atoms: C_15  and  C_13 
REMARK    5  A    between atoms: N_21  and  C_13 
REMARK    6  A    between atoms: O_23  and  C_16 
REMARK    7  A    between atoms: N_20  and  C_18 
ROOT
HETATM    1  C   UNK N   1      -2.692   7.265   0.926  0.00  0.00     0.054 A 
HETATM    2  C   UNK N   1      -3.954   7.820   1.129  0.00  0.00     0.097 A 
HETATM    3  C   UNK N   1      -3.513   6.192  -1.074  0.00  0.00     0.111 A 
HETATM    4  C   UNK N   1      -2.461   6.464  -0.201  0.00  0.00     0.075 A 
HETATM    5  C   UNK N   1      -4.768   6.752  -0.842  0.00  0.00     0.250 A 
HETATM    6  N   UNK N   1      -4.964   7.585   0.242  0.00  0.00    -0.320 N 
HETATM    7  O   UNK N   1      -5.677   6.526  -1.623  0.00  0.00    -0.268 OA
ENDROOT
BRANCH   6   8
HETATM    8  C   UNK N   1      -6.238   8.284   0.402  0.00  0.00     0.170 C 
BRANCH   8   9
HETATM    9  C   UNK N   1      -6.036   9.780   0.422  0.00  0.00    -0.032 A 
HETATM   10  C   UNK N   1      -6.617  10.506   1.466  0.00  0.00     0.009 A 
HETATM   11  C   UNK N   1      -6.446  11.889   1.550  0.00  0.00     0.003 A 
HETATM   12  C   UNK N   1      -5.677  12.558   0.598  0.00  0.00     0.029 A 
HETATM   13  C   UNK N   1      -5.085  11.853  -0.451  0.00  0.00     0.032 A 
HETATM   14  C   UNK N   1      -5.266  10.463  -0.556  0.00  0.00    -0.028 A 
HETATM   15  C   UNK N   1      -4.624   9.732  -1.694  0.00  0.00     0.051 C 
BRANCH  13  16
HETATM   16  N   UNK N   1      -4.299  12.549  -1.394  0.00  0.00    -0.399 N 
HETATM   17  H   UNK N   1      -3.604  12.316  -2.052  0.00  0.00     0.156 HD
HETATM   18  H   UNK N   1      -4.495  13.513  -1.394  0.00  0.00     0.156 HD
ENDBRANCH  13  16
ENDBRANCH   8   9
ENDBRANCH   6   8
BRANCH   4  19
HETATM   19  O   UNK N   1      -1.233   5.970  -0.478  0.00  0.00    -0.351 OA
BRANCH  19  20
HETATM   20  C   UNK N   1      -0.171   6.061   0.397  0.00  0.00     0.180 C 
BRANCH  20  21
HETATM   21  C   UNK N   1       0.601   4.745   0.461  0.00  0.00     0.073 C 
BRANCH  21  22
HETATM   22  C   UNK N   1      -0.271   3.554   0.222  0.00  0.00    -0.016 A 
HETATM   23  C   UNK N   1      -0.130   2.644  -0.820  0.00  0.00     0.015 A 
HETATM   24  C   UNK N   1      -1.141   1.640  -0.813  0.00  0.00     0.008 A 
HETATM   25  C   UNK N   1      -2.071   1.771   0.229  0.00  0.00     0.050 A 
HETATM   26  S   UNK N   1      -1.604   3.109   1.092  0.00  0.00    -0.106 SA
ENDBRANCH  21  22
ENDBRANCH  20  21
ENDBRANCH  19  20
ENDBRANCH   4  19
TORSDOF 7
