REMARK  6 active torsions:
REMARK  status: ('A' for Active; 'I' for Inactive)
REMARK    1  A    between atoms: S_2  and  N_5 
REMARK    2  A    between atoms: N_5  and  C_6 
REMARK    3  A    between atoms: C_17  and  C_19 
REMARK    4  A    between atoms: C_20  and  O_39 
REMARK    5  A    between atoms: N_28  and  C_31 
REMARK    6  A    between atoms: C_31  and  C_32 
ROOT
HETATM    1  C   UNK N   1      -1.481   0.259   0.166  0.00  0.00     0.106 A 
HETATM    2  C   UNK N   1      -0.426  -0.410   0.678  0.00  0.00     0.069 A 
HETATM    3  C   UNK N   1       0.915   0.225   0.836  0.00  0.00     0.071 A 
HETATM    4  C   UNK N   1       1.956  -0.594   0.075  0.00  0.00    -0.002 C 
HETATM    5  C   UNK N   1       3.329  -0.141   0.552  0.00  0.00     0.006 C 
HETATM    6  C   UNK N   1       3.474   1.246  -0.068  0.00  0.00     0.007 C 
HETATM    7  C   UNK N   1       2.157   1.448  -0.813  0.00  0.00     0.010 C 
HETATM    8  C   UNK N   1       1.884   0.045  -1.286  0.00  0.00     0.012 C 
HETATM    9  C   UNK N   1       1.076   1.648   0.256  0.00  0.00     0.102 A 
HETATM   10  N   UNK N   1      -0.129   2.281  -0.280  0.00  0.00    -0.338 N 
HETATM   11  C   UNK N   1      -1.336   1.659  -0.303  0.00  0.00     0.260 A 
HETATM   12  O   UNK N   1      -2.305   2.241  -0.760  0.00  0.00    -0.267 OA
ENDROOT
BRANCH   1  13
HETATM   13  C   UNK N   1      -2.812  -0.385   0.077  0.00  0.00     0.134 C 
HETATM   14  N   UNK N   1      -3.872   0.344  -0.005  0.00  0.00    -0.265 N 
HETATM   15  S   UNK N   1      -5.459  -0.351  -0.046  0.00  0.00     0.266 S 
ATOM     16  HN  UNK N   1      -3.774   1.359  -0.047  1.00  0.00     0.180 HD
HETATM   17  C   UNK N   1      -5.293  -2.039   0.428  0.00  0.00     0.108 A 
HETATM   18  O   UNK N   1      -5.859  -0.175  -1.515  0.00  0.00    -0.200 OA
HETATM   19  O   UNK N   1      -6.350   0.622   0.744  0.00  0.00    -0.200 OA
HETATM   20  C   UNK N   1      -4.010  -2.591   0.399  0.00  0.00     0.057 A 
HETATM   21  C   UNK N   1      -6.398  -2.847   0.679  0.00  0.00     0.057 A 
HETATM   22  C   UNK N   1      -3.823  -3.947   0.623  0.00  0.00     0.033 A 
HETATM   23  N   UNK N   1      -2.873  -1.805   0.153  0.00  0.00    -0.340 N 
HETATM   24  C   UNK N   1      -4.915  -4.758   0.867  0.00  0.00     0.032 A 
HETATM   25  C   UNK N   1      -6.200  -4.211   0.920  0.00  0.00     0.043 A 
HETATM   26  H   UNK N   1      -2.027  -2.289   0.019  0.00  0.00     0.167 HD
BRANCH  25  27
HETATM   27  N   UNK N   1      -7.300  -5.087   0.933  0.00  0.00    -0.285 N 
HETATM   28  H   UNK N   1      -7.741  -5.341   1.776  0.00  0.00     0.178 HD
BRANCH  27  29
HETATM   29  S   UNK N   1      -7.858  -5.710  -0.612  0.00  0.00     0.227 S 
HETATM   30  C   UNK N   1      -6.879  -6.978   0.257  0.00  0.00     0.186 C 
HETATM   31  O   UNK N   1      -6.590  -6.060  -1.410  0.00  0.00    -0.206 OA
HETATM   32  O   UNK N   1      -8.577  -7.041  -0.366  0.00  0.00    -0.206 OA
ENDBRANCH  27  29
ENDBRANCH  25  27
ENDBRANCH   1  13
BRANCH   2  33
HETATM   33  O   UNK N   1      -0.550  -1.683   1.114  0.00  0.00    -0.363 OA
HETATM   34  H   UNK N   1      -1.357  -2.050   1.416  0.00  0.00     0.217 HD
ENDBRANCH   2  33
BRANCH  10  35
HETATM   35  C   UNK N   1      -0.071   3.613  -0.869  0.00  0.00     0.165 C 
BRANCH  35  36
HETATM   36  C   UNK N   1       1.042   4.443  -0.363  0.00  0.00    -0.040 A 
HETATM   37  C   UNK N   1       0.953   5.072   0.882  0.00  0.00     0.012 A 
HETATM   38  C   UNK N   1       2.015   5.858   1.333  0.00  0.00     0.043 A 
HETATM   39  C   UNK N   1       3.159   6.005   0.541  0.00  0.00     0.116 A 
HETATM   40  C   UNK N   1       3.240   5.376  -0.703  0.00  0.00     0.043 A 
HETATM   41  F   UNK N   1       4.193   6.759   0.977  0.00  0.00    -0.206 F 
HETATM   42  C   UNK N   1       2.177   4.601  -1.157  0.00  0.00     0.012 A 
ENDBRANCH  35  36
ENDBRANCH  10  35
TORSDOF 6
