REMARK  6 active torsions:
REMARK  status: ('A' for Active; 'I' for Inactive)
REMARK    1  A    between atoms: C_2  and  S_3 
REMARK    2  A    between atoms: S_3  and  N_6 
REMARK    3  A    between atoms: C_7  and  N_6 
REMARK    4  A    between atoms: C_10  and  C_13 
REMARK       I    between atoms: C_13  and  N_15 
REMARK    5  A    between atoms: N_15  and  C_16 
REMARK    6  A    between atoms: C_20  and  C_23 
ROOT
HETATM    1  C   UNK N   1       1.965  -1.570  -1.225  0.00  0.00     0.093 C 
HETATM    2  C   UNK N   1       3.095  -2.616  -1.317  0.00  0.00     0.026 C 
HETATM    3  C   UNK N   1       2.613  -4.085  -1.388  0.00  0.00     0.016 C 
HETATM    4  C   UNK N   1       1.321  -4.340  -0.594  0.00  0.00     0.078 C 
HETATM    5  C   UNK N   1       0.191  -3.379  -0.993  0.00  0.00     0.016 C 
HETATM    6  C   UNK N   1       0.672  -2.160  -1.785  0.00  0.00     0.026 C 
ENDROOT
BRANCH   4   7
HETATM    7  C   UNK N   1       1.599  -4.358   0.893  0.00  0.00     0.227 C 
HETATM    8  O   UNK N   1       1.389  -3.367   1.564  0.00  0.00    -0.273 OA
HETATM    9  N   UNK N   1       2.178  -5.433   1.482  0.00  0.00    -0.313 N 
HETATM   10  H   UNK N   1       2.582  -5.307   2.370  0.00  0.00     0.170 HD
BRANCH   9  11
HETATM   11  C   UNK N   1       2.240  -6.720   0.904  0.00  0.00     0.107 A 
HETATM   12  N   UNK N   1       3.403  -7.425   0.953  0.00  0.00    -0.351 N 
HETATM   13  C   UNK N   1       3.475  -8.710   0.518  0.00  0.00     0.106 A 
ATOM     14  HN  UNK N   1       4.241  -6.978   1.324  1.00  0.00     0.166 HD
HETATM   15  C   UNK N   1       2.329  -9.364   0.051  0.00  0.00     0.063 A 
HETATM   16  C   UNK N   1       1.120  -8.661   0.004  0.00  0.00     0.021 A 
HETATM   17  C   UNK N   1       1.074  -7.333   0.424  0.00  0.00     0.049 A 
BRANCH  15  18
HETATM   18  C   UNK N   1       2.404 -10.805  -0.357  0.00  0.00     0.418 C 
HETATM   19  F   UNK N   1       3.231 -10.934  -1.458  0.00  0.00    -0.166 F 
HETATM   20  F   UNK N   1       1.150 -11.300  -0.676  0.00  0.00    -0.166 F 
HETATM   21  F   UNK N   1       2.920 -11.551   0.688  0.00  0.00    -0.166 F 
ENDBRANCH  15  18
ENDBRANCH   9  11
ENDBRANCH   4   7
BRANCH   1  22
HETATM   22  N   UNK N   1       1.867  -1.110   0.164  0.00  0.00    -0.314 N 
HETATM   23  H   UNK N   1       2.623  -1.279   0.829  0.00  0.00     0.172 HD
BRANCH  22  24
HETATM   24  S   UNK N   1       0.382  -0.245   0.655  0.00  0.00     0.234 S 
HETATM   25  O   UNK N   1      -0.251  -1.164   1.710  0.00  0.00    -0.205 OA
HETATM   26  O   UNK N   1       0.937   0.833   1.598  0.00  0.00    -0.205 OA
BRANCH  24  27
HETATM   27  C   UNK N   1      -0.927   0.530  -0.369  0.00  0.00     0.072 C 
HETATM   28  C   UNK N   1      -2.000   1.067   0.557  0.00  0.00     0.033 C 
HETATM   29  C   UNK N   1      -1.598  -0.458  -1.298  0.00  0.00     0.033 C 
HETATM   30  C   UNK N   1      -0.352   1.681  -1.165  0.00  0.00     0.033 C 
ENDBRANCH  24  27
ENDBRANCH  22  24
ENDBRANCH   1  22
TORSDOF 6
