REMARK  11 active torsions:
REMARK  status: ('A' for Active; 'I' for Inactive)
REMARK    1  A    between atoms: C_4  and  C_22 
REMARK    2  A    between atoms: C_6  and  C_7 
REMARK    3  A    between atoms: C_7  and  C_8 
REMARK    4  A    between atoms: C_9  and  C_8 
REMARK       I    between atoms: C_15  and  N_21 
REMARK       I    between atoms: C_22  and  N_24 
REMARK    5  A    between atoms: C_25  and  N_24 
REMARK    6  A    between atoms: C_25  and  C_26 
REMARK    7  A    between atoms: C_25  and  C_31 
REMARK    8  A    between atoms: C_26  and  C_27 
REMARK    9  A    between atoms: C_27  and  C_28 
REMARK   10  A    between atoms: C_28  and  O_30 
REMARK   11  A    between atoms: C_31  and  O_33 
ROOT
HETATM    1  C   UNK N   1      -6.202  -3.750   0.755  0.00  0.00     0.049 C 
HETATM    2  C   UNK N   1      -4.863  -4.324   0.447  0.00  0.00    -0.047 A 
HETATM    3  C   UNK N   1      -3.654  -3.759   0.949  0.00  0.00     0.032 A 
HETATM    4  C   UNK N   1      -2.520  -4.424   0.466  0.00  0.00     0.073 A 
HETATM    5  S   UNK N   1      -3.037  -5.645  -0.529  0.00  0.00    -0.089 SA
HETATM    6  C   UNK N   1      -4.663  -5.401  -0.426  0.00  0.00    -0.011 A 
ENDROOT
BRANCH   6   7
HETATM    7  C   UNK N   1      -5.680  -6.124  -1.242  0.00  0.00     0.047 C 
BRANCH   7   8
HETATM    8  C   UNK N   1      -6.688  -6.857  -0.385  0.00  0.00     0.011 C 
BRANCH   8   9
HETATM    9  C   UNK N   1      -6.600  -8.339  -0.674  0.00  0.00     0.008 C 
HETATM   10  C   UNK N   1      -5.351  -8.928  -0.014  0.00  0.00     0.054 C 
HETATM   11  C   UNK N   1      -5.326 -10.427  -0.125  0.00  0.00     0.055 A 
HETATM   12  C   UNK N   1      -4.126 -11.140  -0.035  0.00  0.00     0.269 A 
HETATM   13  C   UNK N   1      -6.516 -11.145  -0.318  0.00  0.00     0.128 A 
HETATM   14  O   UNK N   1      -3.069 -10.559   0.137  0.00  0.00    -0.267 OA
HETATM   15  N   UNK N   1      -4.141 -12.506  -0.144  0.00  0.00    -0.156 N 
HETATM   16  C   UNK N   1      -5.306 -13.177  -0.339  0.00  0.00     0.680 A 
HETATM   17  H   UNK N   1      -3.297 -13.008  -0.080  0.00  0.00     0.187 HD
HETATM   18  N   UNK N   1      -6.481 -12.499  -0.425  0.00  0.00    -0.176 N 
HETATM   19  N   UNK N   1      -5.298 -14.581  -0.449  0.00  0.00    -0.234 N 
ATOM     20  HN  UNK N   1      -7.349 -13.014  -0.572  1.00  0.00     0.186 HD
HETATM   21  H   UNK N   1      -6.145 -15.077  -0.526  0.00  0.00     0.174 HD
HETATM   22  H   UNK N   1      -4.443 -15.068  -0.449  0.00  0.00     0.174 HD
HETATM   23  N   UNK N   1      -7.758 -10.463  -0.402  0.00  0.00    -0.375 N 
HETATM   24  C   UNK N   1      -7.849  -9.040  -0.158  0.00  0.00     0.126 C 
HETATM   25  H   UNK N   1      -8.572 -10.968  -0.630  0.00  0.00     0.161 HD
ENDBRANCH   8   9
ENDBRANCH   7   8
ENDBRANCH   6   7
BRANCH   4  26
HETATM   26  C   UNK N   1      -1.133  -3.953   0.540  0.00  0.00     0.259 C 
HETATM   27  O   UNK N   1      -0.878  -2.895   1.098  0.00  0.00    -0.267 OA
HETATM   28  N   UNK N   1      -0.186  -4.624  -0.166  0.00  0.00    -0.342 N 
HETATM   29  H   UNK N   1      -0.390  -5.555  -0.412  0.00  0.00     0.163 HD
BRANCH  28  30
HETATM   30  C   UNK N   1       1.098  -4.098  -0.591  0.00  0.00     0.183 C 
BRANCH  30  31
HETATM   31  C   UNK N   1       1.997  -5.215  -1.112  0.00  0.00     0.046 C 
BRANCH  31  32
HETATM   32  C   UNK N   1       2.349  -6.230  -0.034  0.00  0.00     0.112 C 
BRANCH  32  33
HETATM   33  C   UNK N   1       3.832  -6.331   0.095  0.00  0.00     0.139 C 
HETATM   34  O   UNK N   1       4.483  -5.367   0.465  0.00  0.00    -0.650 OA
BRANCH  33  35
HETATM   35  O   UNK N   1       4.453  -7.489  -0.193  0.00  0.00    -0.776 OA
HETATM   36  H   UNK N   1       3.971  -8.267  -0.394  0.00  0.00     0.167 HD
ENDBRANCH  33  35
ENDBRANCH  32  33
ENDBRANCH  31  32
ENDBRANCH  30  31
BRANCH  30  37
HETATM   37  C   UNK N   1       1.780  -3.146   0.345  0.00  0.00     0.163 C 
HETATM   38  O   UNK N   1       2.196  -3.519   1.430  0.00  0.00    -0.648 OA
BRANCH  37  39
HETATM   39  O   UNK N   1       1.933  -1.861  -0.028  0.00  0.00    -0.775 OA
HETATM   40  H   UNK N   1       2.761  -1.507  -0.287  0.00  0.00     0.167 HD
ENDBRANCH  37  39
ENDBRANCH  30  37
ENDBRANCH  28  30
ENDBRANCH   4  26
TORSDOF 11
