REMARK  6 active torsions:
REMARK  status: ('A' for Active; 'I' for Inactive)
REMARK    1  A    between atoms: C_7  and  O_1 
REMARK    2  A    between atoms: O_2  and  C_10 
REMARK    3  A    between atoms: O_3  and  C_11 
REMARK    4  A    between atoms: O_4  and  C_12 
REMARK    5  A    between atoms: O_5  and  C_13 
REMARK    6  A    between atoms: C_8  and  C_16 
ROOT
HETATM    1  O   UNK N   1      18.164  -5.228   0.165  0.00  0.00    -0.338 OA
HETATM    2  C   UNK N   1      17.077  -7.279  -0.429  0.00  0.00     0.156 C 
HETATM    3  C   UNK N   1      17.022  -5.982   0.396  0.00  0.00     0.191 C 
HETATM    4  C   UNK N   1      18.340  -8.057  -0.042  0.00  0.00     0.079 C 
HETATM    5  C   UNK N   1      20.848  -7.725  -0.045  0.00  0.00     0.077 A 
HETATM    6  C   UNK N   1      21.805  -5.499   0.012  0.00  0.00     0.071 A 
HETATM    7  C   UNK N   1      19.401  -5.775   0.082  0.00  0.00     0.081 A 
HETATM    8  C   UNK N   1      19.556  -7.173  -0.001  0.00  0.00     0.011 A 
HETATM    9  C   UNK N   1      21.965  -6.887  -0.039  0.00  0.00     0.073 A 
HETATM   10  C   UNK N   1      20.523  -4.945   0.076  0.00  0.00     0.074 A 
ENDROOT
BRANCH   3  11
HETATM   11  C   UNK N   1      15.784  -5.132   0.200  0.00  0.00    -0.024 A 
HETATM   12  C   UNK N   1      15.900  -3.747  -0.009  0.00  0.00     0.049 A 
HETATM   13  C   UNK N   1      14.760  -2.945  -0.117  0.00  0.00     0.099 A 
HETATM   14  C   UNK N   1      13.489  -3.525  -0.031  0.00  0.00     0.098 A 
HETATM   15  C   UNK N   1      13.364  -4.902   0.175  0.00  0.00     0.040 A 
HETATM   16  C   UNK N   1      14.506  -5.698   0.305  0.00  0.00     0.013 A 
BRANCH  13  17
HETATM   17  O   UNK N   1      14.893  -1.619  -0.295  0.00  0.00    -0.358 OA
HETATM   18  H   UNK N   1      15.739  -1.237  -0.419  0.00  0.00     0.217 HD
ENDBRANCH  13  17
BRANCH  14  19
HETATM   19  O   UNK N   1      12.386  -2.764  -0.138  0.00  0.00    -0.358 OA
HETATM   20  H   UNK N   1      12.461  -1.833  -0.213  0.00  0.00     0.217 HD
ENDBRANCH  14  19
ENDBRANCH   3  11
BRANCH   2  21
HETATM   21  O   UNK N   1      15.971  -8.088  -0.165  0.00  0.00    -0.392 OA
HETATM   22  H   UNK N   1      15.100  -7.703   0.018  0.00  0.00     0.210 HD
ENDBRANCH   2  21
BRANCH   5  23
HETATM   23  O   UNK N   1      21.018  -9.058  -0.100  0.00  0.00    -0.360 OA
HETATM   24  H   UNK N   1      20.273  -9.625  -0.139  0.00  0.00     0.217 HD
ENDBRANCH   5  23
BRANCH   6  25
HETATM   25  O   UNK N   1      22.881  -4.697   0.002  0.00  0.00    -0.361 OA
HETATM   26  H   UNK N   1      23.742  -5.069  -0.005  0.00  0.00     0.217 HD
ENDBRANCH   6  25
TORSDOF 6
