REMARK  2 active torsions:
REMARK  status: ('A' for Active; 'I' for Inactive)
REMARK    1  A    between atoms: C_7  and  S_8 
REMARK    2  A    between atoms: S_8  and  C_9 
REMARK       I    between atoms: C_19  and  N_22 
ROOT
HETATM    1  C   UNK N   1      -2.475  -0.849  -1.162  0.00  0.00     0.049 C 
HETATM    2  C   UNK N   1      -1.138  -1.257  -0.643  0.00  0.00    -0.044 A 
HETATM    3  C   UNK N   1      -1.011  -2.551  -0.143  0.00  0.00     0.010 A 
HETATM    4  C   UNK N   1       0.221  -3.032   0.278  0.00  0.00     0.032 A 
HETATM    5  C   UNK N   1       1.352  -2.227   0.203  0.00  0.00     0.066 A 
HETATM    6  C   UNK N   1       1.261  -0.893  -0.273  0.00  0.00     0.077 A 
HETATM    7  C   UNK N   1      -0.016  -0.392  -0.699  0.00  0.00     0.029 A 
HETATM    8  C   UNK N   1       2.469  -0.150  -0.325  0.00  0.00     0.273 A 
HETATM    9  O   UNK N   1       2.491   1.005  -0.707  0.00  0.00    -0.267 OA
HETATM   10  N   UNK N   1       3.648  -0.740   0.053  0.00  0.00    -0.156 N 
HETATM   11  C   UNK N   1       3.691  -2.024   0.484  0.00  0.00     0.679 A 
HETATM   12  N   UNK N   1       2.552  -2.751   0.564  0.00  0.00    -0.191 N 
ATOM     13  HN  UNK N   1       2.596  -3.712   0.902  1.00  0.00     0.184 HD
HETATM   14  N   UNK N   1       4.924  -2.608   0.835  0.00  0.00    -0.234 N 
HETATM   15  H   UNK N   1       4.483  -0.219   0.010  0.00  0.00     0.187 HD
HETATM   16  H   UNK N   1       5.001  -3.558   1.081  0.00  0.00     0.174 HD
HETATM   17  H   UNK N   1       5.734  -2.048   0.835  0.00  0.00     0.174 HD
ENDROOT
BRANCH   7  18
HETATM   18  S   UNK N   1      -0.201   1.259  -1.461  0.00  0.00    -0.089 SA
BRANCH  18  19
HETATM   19  C   UNK N   1      -1.247   2.178  -0.304  0.00  0.00     0.008 A 
HETATM   20  C   UNK N   1      -2.201   1.556   0.509  0.00  0.00     0.036 A 
HETATM   21  C   UNK N   1      -3.062   2.336   1.287  0.00  0.00     0.089 A 
HETATM   22  N   UNK N   1      -2.980   3.693   1.247  0.00  0.00    -0.375 N 
HETATM   23  C   UNK N   1      -2.062   4.322   0.465  0.00  0.00     0.089 A 
ATOM     24  HN  UNK N   1      -3.619   4.250   1.814  1.00  0.00     0.164 HD
HETATM   25  C   UNK N   1      -1.187   3.575  -0.327  0.00  0.00     0.036 A 
ENDBRANCH  18  19
ENDBRANCH   7  18
TORSDOF 2
