REMARK  5 active torsions:
REMARK  status: ('A' for Active; 'I' for Inactive)
REMARK    1  A    between atoms: C_2  and  C_3 
REMARK    2  A    between atoms: C_3  and  N_4 
REMARK    3  A    between atoms: C_6  and  C_17 
REMARK    4  A    between atoms: C_7  and  C_10 
REMARK    5  A    between atoms: C_20  and  S_23 
ROOT
HETATM    1  N   UNK N   1       0.831   0.184   0.168  0.00  0.00    -0.344 N 
HETATM    2  C   UNK N   1       2.012  -0.640   0.087  0.00  0.00     0.166 A 
HETATM    3  C   UNK N   1       1.414  -2.045   0.059  0.00  0.00    -0.013 A 
HETATM    4  C   UNK N   1       0.050  -1.977   0.132  0.00  0.00     0.051 A 
HETATM    5  C   UNK N   1      -0.279  -0.564   0.187  0.00  0.00     0.255 A 
HETATM    6  O   UNK N   1      -1.406  -0.098   0.287  0.00  0.00    -0.267 OA
ENDROOT
BRANCH   3   7
HETATM    7  C   UNK N   1       2.305  -3.242  -0.073  0.00  0.00    -0.027 A 
HETATM    8  C   UNK N   1       3.705  -3.095  -0.000  0.00  0.00     0.013 A 
HETATM    9  C   UNK N   1       4.549  -4.213  -0.110  0.00  0.00     0.024 A 
HETATM   10  C   UNK N   1       3.996  -5.497  -0.280  0.00  0.00     0.058 A 
HETATM   11  C   UNK N   1       2.609  -5.625  -0.429  0.00  0.00     0.024 A 
HETATM   12  C   UNK N   1       1.789  -4.512  -0.319  0.00  0.00     0.013 A 
BRANCH  10  13
HETATM   13  S   UNK N   1       5.035  -6.967  -0.489  0.00  0.00     0.171 S 
HETATM   14  O   UNK N   1       6.268  -7.110   0.416  0.00  0.00    -0.223 OA
HETATM   15  O   UNK N   1       4.223  -8.237  -0.190  0.00  0.00    -0.223 OA
HETATM   16  C   UNK N   1       4.555  -6.786   1.268  0.00  0.00     0.167 C 
ENDBRANCH  10  13
ENDBRANCH   3   7
BRANCH   4  17
HETATM   17  C   UNK N   1      -1.000  -3.051   0.189  0.00  0.00    -0.020 A 
HETATM   18  C   UNK N   1      -0.725  -4.339   0.667  0.00  0.00     0.013 A 
HETATM   19  C   UNK N   1      -1.720  -5.315   0.735  0.00  0.00     0.007 A 
HETATM   20  C   UNK N   1      -3.019  -5.012   0.333  0.00  0.00    -0.062 A 
HETATM   21  C   UNK N   1      -3.323  -3.727  -0.121  0.00  0.00     0.007 A 
HETATM   22  C   UNK N   1      -4.076  -6.054   0.394  0.00  0.00     0.048 C 
HETATM   23  C   UNK N   1      -2.322  -2.751  -0.181  0.00  0.00     0.013 A 
ENDBRANCH   4  17
BRANCH   1  24
HETATM   24  C   UNK N   1       0.873   1.624   0.286  0.00  0.00     0.126 C 
BRANCH  24  25
HETATM   25  C   UNK N   1       0.153   2.299  -0.870  0.00  0.00     0.015 C 
HETATM   26  C   UNK N   1      -1.151   2.896  -0.378  0.00  0.00     0.006 C 
ENDBRANCH  24  25
ENDBRANCH   1  24
TORSDOF 5
