REMARK  9 active torsions:
REMARK  status: ('A' for Active; 'I' for Inactive)
REMARK    1  A    between atoms: C_2  and  C_3 
REMARK    2  A    between atoms: C_2  and  N_26 
REMARK       I    between atoms: C_3  and  N_5 
REMARK    3  A    between atoms: C_6  and  N_5 
REMARK    4  A    between atoms: N_20  and  C_23 
REMARK    5  A    between atoms: C_23  and  C_24 
REMARK    6  A    between atoms: C_24  and  O_25 
REMARK       I    between atoms: N_26  and  C_27 
REMARK    7  A    between atoms: C_27  and  C_29 
REMARK    8  A    between atoms: C_29  and  C_30 
REMARK    9  A    between atoms: C_30  and  C_31 
ROOT
HETATM    1  C   UNK N   1      -0.265  -1.022  -0.288  0.00  0.00     0.211 C 
HETATM    2  C   UNK N   1      -1.288  -1.904   0.257  0.00  0.00    -0.015 A 
HETATM    3  C   UNK N   1      -0.893  -3.205   0.608  0.00  0.00     0.011 A 
HETATM    4  C   UNK N   1      -1.831  -4.155   0.997  0.00  0.00     0.001 A 
HETATM    5  C   UNK N   1      -3.177  -3.815   1.025  0.00  0.00     0.001 A 
HETATM    6  C   UNK N   1      -3.571  -2.520   0.687  0.00  0.00     0.013 A 
HETATM    7  C   UNK N   1      -2.636  -1.528   0.304  0.00  0.00    -0.013 A 
HETATM    8  C   UNK N   1      -3.168  -0.162  -0.059  0.00  0.00     0.019 A 
HETATM    9  C   UNK N   1      -4.570  -0.122  -0.223  0.00  0.00     0.017 A 
HETATM   10  C   UNK N   1      -5.258   1.041  -0.518  0.00  0.00     0.018 A 
HETATM   11  C   UNK N   1      -4.551   2.214  -0.649  0.00  0.00     0.090 A 
HETATM   12  N   UNK N   1      -3.207   2.213  -0.485  0.00  0.00    -0.351 N 
ATOM     13  HN  UNK N   1      -2.717   3.103  -0.579  1.00  0.00     0.166 HD
HETATM   14  C   UNK N   1      -2.458   1.100  -0.203  0.00  0.00     0.121 A 
HETATM   15  N   UNK N   1      -1.040   1.334   0.010  0.00  0.00    -0.299 N 
HETATM   16  C   UNK N   1      -0.054   0.391   0.069  0.00  0.00     0.253 C 
HETATM   17  O   UNK N   1       1.094   0.733   0.323  0.00  0.00    -0.270 OA
ENDROOT
BRANCH   1  18
HETATM   18  N   UNK N   1       0.367  -1.474  -1.505  0.00  0.00    -0.342 N 
HETATM   19  C   UNK N   1       1.535  -2.163  -1.492  0.00  0.00     0.241 C 
HETATM   20  O   UNK N   1       2.059  -2.471  -2.551  0.00  0.00    -0.271 OA
HETATM   21  H   UNK N   1      -0.061  -1.275  -2.369  0.00  0.00     0.163 HD
BRANCH  19  22
HETATM   22  C   UNK N   1       2.237  -2.463  -0.190  0.00  0.00     0.172 C 
HETATM   23  C   UNK N   1       2.777  -3.884  -0.093  0.00  0.00     0.042 C 
BRANCH  22  24
HETATM   24  N   UNK N   1       3.217  -1.438   0.085  0.00  0.00    -0.348 N 
HETATM   25  C   UNK N   1       4.375  -1.276  -0.599  0.00  0.00     0.218 C 
HETATM   26  O   UNK N   1       4.753  -2.110  -1.409  0.00  0.00    -0.274 OA
HETATM   27  H   UNK N   1       3.030  -0.812   0.822  0.00  0.00     0.163 HD
BRANCH  25  28
HETATM   28  C   UNK N   1       5.089   0.026  -0.480  0.00  0.00     0.111 C 
BRANCH  28  29
HETATM   29  C   UNK N   1       6.260   0.002   0.482  0.00  0.00     0.126 C 
BRANCH  29  30
HETATM   30  C   UNK N   1       7.582   0.061  -0.268  0.00  0.00     0.388 C 
HETATM   31  F   UNK N   1       8.584   0.392   0.622  0.00  0.00    -0.171 F 
HETATM   32  F   UNK N   1       7.855  -1.173  -0.825  0.00  0.00    -0.171 F 
HETATM   33  F   UNK N   1       7.536   1.020  -1.266  0.00  0.00    -0.171 F 
ENDBRANCH  29  30
ENDBRANCH  28  29
ENDBRANCH  25  28
ENDBRANCH  22  24
ENDBRANCH  19  22
ENDBRANCH   1  18
BRANCH  15  34
HETATM   34  C   UNK N   1      -0.592   2.722   0.058  0.00  0.00     0.160 C 
BRANCH  34  35
HETATM   35  C   UNK N   1      -1.071   3.459   1.292  0.00  0.00     0.184 C 
BRANCH  35  36
HETATM   36  O   UNK N   1      -0.604   4.773   1.236  0.00  0.00    -0.399 OA
HETATM   37  H   UNK N   1       0.349   4.948   1.197  0.00  0.00     0.209 HD
ENDBRANCH  35  36
ENDBRANCH  34  35
ENDBRANCH  15  34
TORSDOF 9
