REMARK  6 active torsions:
REMARK  status: ('A' for Active; 'I' for Inactive)
REMARK    1  A    between atoms: O_2  and  C_3 
REMARK    2  A    between atoms: C_8  and  O_9 
REMARK    3  A    between atoms: O_9  and  C_10 
REMARK       I    between atoms: N_13  and  C_16 
REMARK    4  A    between atoms: C_16  and  C_18 
REMARK    5  A    between atoms: C_20  and  N_26 
REMARK    6  A    between atoms: N_26  and  C_27 
ROOT
HETATM    1  C   UNK N   1      -1.180  -2.679  -0.620  0.00  0.00     0.103 A 
HETATM    2  C   UNK N   1       0.075  -3.238  -0.325  0.00  0.00     0.070 A 
HETATM    3  C   UNK N   1       1.152  -2.416   0.005  0.00  0.00     0.050 A 
HETATM    4  C   UNK N   1       0.991  -1.018   0.033  0.00  0.00     0.038 A 
HETATM    5  C   UNK N   1      -0.268  -0.459  -0.231  0.00  0.00     0.057 A 
HETATM    6  C   UNK N   1      -1.353  -1.291  -0.554  0.00  0.00     0.103 A 
HETATM    7  C   UNK N   1       2.114  -0.221   0.294  0.00  0.00     0.119 A 
HETATM    8  N   UNK N   1       3.310  -0.823   0.549  0.00  0.00    -0.338 N 
ATOM      9  HN  UNK N   1       4.129  -0.246   0.739  1.00  0.00     0.168 HD
HETATM   10  C   UNK N   1       3.434  -2.176   0.556  0.00  0.00     0.182 A 
HETATM   11  N   UNK N   1       2.365  -2.964   0.273  0.00  0.00    -0.351 N 
ATOM     12  HN  UNK N   1       2.474  -3.978   0.262  1.00  0.00     0.166 HD
ENDROOT
BRANCH   6  13
HETATM   13  O   UNK N   1      -2.581  -0.777  -0.790  0.00  0.00    -0.343 OA
BRANCH  13  14
HETATM   14  C   UNK N   1      -3.148   0.198   0.004  0.00  0.00     0.132 C 
HETATM   15  C   UNK N   1      -3.429  -0.396   1.393  0.00  0.00     0.052 C 
HETATM   16  C   UNK N   1      -4.293  -1.656   1.229  0.00  0.00     0.128 C 
HETATM   17  N   UNK N   1      -5.404  -1.437   0.308  0.00  0.00    -0.349 N 
HETATM   18  C   UNK N   1      -5.708  -0.077  -0.104  0.00  0.00     0.128 C 
HETATM   19  C   UNK N   1      -6.136  -2.516  -0.128  0.00  0.00     0.242 C 
HETATM   20  C   UNK N   1      -4.465   0.656  -0.638  0.00  0.00     0.052 C 
HETATM   21  O   UNK N   1      -5.816  -3.640   0.229  0.00  0.00    -0.268 OA
BRANCH  19  22
HETATM   22  C   UNK N   1      -7.327  -2.409  -1.021  0.00  0.00     0.064 C 
HETATM   23  C   UNK N   1      -7.887  -1.273  -1.434  0.00  0.00     0.017 C 
ENDBRANCH  19  22
ENDBRANCH  13  14
ENDBRANCH   6  13
BRANCH   1  24
HETATM   24  O   UNK N   1      -2.243  -3.458  -0.942  0.00  0.00    -0.353 OA
HETATM   25  C   UNK N   1      -2.182  -4.830  -1.018  0.00  0.00     0.210 C 
ENDBRANCH   1  24
BRANCH   7  26
HETATM   26  N   UNK N   1       2.012   1.199   0.247  0.00  0.00    -0.339 N 
HETATM   27  H   UNK N   1       1.126   1.598   0.408  0.00  0.00     0.167 HD
BRANCH  26  28
HETATM   28  C   UNK N   1       3.097   2.084  -0.015  0.00  0.00     0.074 A 
HETATM   29  C   UNK N   1       4.360   1.600  -0.391  0.00  0.00     0.034 A 
HETATM   30  C   UNK N   1       5.397   2.481  -0.694  0.00  0.00     0.028 A 
HETATM   31  C   UNK N   1       5.188   3.859  -0.635  0.00  0.00     0.059 A 
HETATM   32  C   UNK N   1       3.928   4.360  -0.264  0.00  0.00     0.096 A 
HETATM   33 Cl   UNK N   1       6.517   4.933  -1.039  0.00  0.00    -0.082 Cl
HETATM   34  C   UNK N   1       2.886   3.469   0.043  0.00  0.00     0.166 A 
HETATM   35 Cl   UNK N   1       3.637   6.094  -0.189  0.00  0.00    -0.079 Cl
HETATM   36  F   UNK N   1       1.664   3.951   0.389  0.00  0.00    -0.202 F 
ENDBRANCH  26  28
ENDBRANCH   7  26
TORSDOF 6
