REMARK  9 active torsions:
REMARK  status: ('A' for Active; 'I' for Inactive)
REMARK    1  A    between atoms: C_4  and  N_2 
REMARK    2  A    between atoms: C_10  and  C_31 
REMARK    3  A    between atoms: C_13  and  O_30 
REMARK    4  A    between atoms: C_18  and  O_29 
REMARK    5  A    between atoms: C_19  and  O_28 
REMARK    6  A    between atoms: C_22  and  C_25 
REMARK    7  A    between atoms: C_23  and  O_24 
REMARK       I    between atoms: C_25  and  N_27 
REMARK    8  A    between atoms: C_31  and  N_32 
REMARK    9  A    between atoms: N_32  and  O_34 
ROOT
HETATM    1  C   UNK N   1       1.998  -2.301   0.193  0.00  0.00     0.286 C 
HETATM    2  C   UNK N   1       3.033  -3.222   0.865  0.00  0.00     0.075 C 
HETATM    3  C   UNK N   1       4.322  -2.441   0.843  0.00  0.00     0.021 C 
HETATM    4  C   UNK N   1       5.588  -3.247   0.825  0.00  0.00     0.030 C 
HETATM    5  C   UNK N   1       6.442  -2.638  -0.224  0.00  0.00     0.050 C 
HETATM    6  C   UNK N   1       7.836  -3.129  -0.096  0.00  0.00    -0.033 A 
HETATM    7  C   UNK N   1       8.919  -2.241  -0.310  0.00  0.00    -0.035 A 
HETATM    8  C   UNK N   1      10.215  -2.757  -0.265  0.00  0.00     0.012 A 
HETATM    9  C   UNK N   1      10.443  -4.113  -0.017  0.00  0.00     0.038 A 
HETATM   10  C   UNK N   1       9.378  -4.989   0.218  0.00  0.00     0.080 A 
HETATM   11  C   UNK N   1       8.056  -4.506   0.200  0.00  0.00     0.055 A 
HETATM   12  C   UNK N   1       6.858  -5.394   0.462  0.00  0.00     0.194 C 
HETATM   13  O   UNK N   1       6.967  -6.611   0.507  0.00  0.00    -0.287 OA
HETATM   14  C   UNK N   1       5.521  -4.726   0.542  0.00  0.00     0.030 C 
HETATM   15  C   UNK N   1       4.341  -5.348   0.295  0.00  0.00     0.096 C 
HETATM   16  C   UNK N   1       3.113  -4.490   0.006  0.00  0.00     0.177 C 
HETATM   17  C   UNK N   1       1.751  -5.148   0.105  0.00  0.00     0.208 C 
HETATM   18  O   UNK N   1       1.643  -6.332   0.383  0.00  0.00    -0.288 OA
HETATM   19  C   UNK N   1       0.537  -4.302  -0.200  0.00  0.00     0.112 C 
HETATM   20  C   UNK N   1       0.673  -2.943  -0.198  0.00  0.00     0.096 C 
ENDROOT
BRANCH   7  21
HETATM   21  C   UNK N   1       8.783  -0.744  -0.590  0.00  0.00     0.159 C 
BRANCH  21  22
HETATM   22  N   UNK N   1       7.421  -0.207  -0.570  0.00  0.00    -0.198 NA
HETATM   23  C   UNK N   1       6.973  -0.074  -1.949  0.00  0.00     0.144 C 
BRANCH  22  24
HETATM   24  O   UNK N   1       7.468   1.040  -0.039  0.00  0.00    -0.309 OA
HETATM   25  C   UNK N   1       6.390   1.096   0.852  0.00  0.00     0.229 C 
ENDBRANCH  22  24
ENDBRANCH  21  22
ENDBRANCH   7  21
BRANCH  10  26
HETATM   26  O   UNK N   1       9.640  -6.284   0.461  0.00  0.00    -0.360 OA
HETATM   27  H   UNK N   1       8.948  -6.894   0.631  0.00  0.00     0.217 HD
ENDBRANCH  10  26
BRANCH  15  28
HETATM   28  O   UNK N   1       4.307  -6.675   0.052  0.00  0.00    -0.361 OA
HETATM   29  H   UNK N   1       3.497  -7.115  -0.118  0.00  0.00     0.217 HD
ENDBRANCH  15  28
BRANCH   1  30
HETATM   30  N   UNK N   1       2.022  -0.902   0.649  0.00  0.00     0.091 NA
HETATM   31  C   UNK N   1       0.850  -0.521   1.421  0.00  0.00     0.310 C 
HETATM   32  C   UNK N   1       2.140  -0.033  -0.510  0.00  0.00     0.310 C 
ENDBRANCH   1  30
BRANCH  16  33
HETATM   33  O   UNK N   1       3.278  -4.106  -1.333  0.00  0.00    -0.374 OA
HETATM   34  H   UNK N   1       3.564  -4.072  -2.259  0.00  0.00     0.211 HD
ENDBRANCH  16  33
BRANCH  20  35
HETATM   35  O   UNK N   1      -0.362  -2.143  -0.535  0.00  0.00    -0.362 OA
HETATM   36  H   UNK N   1      -0.240  -1.244  -0.770  0.00  0.00     0.217 HD
ENDBRANCH  20  35
BRANCH  19  37
HETATM   37  C   UNK N   1      -0.780  -4.952  -0.507  0.00  0.00     0.255 C 
HETATM   38  O   UNK N   1      -1.759  -4.271  -0.785  0.00  0.00    -0.268 OA
HETATM   39  N   UNK N   1      -0.906  -6.291  -0.490  0.00  0.00    -0.366 N 
HETATM   40  H   UNK N   1      -1.801  -6.701  -0.477  0.00  0.00     0.159 HD
HETATM   41  H   UNK N   1      -0.103  -6.861  -0.490  0.00  0.00     0.159 HD
ENDBRANCH  19  37
TORSDOF 9
