REMARK  9 active torsions:
REMARK  status: ('A' for Active; 'I' for Inactive)
REMARK    1  A    between atoms: O_37  and  C_2 
REMARK    2  A    between atoms: N_32  and  C_15 
REMARK    3  A    between atoms: N_34  and  C_16 
REMARK    4  A    between atoms: O_38  and  C_18 
REMARK    5  A    between atoms: O_37  and  C_19 
REMARK    6  A    between atoms: O_38  and  C_20 
REMARK    7  A    between atoms: C_24  and  C_21 
REMARK    8  A    between atoms: N_29  and  C_23 
REMARK    9  A    between atoms: O_35  and  C_24 
ROOT
HETATM    1  C   UNK N   1       3.285   3.284  -0.139  0.00  0.00     0.159 C 
HETATM    2  N   UNK N   1       4.435   2.736  -0.298  0.00  0.00    -0.336 N 
ATOM      3  HN  UNK N   1       4.400   1.727  -0.444  1.00  0.00     0.168 HD
ENDROOT
BRANCH   2   4
HETATM    4  C   UNK N   1       5.731   3.273  -0.307  0.00  0.00     0.037 A 
HETATM    5  C   UNK N   1       6.766   2.357  -0.436  0.00  0.00     0.032 A 
HETATM    6  C   UNK N   1       8.078   2.761  -0.311  0.00  0.00     0.043 A 
HETATM    7  C   UNK N   1       8.390   4.096  -0.042  0.00  0.00     0.114 A 
HETATM    8  C   UNK N   1       7.347   5.035   0.060  0.00  0.00     0.152 A 
HETATM    9  C   UNK N   1       6.013   4.622  -0.062  0.00  0.00     0.074 A 
HETATM   10  F   UNK N   1       7.624   6.339   0.300  0.00  0.00    -0.203 F 
BRANCH   7  11
HETATM   11  O   UNK N   1       9.678   4.504   0.107  0.00  0.00    -0.306 OA
BRANCH  11  12
HETATM   12  C   UNK N   1      10.804   3.731   0.119  0.00  0.00     0.103 A 
HETATM   13  C   UNK N   1      10.759   2.328   0.217  0.00  0.00     0.056 A 
HETATM   14  C   UNK N   1      11.937   1.587   0.196  0.00  0.00     0.092 A 
HETATM   15  N   UNK N   1      13.133   2.219   0.078  0.00  0.00    -0.351 N 
HETATM   16  C   UNK N   1      13.217   3.574  -0.006  0.00  0.00     0.123 A 
HETATM   17  H   UNK N   1      13.959   1.684   0.054  0.00  0.00     0.166 HD
HETATM   18  C   UNK N   1      12.051   4.357   0.021  0.00  0.00     0.111 A 
HETATM   19 Cl   UNK N   1      12.137   6.114  -0.088  0.00  0.00    -0.077 Cl
BRANCH  16  20
HETATM   20  N   UNK N   1      14.364   4.128  -0.120  0.00  0.00    -0.384 N 
HETATM   21  H   UNK N   1      15.175   3.576  -0.208  0.00  0.00     0.157 HD
ATOM     22  HN  UNK N   1      14.440   5.145  -0.120  1.00  0.00     0.157 HD
ENDBRANCH  16  20
ENDBRANCH  11  12
ENDBRANCH   7  11
ENDBRANCH   2   4
BRANCH   1  23
HETATM   23  C   UNK N   1       2.097   2.370  -0.051  0.00  0.00     0.116 A 
HETATM   24  C   UNK N   1       0.787   2.869   0.013  0.00  0.00     0.090 A 
HETATM   25  C   UNK N   1      -0.282   1.965   0.101  0.00  0.00     0.055 A 
HETATM   26  C   UNK N   1      -0.045   0.587   0.123  0.00  0.00     0.103 A 
HETATM   27  N   UNK N   1       1.225   0.083   0.067  0.00  0.00    -0.289 N 
HETATM   28  C   UNK N   1       2.296   0.960  -0.017  0.00  0.00     0.269 A 
HETATM   29  O   UNK N   1       3.432   0.518  -0.059  0.00  0.00    -0.266 OA
BRANCH  24  30
HETATM   30  O   UNK N   1       0.576   4.209  -0.022  0.00  0.00    -0.350 OA
BRANCH  30  31
HETATM   31  C   UNK N   1      -0.666   4.799   0.011  0.00  0.00     0.171 C 
HETATM   32  C   UNK N   1      -0.499   6.302  -0.080  0.00  0.00     0.034 C 
ENDBRANCH  30  31
ENDBRANCH  24  30
BRANCH  27  33
HETATM   33  C   UNK N   1       1.426  -1.368   0.080  0.00  0.00     0.042 A 
HETATM   34  C   UNK N   1       2.723  -1.928   0.064  0.00  0.00     0.033 A 
HETATM   35  C   UNK N   1       2.929  -3.303   0.040  0.00  0.00     0.044 A 
HETATM   36  C   UNK N   1       1.837  -4.162   0.030  0.00  0.00     0.116 A 
HETATM   37  C   UNK N   1       0.539  -3.640   0.054  0.00  0.00     0.044 A 
HETATM   38  F   UNK N   1       2.040  -5.500  -0.008  0.00  0.00    -0.206 F 
HETATM   39  C   UNK N   1       0.333  -2.253   0.081  0.00  0.00     0.033 A 
ENDBRANCH  27  33
ENDBRANCH   1  23
BRANCH   1  40
HETATM   40  O   UNK N   1       3.165   4.623  -0.014  0.00  0.00    -0.345 OA
HETATM   41  H   UNK N   1       3.929   5.159   0.073  0.00  0.00     0.219 HD
ENDBRANCH   1  40
TORSDOF 9
