REMARK  5 active torsions:
REMARK  status: ('A' for Active; 'I' for Inactive)
REMARK    1  A    between atoms: C_6  and  C_7 
REMARK    2  A    between atoms: C_7  and  C_8 
REMARK    3  A    between atoms: C_9  and  O_26 
REMARK    4  A    between atoms: C_10  and  C_23 
REMARK    5  A    between atoms: C_23  and  O_25 
ROOT
HETATM    1  C   UNK N   1      -2.443   0.016  -0.057  0.00  0.00     0.048 A 
HETATM    2  C   UNK N   1      -3.177  -1.180  -0.073  0.00  0.00     0.106 A 
HETATM    3  C   UNK N   1      -2.505  -2.429  -0.038  0.00  0.00     0.085 A 
HETATM    4  C   UNK N   1      -1.080  -2.425   0.008  0.00  0.00     0.011 A 
HETATM    5  C   UNK N   1      -0.331  -3.611   0.020  0.00  0.00     0.015 A 
HETATM    6  C   UNK N   1       1.063  -3.579   0.053  0.00  0.00     0.009 A 
HETATM    7  C   UNK N   1       1.743  -2.361   0.079  0.00  0.00    -0.050 A 
HETATM    8  C   UNK N   1       1.014  -1.153   0.062  0.00  0.00    -0.024 A 
HETATM    9  C   UNK N   1      -0.393  -1.189   0.031  0.00  0.00     0.051 A 
HETATM   10  N   UNK N   1      -1.089  -0.029   0.002  0.00  0.00    -0.356 N 
ATOM     11  HN  UNK N   1      -0.572   0.850   0.025  1.00  0.00     0.166 HD
HETATM   12  C   UNK N   1       1.720   0.182   0.066  0.00  0.00     0.041 C 
HETATM   13  C   UNK N   1       3.187   0.079  -0.335  0.00  0.00     0.005 C 
HETATM   14  C   UNK N   1       3.861  -1.023   0.460  0.00  0.00     0.005 C 
HETATM   15  C   UNK N   1       3.248  -2.379   0.118  0.00  0.00     0.039 C 
ENDROOT
BRANCH   1  16
HETATM   16  C   UNK N   1      -3.157   1.345  -0.159  0.00  0.00     0.098 C 
BRANCH  16  17
HETATM   17  C   UNK N   1      -2.291   2.579  -0.126  0.00  0.00    -0.052 A 
HETATM   18  C   UNK N   1      -1.071   2.637  -0.819  0.00  0.00     0.009 A 
HETATM   19  C   UNK N   1      -0.294   3.797  -0.790  0.00  0.00     0.024 A 
HETATM   20  C   UNK N   1      -0.744   4.920  -0.094  0.00  0.00     0.034 A 
HETATM   21  C   UNK N   1      -1.972   4.881   0.575  0.00  0.00     0.024 A 
HETATM   22 Cl   UNK N   1       0.228   6.375  -0.067  0.00  0.00    -0.084 Cl
HETATM   23  C   UNK N   1      -2.742   3.712   0.561  0.00  0.00     0.009 A 
ENDBRANCH  16  17
ENDBRANCH   1  16
BRANCH   2  24
HETATM   24  O   UNK N   1      -4.522  -1.121  -0.133  0.00  0.00    -0.358 OA
HETATM   25  H   UNK N   1      -4.954  -0.291  -0.175  0.00  0.00     0.217 HD
ENDBRANCH   2  24
BRANCH   3  26
HETATM   26  C   UNK N   1      -3.295  -3.711  -0.067  0.00  0.00     0.179 C 
HETATM   27  O   UNK N   1      -2.735  -4.795  -0.052  0.00  0.00    -0.646 OA
BRANCH  26  28
HETATM   28  O   UNK N   1      -4.642  -3.686  -0.112  0.00  0.00    -0.773 OA
HETATM   29  H   UNK N   1      -5.095  -2.866  -0.144  0.00  0.00     0.167 HD
ENDBRANCH  26  28
ENDBRANCH   3  26
TORSDOF 5
