REMARK  12 active torsions:
REMARK  status: ('A' for Active; 'I' for Inactive)
REMARK    1  A    between atoms: C_2  and  C_3 
REMARK    2  A    between atoms: C_3  and  C_4 
REMARK    3  A    between atoms: C_4  and  C_5 
REMARK    4  A    between atoms: C_5  and  N_6 
REMARK       I    between atoms: N_6  and  C_7 
REMARK    5  A    between atoms: C_7  and  C_9 
REMARK    6  A    between atoms: C_15  and  C_12 
REMARK    7  A    between atoms: C_20  and  C_21 
REMARK    8  A    between atoms: C_21  and  C_22 
REMARK    9  A    between atoms: C_27  and  C_28 
REMARK   10  A    between atoms: C_28  and  C_29 
REMARK   11  A    between atoms: C_29  and  C_30 
REMARK   12  A    between atoms: C_30  and  O_32 
ROOT
HETATM    1  C   UNK N   1       1.712  -3.325   0.964  0.00  0.00     0.097 C 
HETATM    2  C   UNK N   1       2.264  -4.770   1.041  0.00  0.00     0.134 C 
HETATM    3  C   UNK N   1       1.991  -5.522  -0.261  0.00  0.00     0.035 C 
HETATM    4  C   UNK N   1       2.937  -4.817  -1.209  0.00  0.00     0.035 C 
HETATM    5  C   UNK N   1       3.659  -3.879  -0.248  0.00  0.00     0.127 C 
HETATM    6  C   UNK N   1       2.778  -2.694   0.096  0.00  0.00     0.033 C 
HETATM    7  O   UNK N   1       3.647  -4.581   0.964  0.00  0.00    -0.379 OA
ENDROOT
BRANCH   1   8
HETATM    8  C   UNK N   1       0.283  -3.221   0.503  0.00  0.00     0.131 A 
HETATM    9  O   UNK N   1      -0.418  -2.108   0.456  0.00  0.00    -0.307 OA
HETATM   10  C   UNK N   1      -1.658  -2.419   0.138  0.00  0.00     0.179 A 
HETATM   11  C   UNK N   1      -1.685  -3.794  -0.024  0.00  0.00     0.125 A 
HETATM   12  N   UNK N   1      -0.470  -4.290   0.206  0.00  0.00    -0.334 N 
ATOM     13  HN  UNK N   1      -0.177  -5.266   0.165  1.00  0.00     0.168 HD
BRANCH  11  14
HETATM   14  C   UNK N   1      -2.842  -4.655  -0.258  0.00  0.00     0.270 C 
HETATM   15  N   UNK N   1      -4.091  -4.167  -0.118  0.00  0.00    -0.356 N 
HETATM   16  H   UNK N   1      -4.220  -3.202   0.028  0.00  0.00     0.162 HD
HETATM   17  O   UNK N   1      -2.665  -5.848  -0.481  0.00  0.00    -0.266 OA
BRANCH  15  18
HETATM   18  C   UNK N   1      -5.237  -5.035  -0.180  0.00  0.00     0.123 C 
BRANCH  18  19
HETATM   19  C   UNK N   1      -6.412  -4.370   0.496  0.00  0.00     0.020 C 
BRANCH  19  20
HETATM   20  C   UNK N   1      -6.950  -3.274  -0.402  0.00  0.00     0.001 C 
BRANCH  20  21
HETATM   21  C   UNK N   1      -8.267  -2.756   0.138  0.00  0.00    -0.004 C 
HETATM   22  C   UNK N   1      -9.347  -3.811  -0.011  0.00  0.00     0.005 C 
ENDBRANCH  20  21
ENDBRANCH  19  20
ENDBRANCH  18  19
ENDBRANCH  15  18
ENDBRANCH  11  14
ENDBRANCH   1   8
BRANCH   6  23
HETATM   23  C   UNK N   1       2.399  -1.718  -1.008  0.00  0.00     0.047 C 
BRANCH  23  24
HETATM   24  C   UNK N   1       2.849  -0.359  -0.572  0.00  0.00    -0.051 A 
HETATM   25  C   UNK N   1       1.883   0.609  -0.278  0.00  0.00     0.007 A 
HETATM   26  C   UNK N   1       2.266   1.877   0.165  0.00  0.00     0.001 A 
HETATM   27  C   UNK N   1       3.620   2.186   0.316  0.00  0.00     0.001 A 
HETATM   28  C   UNK N   1       4.595   1.229   0.018  0.00  0.00     0.007 A 
HETATM   29  C   UNK N   1       4.221  -0.047  -0.424  0.00  0.00    -0.051 A 
BRANCH  29  30
HETATM   30  C   UNK N   1       5.283  -1.061  -0.748  0.00  0.00     0.049 C 
BRANCH  30  31
HETATM   31  C   UNK N   1       6.128  -1.403   0.472  0.00  0.00     0.114 C 
BRANCH  31  32
HETATM   32  C   UNK N   1       7.002  -2.585   0.192  0.00  0.00     0.139 C 
HETATM   33  O   UNK N   1       8.207  -2.435   0.079  0.00  0.00    -0.650 OA
BRANCH  32  34
HETATM   34  O   UNK N   1       6.474  -3.818   0.094  0.00  0.00    -0.776 OA
HETATM   35  H   UNK N   1       5.546  -3.929   0.026  0.00  0.00     0.167 HD
ENDBRANCH  32  34
ENDBRANCH  31  32
ENDBRANCH  30  31
ENDBRANCH  29  30
ENDBRANCH  23  24
ENDBRANCH   6  23
TORSDOF 12
