REMARK  4 active torsions:
REMARK  status: ('A' for Active; 'I' for Inactive)
REMARK    1  A    between atoms: C_2  and  C_4 
REMARK    2  A    between atoms: C_2  and  N_9 
REMARK    3  A    between atoms: C_4  and  S_5 
REMARK    4  A    between atoms: S_5  and  O_8 
ROOT
HETATM    1  C   UNK N   1       0.812   0.498   1.661  0.00  0.00     0.035 C 
HETATM    2  C   UNK N   1       1.764   0.389   0.474  0.00  0.00     0.052 C 
HETATM    3  C   UNK N   1       3.042  -0.266   0.978  0.00  0.00     0.035 C 
ENDROOT
BRANCH   2   4
HETATM    4  C   UNK N   1       2.215   1.780   0.003  0.00  0.00     0.182 C 
BRANCH   4   5
HETATM    5  S   UNK N   1       0.914   2.912  -0.590  0.00  0.00     0.096 S 
HETATM    6  O   UNK N   1       1.396   4.262  -1.140  0.00  0.00    -0.601 OA
HETATM    7  O   UNK N   1      -0.242   3.284   0.350  0.00  0.00    -0.601 OA
BRANCH   5   8
HETATM    8  O   UNK N   1       1.761   3.508   0.779  0.00  0.00    -0.296 OA
HETATM    9  H   UNK N   1       2.292   3.262   1.553  0.00  0.00     0.232 HD
ENDBRANCH   5   8
ENDBRANCH   4   5
ENDBRANCH   2   4
BRANCH   2  10
HETATM   10  N   UNK N   1       1.188  -0.407  -0.639  0.00  0.00    -0.126 NA
HETATM   11 Cl   UNK N   1       1.117  -2.118  -0.272  0.00  0.00    -0.004 Cl
HETATM   12 Cl   UNK N   1      -0.456   0.049  -1.038  0.00  0.00    -0.004 Cl
ENDBRANCH   2  10
TORSDOF 4
