REMARK  4 active torsions:
REMARK  status: ('A' for Active; 'I' for Inactive)
REMARK    1  A    between atoms: N_11  and  C_7 
REMARK    2  A    between atoms: N_13  and  C_8 
REMARK    3  A    between atoms: N_11  and  N_9 
REMARK    4  A    between atoms: N_13  and  N_10 
ROOT
HETATM    1  C   UNK N   1      -1.657  -0.375   0.000  0.00  0.00     0.001 A 
HETATM    2  C   UNK N   1      -1.591  -1.767  -0.000  0.00  0.00     0.001 A 
HETATM    3  C   UNK N   1      -0.484   0.382   0.000  0.00  0.00     0.016 A 
HETATM    4  C   UNK N   1      -0.351  -2.404  -0.000  0.00  0.00     0.016 A 
HETATM    5  C   UNK N   1       0.780  -0.238   0.000  0.00  0.00     0.025 A 
HETATM    6  C   UNK N   1       0.837  -1.653  -0.000  0.00  0.00     0.025 A 
HETATM    7  C   UNK N   1       2.005   0.493   0.000  0.00  0.00     0.145 A 
HETATM    8  C   UNK N   1       2.085  -2.290  -0.000  0.00  0.00     0.145 A 
HETATM    9  N   UNK N   1       3.173  -0.203   0.000  0.00  0.00    -0.282 N 
HETATM   10  N   UNK N   1       3.215  -1.535   0.000  0.00  0.00    -0.282 N 
HETATM   11  H   UNK N   1       4.021   0.297   0.000  0.00  0.00     0.188 HD
HETATM   12  H   UNK N   1       4.091  -1.986   0.000  0.00  0.00     0.188 HD
ENDROOT
BRANCH   7  13
HETATM   13  N   UNK N   1       2.077   1.786   0.000  0.00  0.00    -0.290 N 
ATOM     14  HN  UNK N   1       3.004   2.213   0.000  1.00  0.00     0.188 HD
BRANCH  13  15
HETATM   15  N   UNK N   1       0.985   2.618   0.000  0.00  0.00    -0.344 N 
HETATM   16  H   UNK N   1       1.110   3.595   0.000  0.00  0.00     0.176 HD
HETATM   17  H   UNK N   1       0.077   2.239   0.000  0.00  0.00     0.176 HD
ENDBRANCH  13  15
ENDBRANCH   7  13
BRANCH   8  18
HETATM   18  N   UNK N   1       2.162  -3.576  -0.000  0.00  0.00    -0.290 N 
ATOM     19  HN  UNK N   1       1.304  -4.127  -0.000  1.00  0.00     0.188 HD
BRANCH  18  20
HETATM   20  N   UNK N   1       3.375  -4.219  -0.000  0.00  0.00    -0.344 N 
HETATM   21  H   UNK N   1       3.411  -5.203  -0.000  0.00  0.00     0.176 HD
HETATM   22  H   UNK N   1       4.210  -3.696  -0.000  0.00  0.00     0.176 HD
ENDBRANCH  18  20
ENDBRANCH   8  18
TORSDOF 4
