REMARK  8 active torsions:
REMARK  status: ('A' for Active; 'I' for Inactive)
REMARK    1  A    between atoms: C_2  and  O_4 
REMARK    2  A    between atoms: O_4  and  C_5 
REMARK    3  A    between atoms: C_10  and  C_11 
REMARK    4  A    between atoms: C_11  and  O_13 
REMARK    5  A    between atoms: O_13  and  C_14 
REMARK    6  A    between atoms: C_18  and  C_20 
REMARK    7  A    between atoms: C_20  and  O_21 
REMARK    8  A    between atoms: O_21  and  N_22 
ROOT
HETATM    1  C   UNK N   1      -1.565  -3.587  -0.454  0.00  0.00     0.301 C 
HETATM    2  O   UNK N   1      -2.502  -4.363  -0.328  0.00  0.00    -0.259 OA
ENDROOT
BRANCH   1   3
HETATM    3  C   UNK N   1      -0.167  -4.015  -0.213  0.00  0.00     0.073 A 
HETATM    4  C   UNK N   1       0.125  -5.373  -0.040  0.00  0.00     0.020 A 
HETATM    5  C   UNK N   1       1.436  -5.789   0.199  0.00  0.00     0.001 A 
HETATM    6  C   UNK N   1       2.467  -4.851   0.276  0.00  0.00     0.003 A 
HETATM    7  C   UNK N   1       2.190  -3.494   0.126  0.00  0.00     0.038 A 
HETATM    8  C   UNK N   1       0.881  -3.053  -0.116  0.00  0.00     0.095 A 
BRANCH   8   9
HETATM    9  O   UNK N   1       0.593  -1.721  -0.224  0.00  0.00    -0.278 OA
BRANCH   9  10
HETATM   10  C   UNK N   1       1.434  -0.655  -0.111  0.00  0.00     0.260 C 
HETATM   11  C   UNK N   1       0.872   0.725  -0.174  0.00  0.00     0.126 C 
HETATM   12  O   UNK N   1       2.635  -0.802   0.049  0.00  0.00    -0.265 OA
ENDBRANCH   9  10
ENDBRANCH   8   9
ENDBRANCH   1   3
BRANCH   1  13
HETATM   13  O   UNK N   1      -1.765  -2.294  -0.771  0.00  0.00    -0.275 OA
BRANCH  13  14
HETATM   14  C   UNK N   1      -2.708  -1.465  -0.302  0.00  0.00     0.080 A 
HETATM   15  C   UNK N   1      -3.954  -1.889   0.184  0.00  0.00     0.037 A 
HETATM   16  C   UNK N   1      -4.835  -0.946   0.733  0.00  0.00     0.003 A 
HETATM   17  C   UNK N   1      -4.452   0.401   0.823  0.00  0.00     0.009 A 
HETATM   18  C   UNK N   1      -3.197   0.800   0.343  0.00  0.00    -0.029 A 
HETATM   19  C   UNK N   1      -2.352  -0.129  -0.226  0.00  0.00     0.046 A 
BRANCH  18  20
HETATM   20  C   UNK N   1      -2.743   2.207   0.405  0.00  0.00     0.246 C 
BRANCH  20  21
HETATM   21  O   UNK N   1      -3.595   2.959  -0.354  0.00  0.00    -0.217 OA
BRANCH  21  22
HETATM   22  N   UNK N   1      -4.133   4.068   0.109  0.00  0.00     0.005 N 
HETATM   23  O   UNK N   1      -5.083   4.531  -0.436  0.00  0.00    -0.511 OA
HETATM   24  O   UNK N   1      -3.634   4.660   1.176  0.00  0.00    -0.511 OA
ENDBRANCH  21  22
ENDBRANCH  20  21
ENDBRANCH  18  20
ENDBRANCH  13  14
ENDBRANCH   1  13
TORSDOF 8
