REMARK  5 active torsions:
REMARK  status: ('A' for Active; 'I' for Inactive)
REMARK    1  A    between atoms: C_2  and  C_12 
REMARK    2  A    between atoms: C_12  and  N_13 
REMARK    3  A    between atoms: C_15  and  C_19 
REMARK    4  A    between atoms: C_16  and  O_18 
REMARK    5  A    between atoms: C_19  and  O_20 
ROOT
HETATM    1  C   UNK N   1      -0.683   0.184  -0.203  0.00  0.00     0.099 A 
HETATM    2  C   UNK N   1      -0.014  -1.040  -0.257  0.00  0.00     0.015 A 
HETATM    3  C   UNK N   1       1.319  -0.743  -0.127  0.00  0.00     0.075 A 
HETATM    4  C   UNK N   1       1.423   0.603  -0.002  0.00  0.00     0.128 A 
HETATM    5  N   UNK N   1       0.214   1.191  -0.038  0.00  0.00    -0.359 N 
HETATM    6  C   UNK N   1       2.669   1.196   0.122  0.00  0.00     0.275 A 
HETATM    7  O   UNK N   1       2.787   2.404   0.225  0.00  0.00    -0.266 OA
HETATM    8  N   UNK N   1       3.776   0.379   0.116  0.00  0.00    -0.318 N 
HETATM    9  C   UNK N   1       3.645  -0.982  -0.010  0.00  0.00     0.184 A 
HETATM   10  N   UNK N   1       2.405  -1.554  -0.136  0.00  0.00    -0.350 N 
ATOM     11  HN  UNK N   1       2.303  -2.564  -0.233  1.00  0.00     0.166 HD
HETATM   12  H   UNK N   1       0.019   2.152   0.039  0.00  0.00     0.165 HD
HETATM   13  H   UNK N   1       4.674   0.775   0.203  0.00  0.00     0.169 HD
ENDROOT
BRANCH   2  14
HETATM   14  C   UNK N   1      -0.643  -2.391  -0.475  0.00  0.00     0.315 C 
BRANCH  14  15
HETATM   15  N   UNK N   1      -1.706  -2.665   0.492  0.00  0.00     0.095 N 
HETATM   16  C   UNK N   1      -2.146  -4.053   0.312  0.00  0.00     0.282 C 
HETATM   17  C   UNK N   1      -3.579  -4.017  -0.196  0.00  0.00     0.068 C 
HETATM   18  C   UNK N   1      -4.077  -2.710   0.332  0.00  0.00     0.154 C 
HETATM   19  C   UNK N   1      -2.869  -1.839   0.159  0.00  0.00     0.304 C 
BRANCH  17  20
HETATM   20  C   UNK N   1      -4.422  -5.162   0.340  0.00  0.00     0.173 C 
BRANCH  20  21
HETATM   21  O   UNK N   1      -4.008  -6.370  -0.219  0.00  0.00    -0.400 OA
HETATM   22  H   UNK N   1      -4.592  -7.040  -0.608  0.00  0.00     0.209 HD
ENDBRANCH  20  21
ENDBRANCH  17  20
BRANCH  18  23
HETATM   23  O   UNK N   1      -5.143  -2.236  -0.434  0.00  0.00    -0.393 OA
HETATM   24  H   UNK N   1      -5.227  -1.430  -0.967  0.00  0.00     0.210 HD
ENDBRANCH  18  23
ENDBRANCH  14  15
ENDBRANCH   2  14
TORSDOF 5
