REMARK  5 active torsions:
REMARK  status: ('A' for Active; 'I' for Inactive)
REMARK    1  A    between atoms: C_5  and  C_7 
REMARK    2  A    between atoms: C_7  and  C_8 
REMARK    3  A    between atoms: C_7  and  O_13 
REMARK    4  A    between atoms: C_8  and  O_9 
REMARK    5  A    between atoms: O_9  and  C_10 
REMARK       I    between atoms: C_10  and  N_12 
ROOT
HETATM    1  C   UNK N   1       2.591   1.954   0.354  0.00  0.00     0.177 C 
ENDROOT
BRANCH   1   2
HETATM    2  C   UNK N   1       1.325   1.123   0.179  0.00  0.00    -0.006 A 
HETATM    3  C   UNK N   1       0.009   1.661   0.039  0.00  0.00     0.043 A 
HETATM    4  C   UNK N   1      -1.081   0.795  -0.102  0.00  0.00     0.024 A 
HETATM    5 Cl   UNK N   1      -0.361   3.381   0.055  0.00  0.00    -0.084 Cl
HETATM    6  C   UNK N   1      -0.901  -0.587  -0.109  0.00  0.00     0.002 A 
HETATM    7  C   UNK N   1       0.376  -1.121   0.035  0.00  0.00     0.001 A 
HETATM    8  C   UNK N   1       1.475  -0.274   0.182  0.00  0.00     0.011 A 
ENDBRANCH   1   2
BRANCH   1   9
HETATM    9  C   UNK N   1       3.663   1.628  -0.680  0.00  0.00     0.217 C 
BRANCH   9  10
HETATM   10  O   UNK N   1       4.297   0.443  -0.372  0.00  0.00    -0.301 OA
BRANCH  10  11
HETATM   11  C   UNK N   1       5.615   0.388  -0.058  0.00  0.00     0.358 C 
HETATM   12  O   UNK N   1       6.279   1.410   0.038  0.00  0.00    -0.239 OA
HETATM   13  N   UNK N   1       6.201  -0.807   0.150  0.00  0.00    -0.346 N 
HETATM   14  H   UNK N   1       5.658  -1.614   0.302  0.00  0.00     0.161 HD
HETATM   15  H   UNK N   1       7.183  -0.874   0.150  0.00  0.00     0.161 HD
ENDBRANCH  10  11
ENDBRANCH   9  10
ENDBRANCH   1   9
BRANCH   1  16
HETATM   16  O   UNK N   1       2.367   3.329   0.328  0.00  0.00    -0.389 OA
HETATM   17  H   UNK N   1       3.118   3.942   0.310  0.00  0.00     0.210 HD
ENDBRANCH   1  16
TORSDOF 5
