REMARK  21 active torsions:
REMARK  status: ('A' for Active; 'I' for Inactive)
REMARK    1  A    between atoms: C_3  and  C_2 
REMARK    2  A    between atoms: C_7  and  S_86 
REMARK    3  A    between atoms: C_11  and  C_80 
REMARK    4  A    between atoms: C_15  and  C_77 
REMARK    5  A    between atoms: C_19  and  C_72 
REMARK    6  A    between atoms: C_31  and  C_65 
REMARK    7  A    between atoms: C_35  and  C_60 
REMARK    8  A    between atoms: C_39  and  C_56 
REMARK    9  A    between atoms: C_43  and  C_47 
REMARK   10  A    between atoms: C_47  and  C_48 
REMARK   11  A    between atoms: C_47  and  O_54 
REMARK   12  A    between atoms: C_48  and  C_50 
REMARK   13  A    between atoms: C_50  and  C_51 
REMARK   14  A    between atoms: C_60  and  C_61 
REMARK   15  A    between atoms: C_65  and  C_66 
REMARK   16  A    between atoms: C_72  and  C_73 
REMARK   17  A    between atoms: C_80  and  C_81 
REMARK   18  A    between atoms: C_81  and  O_84 
REMARK   19  A    between atoms: S_86  and  C_87 
REMARK   20  A    between atoms: C_87  and  C_88 
REMARK   21  A    between atoms: C_88  and  N_89 
ROOT
HETATM    1  C   UNK N   1       0.087  -2.254   1.070  0.00  0.00     0.176 C 
HETATM    2  C   UNK N   1       0.455  -0.934   0.488  0.00  0.00     0.243 C 
HETATM    3  O   UNK N   1       0.949  -0.875  -0.633  0.00  0.00    -0.271 OA
HETATM    4  N   UNK N   1       0.440   0.160   1.275  0.00  0.00    -0.333 N 
HETATM    5  C   UNK N   1       1.493   1.111   1.108  0.00  0.00     0.241 C 
HETATM    6  C   UNK N   1       1.469   2.253   0.150  0.00  0.00     0.253 C 
HETATM    7  O   UNK N   1       2.535   2.718  -0.158  0.00  0.00    -0.270 OA
HETATM    8  N   UNK N   1       0.329   2.909  -0.190  0.00  0.00    -0.340 N 
HETATM    9  C   UNK N   1       0.494   4.314  -0.589  0.00  0.00     0.181 C 
HETATM   10  C   UNK N   1      -0.785   5.071  -0.622  0.00  0.00     0.241 C 
HETATM   11  O   UNK N   1      -1.597   4.912   0.276  0.00  0.00    -0.271 OA
HETATM   12  N   UNK N   1      -0.807   6.176  -1.398  0.00  0.00    -0.346 N 
HETATM   13  C   UNK N   1      -1.600   7.368  -1.183  0.00  0.00     0.180 C 
HETATM   14  C   UNK N   1      -2.531   7.344   0.031  0.00  0.00     0.243 C 
HETATM   15  O   UNK N   1      -2.221   7.959   1.044  0.00  0.00    -0.271 OA
HETATM   16  N   UNK N   1      -3.755   6.741  -0.060  0.00  0.00    -0.341 N 
HETATM   17  C   UNK N   1      -4.796   6.969   0.961  0.00  0.00     0.179 C 
HETATM   18  C   UNK N   1      -6.133   6.467   0.479  0.00  0.00     0.241 C 
HETATM   19  O   UNK N   1      -6.716   5.574   1.077  0.00  0.00    -0.271 OA
HETATM   20  N   UNK N   1      -6.635   7.005  -0.664  0.00  0.00    -0.346 N 
HETATM   21  C   UNK N   1      -7.787   6.578  -1.417  0.00  0.00     0.172 C 
HETATM   22  C   UNK N   1      -8.976   6.367  -0.561  0.00  0.00     0.240 C 
HETATM   23  O   UNK N   1      -9.347   7.232   0.221  0.00  0.00    -0.271 OA
HETATM   24  N   UNK N   1      -9.600   5.176  -0.627  0.00  0.00    -0.346 N 
HETATM   25  C   UNK N   1     -10.639   4.837   0.294  0.00  0.00     0.172 C 
HETATM   26  C   UNK N   1     -10.055   4.025   1.417  0.00  0.00     0.242 C 
HETATM   27  O   UNK N   1     -10.215   4.471   2.543  0.00  0.00    -0.271 OA
HETATM   28  N   UNK N   1      -9.225   2.936   1.237  0.00  0.00    -0.341 N 
HETATM   29  C   UNK N   1      -8.952   2.277  -0.065  0.00  0.00     0.179 C 
HETATM   30  C   UNK N   1      -8.576   0.805   0.112  0.00  0.00     0.243 C 
HETATM   31  O   UNK N   1      -8.770   0.293   1.204  0.00  0.00    -0.271 OA
HETATM   32  N   UNK N   1      -8.252   0.013  -0.966  0.00  0.00    -0.341 N 
HETATM   33  C   UNK N   1      -8.460  -1.431  -0.927  0.00  0.00     0.179 C 
HETATM   34  C   UNK N   1      -7.225  -2.256  -0.832  0.00  0.00     0.243 C 
HETATM   35  O   UNK N   1      -6.996  -3.024  -1.754  0.00  0.00    -0.271 OA
HETATM   36  N   UNK N   1      -6.422  -2.242   0.275  0.00  0.00    -0.341 N 
HETATM   37  C   UNK N   1      -5.447  -3.270   0.479  0.00  0.00     0.182 C 
HETATM   38  C   UNK N   1      -4.006  -3.097   0.248  0.00  0.00     0.243 C 
HETATM   39  O   UNK N   1      -3.287  -3.468   1.162  0.00  0.00    -0.271 OA
HETATM   40  N   UNK N   1      -3.504  -2.921  -1.025  0.00  0.00    -0.339 N 
HETATM   41  C   UNK N   1      -2.374  -3.739  -1.436  0.00  0.00     0.207 C 
HETATM   42  C   UNK N   1      -1.082  -3.224  -0.898  0.00  0.00     0.243 C 
HETATM   43  O   UNK N   1      -0.151  -3.026  -1.661  0.00  0.00    -0.271 OA
HETATM   44  N   UNK N   1      -1.003  -2.896   0.407  0.00  0.00    -0.346 N 
HETATM   45  C   UNK N   1      -4.303  -2.347  -2.074  0.00  0.00     0.153 C 
HETATM   46  C   UNK N   1      -6.629  -1.334   1.368  0.00  0.00     0.153 C 
HETATM   47  C   UNK N   1      -7.992   0.604  -2.258  0.00  0.00     0.153 C 
HETATM   48  C   UNK N   1      -8.397   2.576   2.376  0.00  0.00     0.153 C 
HETATM   49  C   UNK N   1     -11.937   4.433  -0.376  0.00  0.00     0.042 C 
HETATM   50  C   UNK N   1      -8.080   7.620  -2.475  0.00  0.00     0.042 C 
HETATM   51  C   UNK N   1      -4.047   5.947  -1.241  0.00  0.00     0.153 C 
HETATM   52  C   UNK N   1      -0.969   2.307  -0.000  0.00  0.00     0.153 C 
HETATM   53  C   UNK N   1      -0.238   0.135   2.553  0.00  0.00     0.154 C 
HETATM   54  H   UNK N   1      -0.225   6.170  -2.192  0.00  0.00     0.163 HD
HETATM   55  H   UNK N   1      -6.150   7.784  -1.021  0.00  0.00     0.163 HD
HETATM   56  H   UNK N   1      -9.337   4.528  -1.320  0.00  0.00     0.163 HD
HETATM   57  H   UNK N   1      -1.782  -3.123   0.964  0.00  0.00     0.163 HD
ENDROOT
BRANCH  41  58
HETATM   58  C   UNK N   1      -2.818  -5.186  -1.112  0.00  0.00     0.154 C 
BRANCH  58  59
HETATM   59  C   UNK N   1      -1.900  -6.332  -0.725  0.00  0.00     0.016 C 
HETATM   60  C   UNK N   1      -2.781  -7.450  -0.188  0.00  0.00     0.013 C 
BRANCH  59  61
HETATM   61  C   UNK N   1      -0.954  -5.965   0.392  0.00  0.00     0.033 C 
BRANCH  61  62
HETATM   62  C   UNK N   1       0.423  -6.110  -0.137  0.00  0.00    -0.031 C 
HETATM   63  C   UNK N   1       1.453  -6.230   0.687  0.00  0.00    -0.035 C 
HETATM   64  C   UNK N   1       2.824  -6.356   0.123  0.00  0.00     0.036 C 
ENDBRANCH  61  62
ENDBRANCH  59  61
ENDBRANCH  58  59
BRANCH  58  65
HETATM   65  O   UNK N   1      -3.750  -5.593  -2.070  0.00  0.00    -0.393 OA
HETATM   66  H   UNK N   1      -4.318  -5.175  -2.735  0.00  0.00     0.210 HD
ENDBRANCH  58  65
ENDBRANCH  41  58
BRANCH  37  67
HETATM   67  C   UNK N   1      -5.886  -4.716   0.733  0.00  0.00     0.009 C 
HETATM   68  C   UNK N   1      -6.393  -5.448  -0.494  0.00  0.00     0.012 C 
HETATM   69  C   UNK N   1      -6.827  -4.839   1.908  0.00  0.00     0.012 C 
ENDBRANCH  37  67
BRANCH   1  70
HETATM   70  C   UNK N   1       1.296  -3.154   1.328  0.00  0.00     0.030 C 
HETATM   71  C   UNK N   1       2.237  -3.273   0.140  0.00  0.00     0.007 C 
ENDBRANCH   1  70
BRANCH  33  72
HETATM   72  C   UNK N   1      -9.560  -1.891   0.050  0.00  0.00     0.039 C 
BRANCH  72  73
HETATM   73  C   UNK N   1     -10.276  -3.174  -0.320  0.00  0.00    -0.020 C 
HETATM   74  C   UNK N   1      -9.397  -4.383  -0.084  0.00  0.00     0.009 C 
HETATM   75  C   UNK N   1     -11.489  -3.293   0.576  0.00  0.00     0.009 C 
ENDBRANCH  72  73
ENDBRANCH  33  72
BRANCH   5  76
HETATM   76  S   UNK N   1       3.156   0.514   1.615  0.00  0.00    -0.132 SA
BRANCH  76  77
HETATM   77  C   UNK N   1       3.569  -0.417   0.093  0.00  0.00     0.106 C 
BRANCH  77  78
HETATM   78  C   UNK N   1       3.825   0.461  -1.132  0.00  0.00     0.281 C 
BRANCH  78  79
HETATM   79  N   UNK N   1       4.864   1.449  -0.878  0.00  0.00     0.080 N 
HETATM   80  C   UNK N   1       4.825   2.403  -1.973  0.00  0.00     0.309 C 
HETATM   81  C   UNK N   1       6.151   0.783  -0.945  0.00  0.00     0.309 C 
ENDBRANCH  78  79
ENDBRANCH  77  78
ENDBRANCH  76  77
ENDBRANCH   5  76
BRANCH  29  82
HETATM   82  C   UNK N   1     -10.216   2.199  -0.965  0.00  0.00     0.039 C 
BRANCH  82  83
HETATM   83  C   UNK N   1     -11.211   1.094  -0.545  0.00  0.00    -0.020 C 
HETATM   84  C   UNK N   1     -11.600   0.226  -1.722  0.00  0.00     0.009 C 
HETATM   85  C   UNK N   1     -12.434   1.603   0.182  0.00  0.00     0.009 C 
ENDBRANCH  82  83
ENDBRANCH  29  82
BRANCH   9  86
HETATM   86  C   UNK N   1       1.250   5.055   0.554  0.00  0.00     0.072 C 
BRANCH  86  87
HETATM   87  C   UNK N   1       2.545   5.822   0.245  0.00  0.00     0.053 C 
HETATM   88  C   UNK N   1       3.792   4.970   0.363  0.00  0.00     0.045 C 
HETATM   89  C   UNK N   1       2.681   6.905   1.292  0.00  0.00     0.045 C 
BRANCH  87  90
HETATM   90  O   UNK N   1       2.498   6.402  -1.022  0.00  0.00    -0.391 OA
HETATM   91  H   UNK N   1       2.830   6.632  -1.903  0.00  0.00     0.210 HD
ENDBRANCH  87  90
ENDBRANCH  86  87
ENDBRANCH   9  86
BRANCH  13  92
HETATM   92  C   UNK N   1      -0.638   8.565  -1.195  0.00  0.00     0.009 C 
HETATM   93  C   UNK N   1      -1.366   9.892  -1.149  0.00  0.00     0.012 C 
HETATM   94  C   UNK N   1       0.387   8.499  -0.077  0.00  0.00     0.012 C 
ENDBRANCH  13  92
BRANCH  17  95
HETATM   95  C   UNK N   1      -4.939   8.476   1.307  0.00  0.00     0.039 C 
BRANCH  95  96
HETATM   96  C   UNK N   1      -4.623   9.434   0.146  0.00  0.00    -0.020 C 
HETATM   97  C   UNK N   1      -5.812   9.707  -0.747  0.00  0.00     0.009 C 
HETATM   98  C   UNK N   1      -4.082  10.742   0.677  0.00  0.00     0.009 C 
ENDBRANCH  95  96
ENDBRANCH  17  95
TORSDOF 21
