REMARK  6 active torsions:
REMARK  status: ('A' for Active; 'I' for Inactive)
REMARK    1  A    between atoms: C_5  and  C_8 
REMARK    2  A    between atoms: C_8  and  N_9 
REMARK    3  A    between atoms: N_9  and  C_10 
REMARK    4  A    between atoms: C_17  and  C_21 
REMARK    5  A    between atoms: C_25  and  O_27 
REMARK    6  A    between atoms: O_27  and  C_28 
ROOT
HETATM    1  C   UNK N   1       3.766   0.641   0.548  0.00  0.00     0.116 A 
HETATM    2  C   UNK N   1       3.683  -0.763   0.465  0.00  0.00     0.053 A 
HETATM    3  C   UNK N   1       2.456  -1.375   0.164  0.00  0.00     0.054 A 
HETATM    4  C   UNK N   1       1.365  -0.539  -0.029  0.00  0.00     0.127 A 
HETATM    5  N   UNK N   1       0.095  -0.907  -0.294  0.00  0.00    -0.349 N 
ATOM      6  HN  UNK N   1      -0.264  -1.854  -0.419  1.00  0.00     0.167 HD
HETATM    7  C   UNK N   1      -0.605   0.259  -0.358  0.00  0.00     0.122 A 
HETATM    8  C   UNK N   1       0.281   1.310  -0.137  0.00  0.00     0.084 A 
HETATM    9  N   UNK N   1       1.496   0.783   0.063  0.00  0.00    -0.236 N 
HETATM   10  N   UNK N   1       2.650   1.394   0.336  0.00  0.00    -0.277 N 
ATOM     11  HN  UNK N   1       2.697   2.411   0.386  1.00  0.00     0.189 HD
ENDROOT
BRANCH   8  12
HETATM   12  C   UNK N   1      -0.024   2.752  -0.101  0.00  0.00    -0.003 A 
HETATM   13  C   UNK N   1      -1.342   3.228  -0.124  0.00  0.00     0.014 A 
HETATM   14  C   UNK N   1      -1.587   4.608  -0.074  0.00  0.00     0.004 A 
HETATM   15  C   UNK N   1      -0.515   5.511  -0.024  0.00  0.00     0.037 A 
HETATM   16  C   UNK N   1       0.807   5.032  -0.017  0.00  0.00     0.079 A 
HETATM   17  C   UNK N   1       1.031   3.663  -0.045  0.00  0.00     0.051 A 
BRANCH  16  18
HETATM   18  O   UNK N   1       1.887   5.850  -0.010  0.00  0.00    -0.255 OA
BRANCH  18  19
HETATM   19  C   UNK N   1       1.858   7.227   0.023  0.00  0.00     0.530 C 
HETATM   20  F   UNK N   1       1.287   7.661   1.205  0.00  0.00    -0.144 F 
HETATM   21  F   UNK N   1       3.156   7.695  -0.049  0.00  0.00    -0.144 F 
HETATM   22  F   UNK N   1       1.145   7.718  -1.056  0.00  0.00    -0.144 F 
ENDBRANCH  18  19
ENDBRANCH  16  18
ENDBRANCH   8  12
BRANCH   1  23
HETATM   23  N   UNK N   1       5.012   1.250   0.824  0.00  0.00    -0.375 N 
HETATM   24  H   UNK N   1       5.757   0.684   1.131  0.00  0.00     0.161 HD
BRANCH  23  25
HETATM   25  C   UNK N   1       5.235   2.667   0.675  0.00  0.00     0.126 C 
BRANCH  25  26
HETATM   26  C   UNK N   1       6.051   2.902  -0.593  0.00  0.00     0.007 C 
HETATM   27  C   UNK N   1       7.321   2.035  -0.630  0.00  0.00     0.036 C 
HETATM   28  C   UNK N   1       8.601   2.864  -0.645  0.00  0.00     0.272 C 
HETATM   29  N   UNK N   1       8.522   3.918   0.360  0.00  0.00     0.084 N 
HETATM   30  C   UNK N   1       9.801   4.605   0.346  0.00  0.00     0.309 C 
HETATM   31  C   UNK N   1       7.494   4.919   0.030  0.00  0.00     0.272 C 
HETATM   32  C   UNK N   1       6.339   4.384  -0.836  0.00  0.00     0.036 C 
ENDBRANCH  25  26
ENDBRANCH  23  25
ENDBRANCH   1  23
TORSDOF 6
