REMARK  8 active torsions:
REMARK  status: ('A' for Active; 'I' for Inactive)
REMARK    1  A    between atoms: C_2  and  C_3 
REMARK    2  A    between atoms: C_2  and  C_9 
REMARK    3  A    between atoms: C_2  and  N_29 
REMARK    4  A    between atoms: C_9  and  O_11 
REMARK    5  A    between atoms: C_12  and  O_11 
REMARK    6  A    between atoms: N_14  and  C_20 
REMARK    7  A    between atoms: C_20  and  C_21 
REMARK    8  A    between atoms: C_21  and  C_22 
ROOT
HETATM    1  C   UNK N   1       1.161  -0.467   0.484  0.00  0.00     0.162 C 
HETATM    2  C   UNK N   1       0.751   0.834   1.207  0.00  0.00     0.270 C 
HETATM    3  N   UNK N   1       1.714   1.919   0.934  0.00  0.00    -0.064 N 
HETATM    4  C   UNK N   1       3.066   1.496   1.346  0.00  0.00     0.238 C 
HETATM    5  C   UNK N   1       3.525   0.245   0.566  0.00  0.00     0.035 C 
HETATM    6  C   UNK N   1       2.407  -0.206  -0.377  0.00  0.00     0.020 C 
HETATM    7  C   UNK N   1       2.106   0.962  -1.331  0.00  0.00     0.035 C 
HETATM    8  C   UNK N   1       1.723   2.217  -0.512  0.00  0.00     0.238 C 
ENDROOT
BRANCH   1   9
HETATM    9  O   UNK N   1       0.162  -0.993  -0.308  0.00  0.00    -0.312 OA
BRANCH   9  10
HETATM   10  C   UNK N   1      -1.077  -1.349   0.124  0.00  0.00     0.303 C 
HETATM   11  O   UNK N   1      -1.613  -0.741   1.041  0.00  0.00    -0.262 OA
BRANCH  10  12
HETATM   12  C   UNK N   1      -1.748  -2.567  -0.507  0.00  0.00     0.269 C 
HETATM   13  C   UNK N   1      -1.733  -2.401  -2.031  0.00  0.00     0.066 C 
BRANCH  12  14
HETATM   14  C   UNK N   1      -3.215  -2.644  -0.059  0.00  0.00    -0.010 A 
HETATM   15  C   UNK N   1      -3.712  -3.733   0.678  0.00  0.00     0.010 A 
HETATM   16  C   UNK N   1      -5.056  -3.783   1.060  0.00  0.00     0.001 A 
HETATM   17  C   UNK N   1      -5.921  -2.742   0.715  0.00  0.00     0.000 A 
HETATM   18  C   UNK N   1      -5.442  -1.649  -0.009  0.00  0.00     0.001 A 
HETATM   19  C   UNK N   1      -4.099  -1.599  -0.394  0.00  0.00     0.010 A 
ENDBRANCH  12  14
BRANCH  12  20
HETATM   20  N   UNK N   1      -0.972  -3.777  -0.103  0.00  0.00     0.112 N 
HETATM   21  C   UNK N   1       0.454  -3.700  -0.454  0.00  0.00     0.274 C 
HETATM   22  C   UNK N   1       1.225  -4.766   0.313  0.00  0.00     0.030 C 
HETATM   23  C   UNK N   1       0.692  -6.142  -0.074  0.00  0.00     0.003 C 
HETATM   24  C   UNK N   1      -0.828  -6.206   0.082  0.00  0.00     0.030 C 
HETATM   25  C   UNK N   1      -1.481  -5.037  -0.659  0.00  0.00     0.274 C 
ENDBRANCH  12  20
ENDBRANCH  10  12
ENDBRANCH   9  10
ENDBRANCH   1   9
BRANCH   3  26
HETATM   26  C   UNK N   1       1.370   3.109   1.714  0.00  0.00     0.242 C 
BRANCH  26  27
HETATM   27  C   UNK N   1      -0.071   3.582   1.481  0.00  0.00     0.066 C 
BRANCH  27  28
HETATM   28  C   UNK N   1      -0.179   4.841   0.677  0.00  0.00    -0.056 A 
HETATM   29  C   UNK N   1      -1.453   5.330   0.370  0.00  0.00     0.010 A 
HETATM   30  C   UNK N   1      -1.597   6.507  -0.369  0.00  0.00     0.043 A 
HETATM   31  C   UNK N   1      -0.465   7.202  -0.803  0.00  0.00     0.116 A 
HETATM   32  C   UNK N   1       0.811   6.720  -0.501  0.00  0.00     0.043 A 
HETATM   33  F   UNK N   1      -0.606   8.345  -1.516  0.00  0.00    -0.206 F 
HETATM   34  C   UNK N   1       0.955   5.543   0.237  0.00  0.00     0.010 A 
ENDBRANCH  27  28
ENDBRANCH  26  27
ENDBRANCH   3  26
TORSDOF 8
