REMARK  5 active torsions:
REMARK  status: ('A' for Active; 'I' for Inactive)
REMARK    1  A    between atoms: Se_1  and  C_6 
REMARK    2  A    between atoms: O_2  and  C_8 
REMARK    3  A    between atoms: C_5  and  N_4 
REMARK    4  A    between atoms: C_5  and  C_6 
REMARK    5  A    between atoms: C_5  and  C_8 
ROOT
HETATM    1  C   UNK N   1      28.164 -12.004  -0.000  0.00  0.00     0.173 C 
ENDROOT
BRANCH   1   2
HETATM    2  N   UNK N   1      26.939 -11.219   0.000  0.00  0.00    -0.418 N 
HETATM    3  H   UNK N   1      26.986 -10.200   0.000  0.00  0.00     0.150 HD
HETATM    4  H   UNK N   1      26.033 -11.688   0.000  0.00  0.00     0.150 HD
ENDBRANCH   1   2
BRANCH   1   5
HETATM    5  C   UNK N   1      28.106 -13.525   0.000  0.00  0.00     0.038 C 
BRANCH   5   6
HETATM    6 Se   UNK N   1      26.307 -14.260  -0.000  0.00  0.00     0.000 Se
HETATM    7  C   UNK N   1      27.106 -16.030  -0.000  0.00  0.00     0.000 C 
ENDBRANCH   5   6
ENDBRANCH   1   5
BRANCH   1   8
HETATM    8  C   UNK N   1      29.478 -11.292   0.000  0.00  0.00     0.163 C 
HETATM    9  O   UNK N   1      29.518 -10.072   0.000  0.00  0.00    -0.648 OA
BRANCH   8  10
HETATM   10  O   UNK N   1      30.624 -11.998   0.000  0.00  0.00    -0.775 OA
HETATM   11  H   UNK N   1      30.598 -12.935   0.000  0.00  0.00     0.167 HD
ENDBRANCH   8  10
ENDBRANCH   1   8
TORSDOF 5
