REMARK  8 active torsions:
REMARK  status: ('A' for Active; 'I' for Inactive)
REMARK    1  A    between atoms: C_3  and  C_2 
REMARK    2  A    between atoms: C_4  and  C_2 
REMARK    3  A    between atoms: C_5  and  C_3 
REMARK    4  A    between atoms: N_11  and  C_4 
REMARK    5  A    between atoms: C_6  and  C_5 
REMARK    6  A    between atoms: C_5  and  N_8 
REMARK    7  A    between atoms: O_17  and  C_6 
REMARK       I    between atoms: N_11  and  C_7 
REMARK       I    between atoms: N_12  and  C_7 
REMARK    8  A    between atoms: N_13  and  N_12 
ROOT
HETATM    1  C   UNK N   1       3.492   0.912   0.354  0.00  0.00     0.138 C 
ENDROOT
BRANCH   1   2
HETATM    2  C   UNK N   1       3.001  -0.244  -0.507  0.00  0.00     0.023 C 
BRANCH   2   3
HETATM    3  C   UNK N   1       1.555  -0.081  -0.969  0.00  0.00     0.036 C 
BRANCH   3   4
HETATM    4  C   UNK N   1       0.567   0.254   0.149  0.00  0.00     0.175 C 
BRANCH   4   5
HETATM    5  C   UNK N   1      -0.717  -0.533  -0.081  0.00  0.00     0.280 C 
HETATM    6  O   UNK N   1      -0.628  -1.750  -0.132  0.00  0.00    -0.263 OA
BRANCH   5   7
HETATM    7  O   UNK N   1      -1.956   0.018  -0.216  0.00  0.00    -0.325 OA
HETATM    8  C   UNK N   1      -2.274   1.347  -0.082  0.00  0.00     0.213 C 
ENDBRANCH   5   7
ENDBRANCH   4   5
BRANCH   4   9
HETATM    9  N   UNK N   1       0.384   1.696   0.183  0.00  0.00    -0.418 N 
HETATM   10  H   UNK N   1       1.196   2.313   0.207  0.00  0.00     0.150 HD
HETATM   11  H   UNK N   1      -0.556   2.091   0.183  0.00  0.00     0.150 HD
ENDBRANCH   4   9
ENDBRANCH   3   4
ENDBRANCH   2   3
ENDBRANCH   1   2
BRANCH   1  12
HETATM   12  N   UNK N   1       4.849   1.280   0.018  0.00  0.00    -0.225 N 
HETATM   13  C   UNK N   1       5.946   0.376   0.061  0.00  0.00     0.691 C 
HETATM   14  N   UNK N   1       5.748  -0.876   0.272  0.00  0.00    -0.233 N 
HETATM   15  N   UNK N   1       7.267   0.893  -0.082  0.00  0.00    -0.072 N 
HETATM   16  H   UNK N   1       4.842  -1.224   0.434  0.00  0.00     0.174 HD
ATOM     17  HN  UNK N   1       6.541  -1.517   0.272  1.00  0.00     0.174 HD
HETATM   18  H   UNK N   1       7.370   1.862  -0.217  0.00  0.00     0.212 HD
HETATM   19  H   UNK N   1       5.023   2.209  -0.257  0.00  0.00     0.177 HD
BRANCH  15  20
HETATM   20  N   UNK N   1       8.411   0.122  -0.043  0.00  0.00    -0.024 N 
HETATM   21  O   UNK N   1       9.477   0.652  -0.084  0.00  0.00    -0.516 OA
HETATM   22  O   UNK N   1       8.348  -1.070   0.026  0.00  0.00    -0.516 OA
ENDBRANCH  15  20
ENDBRANCH   1  12
TORSDOF 8
