REMARK  10 active torsions:
REMARK  status: ('A' for Active; 'I' for Inactive)
REMARK    1  A    between atoms: C_6  and  C_2 
REMARK    2  A    between atoms: C_4  and  C_3 
REMARK    3  A    between atoms: C_5  and  C_3 
REMARK    4  A    between atoms: C_10  and  C_4 
REMARK    5  A    between atoms: N_13  and  C_5 
REMARK    6  A    between atoms: N_16  and  C_6 
REMARK    7  A    between atoms: C_10  and  C_7 
REMARK    8  A    between atoms: C_11  and  C_7 
REMARK    9  A    between atoms: C_10  and  C_12 
REMARK   10  A    between atoms: O_18  and  C_12 
ROOT
HETATM    1  C   UNK N   1       3.523  -1.705  -0.144  0.00  0.00     0.089 C 
ENDROOT
BRANCH   1   2
HETATM    2  C   UNK N   1       4.945  -1.813   0.407  0.00  0.00     0.017 C 
BRANCH   2   3
HETATM    3  C   UNK N   1       5.984  -1.194  -0.520  0.00  0.00     0.020 C 
BRANCH   3   4
HETATM    4  C   UNK N   1       6.734  -0.087   0.198  0.00  0.00     0.111 C 
BRANCH   4   5
HETATM    5  N   UNK N   1       6.207   1.205  -0.203  0.00  0.00    -0.430 N 
HETATM    6  H   UNK N   1       6.808   1.979  -0.484  0.00  0.00     0.149 HD
HETATM    7  H   UNK N   1       5.196   1.343  -0.203  0.00  0.00     0.149 HD
ENDBRANCH   4   5
ENDBRANCH   3   4
ENDBRANCH   2   3
ENDBRANCH   1   2
BRANCH   1   8
HETATM    8  C   UNK N   1       2.582  -2.471   0.797  0.00  0.00     0.073 C 
BRANCH   8   9
HETATM    9  C   UNK N   1       1.153  -2.453   0.335  0.00  0.00     0.026 A 
HETATM   10  C   UNK N   1       0.421  -3.538  -0.103  0.00  0.00     0.116 A 
HETATM   11  N   UNK N   1      -0.793  -3.070  -0.442  0.00  0.00    -0.351 N 
HETATM   12  C   UNK N   1      -0.790  -1.742  -0.219  0.00  0.00     0.183 A 
HETATM   13  N   UNK N   1       0.400  -1.339   0.272  0.00  0.00    -0.354 N 
ATOM     14  HN  UNK N   1       0.671  -0.393   0.539  1.00  0.00     0.166 HD
BRANCH  11  15
HETATM   15  C   UNK N   1      -1.884  -3.837  -1.033  0.00  0.00     0.129 C 
BRANCH  15  16
HETATM   16  C   UNK N   1      -3.193  -3.598  -0.294  0.00  0.00     0.016 C 
HETATM   17  C   UNK N   1      -3.429  -4.680   0.738  0.00  0.00     0.006 C 
ENDBRANCH  15  16
ENDBRANCH  11  15
ENDBRANCH   8   9
ENDBRANCH   1   8
BRANCH   1  18
HETATM   18  C   UNK N   1       3.122  -0.256  -0.264  0.00  0.00     0.144 C 
HETATM   19  O   UNK N   1       2.772   0.194  -1.343  0.00  0.00    -0.650 OA
BRANCH  18  20
HETATM   20  O   UNK N   1       3.141   0.546   0.819  0.00  0.00    -0.776 OA
HETATM   21  H   UNK N   1       3.631   0.813   1.572  0.00  0.00     0.167 HD
ENDBRANCH  18  20
ENDBRANCH   1  18
TORSDOF 10
