REMARK  17 active torsions:
REMARK  status: ('A' for Active; 'I' for Inactive)
REMARK    1  A    between atoms: C_1  and  C_3 
REMARK    2  A    between atoms: C_2  and  C_4 
REMARK    3  A    between atoms: C_3  and  C_5 
REMARK    4  A    between atoms: C_3  and  O_6 
REMARK    5  A    between atoms: C_5  and  C_8 
REMARK    6  A    between atoms: C_7  and  C_9 
REMARK    7  A    between atoms: C_8  and  C_10 
REMARK    8  A    between atoms: C_10  and  C_12 
REMARK    9  A    between atoms: C_11  and  C_13 
REMARK   10  A    between atoms: C_12  and  O_14 
REMARK   11  A    between atoms: C_13  and  C_16 
REMARK   12  A    between atoms: C_13  and  O_17 
REMARK   13  A    between atoms: C_16  and  C_18 
REMARK   14  A    between atoms: C_19  and  C_20 
REMARK   15  A    between atoms: C_20  and  C_21 
REMARK   16  A    between atoms: C_21  and  C_22 
REMARK   17  A    between atoms: C_22  and  C_23 
ROOT
HETATM    1  C   UNK N   1      -0.651   1.078   0.207  0.00  0.00    -0.000 C 
HETATM    2  C   UNK N   1      -1.915   1.076   0.614  0.00  0.00    -0.000 C 
ENDROOT
BRANCH   2   3
HETATM    3  C   UNK N   1      -3.071   0.991  -0.271  0.00  0.00    -0.002 C 
HETATM    4  C   UNK N   1      -4.244   0.815   0.328  0.00  0.00     0.005 C 
BRANCH   4   5
HETATM    5  C   UNK N   1      -5.487   0.489  -0.414  0.00  0.00     0.144 C 
BRANCH   5   6
HETATM    6  C   UNK N   1      -5.987  -0.846   0.123  0.00  0.00     0.062 C 
BRANCH   6   7
HETATM    7  C   UNK N   1      -5.543  -2.010  -0.718  0.00  0.00    -0.028 C 
HETATM    8  C   UNK N   1      -4.327  -2.580  -0.696  0.00  0.00    -0.031 C 
BRANCH   8   9
HETATM    9  C   UNK N   1      -3.189  -2.150   0.174  0.00  0.00     0.027 C 
BRANCH   9  10
HETATM   10  C   UNK N   1      -2.002  -3.047  -0.133  0.00  0.00     0.004 C 
BRANCH  10  11
HETATM   11  C   UNK N   1      -0.696  -2.406   0.295  0.00  0.00    -0.000 C 
BRANCH  11  12
HETATM   12  C   UNK N   1       0.450  -3.315  -0.110  0.00  0.00    -0.005 C 
HETATM   13  C   UNK N   1       1.776  -2.636   0.161  0.00  0.00     0.005 C 
ENDBRANCH  11  12
ENDBRANCH  10  11
ENDBRANCH   9  10
ENDBRANCH   8   9
ENDBRANCH   6   7
ENDBRANCH   5   6
BRANCH   5  14
HETATM   14  O   UNK N   1      -6.441   1.470  -0.145  0.00  0.00    -0.391 OA
HETATM   15  H   UNK N   1      -6.181   2.386   0.042  0.00  0.00     0.210 HD
ENDBRANCH   5  14
ENDBRANCH   4   5
ENDBRANCH   2   3
BRANCH   1  16
HETATM   16  C   UNK N   1       0.347   0.949   1.273  0.00  0.00    -0.002 C 
HETATM   17  C   UNK N   1       1.672   0.962   1.131  0.00  0.00     0.004 C 
BRANCH  17  18
HETATM   18  C   UNK N   1       2.426   1.228  -0.127  0.00  0.00     0.141 C 
BRANCH  18  19
HETATM   19  C   UNK N   1       3.848   0.771   0.170  0.00  0.00     0.036 C 
BRANCH  19  20
HETATM   20  C   UNK N   1       4.883   1.241  -0.833  0.00  0.00     0.013 C 
BRANCH  20  21
HETATM   21  C   UNK N   1       6.195   0.533  -0.517  0.00  0.00     0.110 C 
BRANCH  21  22
HETATM   22  C   UNK N   1       7.323   1.455  -0.155  0.00  0.00     0.139 C 
HETATM   23  O   UNK N   1       7.172   2.668  -0.153  0.00  0.00    -0.650 OA
BRANCH  22  24
HETATM   24  O   UNK N   1       8.521   0.934   0.169  0.00  0.00    -0.776 OA
HETATM   25  H   UNK N   1       8.624   0.030   0.394  0.00  0.00     0.167 HD
ENDBRANCH  22  24
ENDBRANCH  21  22
ENDBRANCH  20  21
ENDBRANCH  19  20
ENDBRANCH  18  19
BRANCH  18  26
HETATM   26  O   UNK N   1       2.405   2.604  -0.371  0.00  0.00    -0.392 OA
HETATM   27  H   UNK N   1       3.225   3.094  -0.540  0.00  0.00     0.210 HD
ENDBRANCH  18  26
ENDBRANCH  17  18
ENDBRANCH   1  16
TORSDOF 17
