REMARK  5 active torsions:
REMARK  status: ('A' for Active; 'I' for Inactive)
REMARK    1  A    between atoms: C_2  and  N_3 
REMARK    2  A    between atoms: N_3  and  C_4 
REMARK    3  A    between atoms: C_10  and  N_11 
REMARK       I    between atoms: N_14  and  C_17 
REMARK    4  A    between atoms: C_17  and  C_19 
REMARK    5  A    between atoms: C_23  and  O_28 
ROOT
HETATM    1  N   UNK N   1      -2.387  -3.182   0.409  0.00  0.00    -0.362 N 
HETATM    2  C   UNK N   1      -3.255  -2.026   0.634  0.00  0.00     0.144 C 
HETATM    3  C   UNK N   1      -2.885  -0.847  -0.309  0.00  0.00     0.146 C 
HETATM    4  N   UNK N   1      -1.441  -0.773  -0.445  0.00  0.00    -0.344 N 
HETATM    5  C   UNK N   1      -0.774  -1.987  -0.830  0.00  0.00     0.146 C 
HETATM    6  C   UNK N   1      -0.974  -2.941   0.308  0.00  0.00     0.144 C 
HETATM    7  C   UNK N   1      -0.721   0.354  -0.139  0.00  0.00     0.270 C 
HETATM    8  O   UNK N   1      -1.305   1.391   0.152  0.00  0.00    -0.266 OA
ENDROOT
BRANCH   7   9
HETATM    9  C   UNK N   1       0.777   0.332  -0.116  0.00  0.00     0.102 A 
HETATM   10  C   UNK N   1       1.630   1.426   0.063  0.00  0.00     0.049 A 
HETATM   11  C   UNK N   1       2.903   0.876   0.037  0.00  0.00    -0.004 A 
HETATM   12  C   UNK N   1       4.161   1.466   0.146  0.00  0.00     0.050 A 
HETATM   13  C   UNK N   1       2.771  -0.470  -0.131  0.00  0.00     0.043 A 
HETATM   14  C   UNK N   1       5.302   0.620   0.079  0.00  0.00     0.069 A 
HETATM   15  C   UNK N   1       5.136  -0.773  -0.081  0.00  0.00     0.039 A 
HETATM   16  C   UNK N   1       3.857  -1.332  -0.190  0.00  0.00     0.033 A 
HETATM   17  N   UNK N   1       1.491  -0.815  -0.227  0.00  0.00    -0.351 N 
HETATM   18  H   UNK N   1       1.133  -1.724  -0.353  0.00  0.00     0.166 HD
BRANCH  14  19
HETATM   19  O   UNK N   1       6.559   1.113   0.157  0.00  0.00    -0.356 OA
HETATM   20  C   UNK N   1       6.836   2.456   0.264  0.00  0.00     0.210 C 
ENDBRANCH  14  19
ENDBRANCH   7   9
BRANCH   1  21
HETATM   21  C   UNK N   1      -2.920  -4.503   0.231  0.00  0.00     0.130 A 
HETATM   22  N   UNK N   1      -4.273  -4.677   0.244  0.00  0.00    -0.351 N 
HETATM   23  C   UNK N   1      -4.850  -5.897   0.082  0.00  0.00     0.090 A 
ATOM     24  HN  UNK N   1      -4.872  -3.863   0.381  1.00  0.00     0.166 HD
HETATM   25  C   UNK N   1      -4.061  -7.030  -0.104  0.00  0.00     0.019 A 
HETATM   26  C   UNK N   1      -2.677  -6.902  -0.120  0.00  0.00     0.034 A 
HETATM   27  C   UNK N   1      -2.081  -5.647   0.045  0.00  0.00     0.072 A 
BRANCH  27  28
HETATM   28  N   UNK N   1      -0.664  -5.535   0.037  0.00  0.00    -0.387 N 
HETATM   29  H   UNK N   1      -0.269  -4.641   0.153  0.00  0.00     0.159 HD
BRANCH  28  30
HETATM   30  C   UNK N   1       0.227  -6.653  -0.130  0.00  0.00     0.115 C 
HETATM   31  C   UNK N   1       1.658  -6.155  -0.070  0.00  0.00     0.026 C 
ENDBRANCH  28  30
ENDBRANCH  27  28
ENDBRANCH   1  21
TORSDOF 5
