REMARK  2 active torsions:
REMARK  status: ('A' for Active; 'I' for Inactive)
REMARK    1  A    between atoms: S_17  and  C_8 
REMARK    2  A    between atoms: S_17  and  C_12 
ROOT
HETATM    1  C   UNK N   1       2.222   5.648   0.654  0.00  0.00     0.051 A 
HETATM    2  C   UNK N   1      -0.149   6.826  -0.218  0.00  0.00     0.046 A 
HETATM    3  C   UNK N   1       2.266   6.849  -0.060  0.00  0.00     0.057 A 
HETATM    4  C   UNK N   1       1.072   7.442  -0.496  0.00  0.00     0.057 A 
HETATM    5  C   UNK N   1       0.999   5.033   0.943  0.00  0.00     0.052 A 
HETATM    6  C   UNK N   1      -0.204   5.624   0.496  0.00  0.00     0.029 A 
HETATM    7 Cl   UNK N   1       3.825   7.596  -0.376  0.00  0.00    -0.082 Cl
HETATM    8 Cl   UNK N   1       1.076   8.966  -1.371  0.00  0.00    -0.083 Cl
HETATM    9 Cl   UNK N   1       1.025   3.552   1.887  0.00  0.00    -0.083 Cl
ENDROOT
BRANCH   6  10
HETATM   10  S   UNK N   1      -1.841   4.964   0.881  0.00  0.00    -0.089 SA
BRANCH  10  11
HETATM   11  C   UNK N   1      -1.669   3.273   0.298  0.00  0.00     0.005 A 
HETATM   12  C   UNK N   1      -1.060   2.969  -0.927  0.00  0.00     0.020 A 
HETATM   13  C   UNK N   1      -0.964   1.636  -1.347  0.00  0.00     0.025 A 
HETATM   14  C   UNK N   1      -1.486   0.610  -0.551  0.00  0.00     0.034 A 
HETATM   15  C   UNK N   1      -2.102   0.915   0.664  0.00  0.00     0.025 A 
HETATM   16 Cl   UNK N   1      -1.374  -1.057  -1.073  0.00  0.00    -0.084 Cl
HETATM   17  C   UNK N   1      -2.193   2.242   1.086  0.00  0.00     0.020 A 
ENDBRANCH  10  11
ENDBRANCH   6  10
TORSDOF 2
