REMARK  11 active torsions:
REMARK  status: ('A' for Active; 'I' for Inactive)
REMARK    1  A    between atoms: C_2  and  N_5 
REMARK       I    between atoms: N_5  and  C_6 
REMARK    2  A    between atoms: C_6  and  C_8 
REMARK    3  A    between atoms: C_11  and  O_28 
REMARK    4  A    between atoms: C_12  and  N_14 
REMARK    5  A    between atoms: N_14  and  S_15 
REMARK    6  A    between atoms: S_15  and  C_18 
REMARK    7  A    between atoms: C_21  and  C_25 
REMARK    8  A    between atoms: O_28  and  C_29 
REMARK    9  A    between atoms: C_32  and  C_36 
REMARK   10  A    between atoms: C_36  and  C_37 
REMARK   11  A    between atoms: C_37  and  O_39 
ROOT
HETATM    1  C   UNK N   1       4.366  -2.395  -0.299  0.00  0.00     0.034 A 
HETATM    2  C   UNK N   1       4.101  -1.032  -0.120  0.00  0.00     0.020 A 
HETATM    3  C   UNK N   1       2.817  -0.535  -0.282  0.00  0.00     0.040 A 
HETATM    4  C   UNK N   1       1.745  -1.390  -0.596  0.00  0.00     0.103 A 
HETATM    5  C   UNK N   1       2.014  -2.720  -0.885  0.00  0.00     0.077 A 
HETATM    6  C   UNK N   1       3.319  -3.221  -0.736  0.00  0.00     0.050 A 
ENDROOT
BRANCH   5   7
HETATM    7  N   UNK N   1       0.983  -3.563  -1.322  0.00  0.00    -0.278 N 
HETATM    8  H   UNK N   1       1.006  -3.901  -2.246  0.00  0.00     0.179 HD
BRANCH   7   9
HETATM    9  S   UNK N   1      -0.343  -4.037  -0.287  0.00  0.00     0.265 S 
HETATM   10  O   UNK N   1      -1.517  -3.045  -0.276  0.00  0.00    -0.200 OA
HETATM   11  O   UNK N   1      -0.958  -4.711  -1.520  0.00  0.00    -0.200 OA
BRANCH   9  12
HETATM   12  C   UNK N   1      -0.191  -5.650   0.441  0.00  0.00     0.101 A 
HETATM   13  C   UNK N   1       1.113  -6.052   0.718  0.00  0.00     0.027 A 
HETATM   14  C   UNK N   1       1.397  -7.376   0.999  0.00  0.00     0.009 A 
HETATM   15  C   UNK N   1       0.376  -8.325   0.974  0.00  0.00    -0.052 A 
HETATM   16  C   UNK N   1      -0.956  -7.917   0.786  0.00  0.00     0.033 A 
HETATM   17  C   UNK N   1      -1.252  -6.574   0.533  0.00  0.00     0.057 A 
HETATM   18 Cl   UNK N   1      -2.920  -6.121   0.204  0.00  0.00    -0.083 Cl
BRANCH  15  19
HETATM   19  C   UNK N   1       0.729  -9.774   1.041  0.00  0.00     0.018 A 
HETATM   20  C   UNK N   1       1.762 -10.100  -0.037  0.00  0.00     0.010 A 
HETATM   21  C   UNK N   1       0.313 -10.443  -0.266  0.00  0.00     0.010 A 
ENDBRANCH  15  19
ENDBRANCH   9  12
ENDBRANCH   7   9
ENDBRANCH   5   7
BRANCH   4  22
HETATM   22  O   UNK N   1       0.459  -0.936  -0.629  0.00  0.00    -0.307 OA
BRANCH  22  23
HETATM   23  C   UNK N   1       0.127   0.282  -0.146  0.00  0.00     0.100 C 
HETATM   24  C   UNK N   1      -0.598   1.140  -0.971  0.00  0.00     0.081 C 
HETATM   25  C   UNK N   1      -0.733   2.482  -0.631  0.00  0.00     0.126 C 
HETATM   26  C   UNK N   1      -0.105   2.966   0.522  0.00  0.00    -0.008 C 
HETATM   27  F   UNK N   1      -1.347   3.329  -1.493  0.00  0.00    -0.205 F 
HETATM   28  C   UNK N   1       0.507   2.089   1.416  0.00  0.00     0.037 C 
HETATM   29  C   UNK N   1       0.594   0.739   1.116  0.00  0.00     0.068 C 
HETATM   30 Cl   UNK N   1       1.379  -0.314   2.297  0.00  0.00    -0.081 Cl
BRANCH  26  31
HETATM   31  C   UNK N   1       0.105   4.424   0.685  0.00  0.00     0.151 C 
BRANCH  31  32
HETATM   32  C   UNK N   1       1.516   4.681   0.213  0.00  0.00     0.143 C 
HETATM   33  O   UNK N   1       2.329   5.197   0.960  0.00  0.00    -0.650 OA
BRANCH  32  34
HETATM   34  O   UNK N   1       1.906   4.266  -1.012  0.00  0.00    -0.776 OA
HETATM   35  H   UNK N   1       1.793   3.888  -1.862  0.00  0.00     0.167 HD
ENDBRANCH  32  34
ENDBRANCH  31  32
ENDBRANCH  26  31
ENDBRANCH  22  23
ENDBRANCH   4  22
BRANCH   1  36
HETATM   36  C   UNK N   1       5.740  -2.874   0.075  0.00  0.00     0.252 C 
HETATM   37  N   UNK N   1       6.175  -4.171  -0.009  0.00  0.00    -0.349 N 
HETATM   38  H   UNK N   1       7.092  -4.318   0.317  0.00  0.00     0.163 HD
HETATM   39  O   UNK N   1       6.519  -2.055   0.524  0.00  0.00    -0.268 OA
BRANCH  37  40
HETATM   40  C   UNK N   1       5.513  -5.360  -0.497  0.00  0.00     0.022 C 
HETATM   41  C   UNK N   1       5.165  -5.217  -1.968  0.00  0.00     0.037 C 
HETATM   42  C   UNK N   1       6.483  -6.514  -0.365  0.00  0.00     0.037 C 
HETATM   43  C   UNK N   1       4.297  -5.711   0.338  0.00  0.00     0.037 C 
ENDBRANCH  37  40
ENDBRANCH   1  36
TORSDOF 11
