REMARK  9 active torsions:
REMARK  status: ('A' for Active; 'I' for Inactive)
REMARK    1  A    between atoms: O_2  and  C_3 
REMARK    2  A    between atoms: C_5  and  C_21 
REMARK    3  A    between atoms: C_8  and  O_9 
REMARK    4  A    between atoms: O_9  and  C_10 
REMARK    5  A    between atoms: C_14  and  C_18 
REMARK       I    between atoms: C_18  and  N_20 
REMARK    6  A    between atoms: C_21  and  N_22 
REMARK    7  A    between atoms: N_22  and  C_23 
REMARK    8  A    between atoms: C_23  and  C_24 
REMARK    9  A    between atoms: C_24  and  C_25 
ROOT
HETATM    1  C   UNK N   1      -0.747  -0.724  -0.205  0.00  0.00     0.102 A 
HETATM    2  C   UNK N   1       0.423  -1.482  -0.323  0.00  0.00     0.048 A 
HETATM    3  C   UNK N   1       0.441  -2.845   0.008  0.00  0.00    -0.038 A 
HETATM    4  C   UNK N   1      -0.705  -3.460   0.482  0.00  0.00     0.012 A 
HETATM    5  C   UNK N   1      -1.878  -2.733   0.580  0.00  0.00     0.041 A 
HETATM    6  C   UNK N   1      -1.938  -1.373   0.213  0.00  0.00     0.111 A 
ENDROOT
BRANCH   6   7
HETATM    7  O   UNK N   1      -3.135  -0.717   0.247  0.00  0.00    -0.290 OA
BRANCH   7   8
HETATM    8  C   UNK N   1      -4.336  -1.346   0.107  0.00  0.00     0.163 A 
HETATM    9  C   UNK N   1      -4.426  -2.605  -0.509  0.00  0.00     0.145 A 
HETATM   10  N   UNK N   1      -5.609  -3.252  -0.572  0.00  0.00    -0.356 N 
HETATM   11  C   UNK N   1      -6.736  -2.695  -0.060  0.00  0.00     0.116 A 
ATOM     12  HN  UNK N   1      -5.656  -4.172  -1.011  1.00  0.00     0.165 HD
HETATM   13  C   UNK N   1      -6.669  -1.413   0.506  0.00  0.00     0.125 A 
HETATM   14  N   UNK N   1      -5.473  -0.763   0.575  0.00  0.00    -0.343 N 
ATOM     15  HN  UNK N   1      -5.430   0.172   0.981  1.00  0.00     0.167 HD
BRANCH  11  16
HETATM   16  C   UNK N   1      -7.988  -3.467  -0.081  0.00  0.00     0.267 C 
HETATM   17  O   UNK N   1      -9.015  -2.990   0.379  0.00  0.00    -0.266 OA
HETATM   18  N   UNK N   1      -8.000  -4.721  -0.576  0.00  0.00    -0.365 N 
HETATM   19  H   UNK N   1      -8.797  -5.171  -0.937  0.00  0.00     0.159 HD
HETATM   20  H   UNK N   1      -7.152  -5.221  -0.576  0.00  0.00     0.159 HD
ENDBRANCH  11  16
ENDBRANCH   7   8
ENDBRANCH   6   7
BRANCH   1  21
HETATM   21  O   UNK N   1      -0.677   0.594  -0.525  0.00  0.00    -0.353 OA
HETATM   22  C   UNK N   1      -1.682   1.512  -0.326  0.00  0.00     0.210 C 
ENDBRANCH   1  21
BRANCH   3  23
HETATM   23  C   UNK N   1       1.671  -3.660  -0.169  0.00  0.00     0.152 C 
BRANCH  23  24
HETATM   24  N   UNK N   1       2.804  -3.000   0.448  0.00  0.00    -0.417 N 
HETATM   25  H   UNK N   1       3.114  -3.073   1.417  0.00  0.00     0.153 HD
BRANCH  24  26
HETATM   26  C   UNK N   1       3.400  -2.212  -0.617  0.00  0.00     0.114 C 
BRANCH  26  27
HETATM   27  C   UNK N   1       4.749  -1.652  -0.204  0.00  0.00     0.024 C 
BRANCH  27  28
HETATM   28  C   UNK N   1       5.721  -2.696   0.340  0.00  0.00    -0.009 C 
HETATM   29  C   UNK N   1       7.141  -2.180   0.122  0.00  0.00     0.031 C 
HETATM   30  C   UNK N   1       8.134  -3.271   0.524  0.00  0.00     0.168 C 
HETATM   31  O   UNK N   1       7.915  -4.426  -0.248  0.00  0.00    -0.391 OA
HETATM   32  C   UNK N   1       6.694  -4.971   0.186  0.00  0.00     0.168 C 
HETATM   33  C   UNK N   1       5.559  -4.080  -0.302  0.00  0.00     0.031 C 
ENDBRANCH  27  28
ENDBRANCH  26  27
ENDBRANCH  24  26
ENDBRANCH  23  24
ENDBRANCH   3  23
TORSDOF 9
