REMARK  7 active torsions:
REMARK  status: ('A' for Active; 'I' for Inactive)
REMARK       I    between atoms: N_2  and  C_3 
REMARK    1  A    between atoms: C_8  and  O_36 
REMARK    2  A    between atoms: C_9  and  O_34 
REMARK    3  A    between atoms: C_12  and  C_15 
REMARK    4  A    between atoms: C_19  and  N_21 
REMARK       I    between atoms: N_21  and  C_22 
REMARK    5  A    between atoms: C_22  and  C_24 
REMARK    6  A    between atoms: C_27  and  C_30 
REMARK    7  A    between atoms: C_30  and  O_32 
ROOT
HETATM    1  C   UNK N   1       2.114  -2.438   0.232  0.00  0.00    -0.006 A 
HETATM    2  C   UNK N   1       3.317  -3.042   0.646  0.00  0.00     0.014 A 
HETATM    3  C   UNK N   1       3.449  -4.430   0.693  0.00  0.00     0.003 A 
HETATM    4  C   UNK N   1       2.380  -5.236   0.314  0.00  0.00     0.029 A 
HETATM    5  C   UNK N   1       1.184  -4.646  -0.114  0.00  0.00     0.035 A 
HETATM    6  C   UNK N   1       1.053  -3.259  -0.131  0.00  0.00     0.043 A 
ENDROOT
BRANCH   1   7
HETATM    7  C   UNK N   1       1.949  -0.956   0.166  0.00  0.00     0.072 A 
HETATM    8  C   UNK N   1       3.051  -0.085   0.104  0.00  0.00     0.022 A 
HETATM    9  C   UNK N   1       4.360  -0.563   0.063  0.00  0.00     0.055 A 
HETATM   10  C   UNK N   1       2.823   1.298   0.032  0.00  0.00     0.064 A 
HETATM   11  C   UNK N   1       5.450   0.296  -0.043  0.00  0.00     0.102 A 
HETATM   12  C   UNK N   1       5.230   1.679  -0.102  0.00  0.00     0.103 A 
HETATM   13  C   UNK N   1       3.908   2.177  -0.063  0.00  0.00     0.070 A 
HETATM   14  N   UNK N   1       1.551   1.773   0.032  0.00  0.00    -0.191 N 
HETATM   15  C   UNK N   1       0.489   0.926   0.081  0.00  0.00     0.678 A 
ATOM     16  HN  UNK N   1       1.391   2.780  -0.007  1.00  0.00     0.184 HD
HETATM   17  N   UNK N   1      -0.824   1.458   0.072  0.00  0.00    -0.230 N 
HETATM   18  N   UNK N   1       0.692  -0.422   0.137  0.00  0.00    -0.190 N 
HETATM   19  C   UNK N   1      -1.988   0.613   0.128  0.00  0.00     0.165 C 
HETATM   20  H   UNK N   1      -0.944   2.435   0.026  0.00  0.00     0.177 HD
ATOM     21  HN  UNK N   1      -0.115  -1.046   0.156  1.00  0.00     0.184 HD
BRANCH  11  22
HETATM   22  O   UNK N   1       6.712  -0.195  -0.100  0.00  0.00    -0.353 OA
HETATM   23  C   UNK N   1       6.993  -1.546  -0.087  0.00  0.00     0.210 C 
ENDBRANCH  11  22
BRANCH  12  24
HETATM   24  O   UNK N   1       6.295   2.507  -0.207  0.00  0.00    -0.353 OA
HETATM   25  C   UNK N   1       6.183   3.875  -0.283  0.00  0.00     0.210 C 
ENDBRANCH  12  24
ENDBRANCH   1   7
BRANCH   5  26
HETATM   26  N   UNK N   1       0.038  -5.400  -0.419  0.00  0.00    -0.323 N 
HETATM   27  C   UNK N   1      -0.130  -6.741  -0.333  0.00  0.00     0.256 C 
HETATM   28  O   UNK N   1       0.803  -7.491  -0.080  0.00  0.00    -0.267 OA
HETATM   29  H   UNK N   1      -0.741  -4.889  -0.737  0.00  0.00     0.169 HD
BRANCH  27  30
HETATM   30  C   UNK N   1      -1.510  -7.230  -0.372  0.00  0.00     0.032 A 
HETATM   31  C   UNK N   1      -1.846  -8.542  -0.020  0.00  0.00     0.018 A 
HETATM   32  C   UNK N   1      -3.195  -8.892   0.125  0.00  0.00     0.018 A 
HETATM   33  C   UNK N   1      -4.209  -7.933  -0.069  0.00  0.00     0.039 A 
HETATM   34  C   UNK N   1      -3.852  -6.643  -0.460  0.00  0.00     0.018 A 
HETATM   35  C   UNK N   1      -2.522  -6.295  -0.604  0.00  0.00     0.018 A 
BRANCH  33  36
HETATM   36  C   UNK N   1      -5.635  -8.291   0.177  0.00  0.00     0.292 C 
HETATM   37  O   UNK N   1      -5.900  -9.443   0.481  0.00  0.00    -0.259 OA
BRANCH  36  38
HETATM   38  O   UNK N   1      -6.663  -7.395   0.111  0.00  0.00    -0.323 OA
HETATM   39  C   UNK N   1      -6.549  -6.040  -0.108  0.00  0.00     0.213 C 
ENDBRANCH  36  38
ENDBRANCH  33  36
ENDBRANCH  27  30
ENDBRANCH   5  26
TORSDOF 7
