REMARK  5 active torsions:
REMARK  status: ('A' for Active; 'I' for Inactive)
REMARK    1  A    between atoms: N_37  and  C_17 
REMARK    2  A    between atoms: C_25  and  C_20 
REMARK    3  A    between atoms: C_26  and  C_21 
REMARK    4  A    between atoms: C_23  and  C_22 
REMARK    5  A    between atoms: N_39  and  C_24 
REMARK       I    between atoms: N_37  and  C_25 
ROOT
HETATM    1  C   UNK N   1       1.826  -3.917  -1.342  0.00  0.00     0.045 C 
HETATM    2  C   UNK N   1      -0.334  -4.070   0.141  0.00  0.00     0.045 C 
HETATM    3  C   UNK N   1       2.510  -3.267  -0.140  0.00  0.00     0.126 C 
HETATM    4  C   UNK N   1       0.443  -3.289   1.196  0.00  0.00     0.126 C 
HETATM    5  C   UNK N   1       0.556  -4.697  -0.940  0.00  0.00     0.090 C 
HETATM    6  N   UNK N   1       1.502  -2.528   0.570  0.00  0.00    -0.365 N 
ENDROOT
BRANCH   6   7
HETATM    7  C   UNK N   1       1.492  -1.104   0.447  0.00  0.00     0.129 A 
HETATM    8  C   UNK N   1       0.303  -0.345   0.399  0.00  0.00     0.022 A 
HETATM    9  C   UNK N   1      -0.958  -0.958   0.485  0.00  0.00     0.016 A 
HETATM   10  C   UNK N   1       0.383   1.057   0.184  0.00  0.00     0.008 A 
HETATM   11  C   UNK N   1      -2.128  -0.217   0.362  0.00  0.00     0.001 A 
HETATM   12  C   UNK N   1      -2.053   1.153   0.142  0.00  0.00     0.001 A 
HETATM   13  C   UNK N   1      -0.808   1.775   0.055  0.00  0.00     0.015 A 
HETATM   14  C   UNK N   1       1.663   1.667   0.057  0.00  0.00     0.087 A 
HETATM   15  N   UNK N   1       2.753   0.852   0.100  0.00  0.00    -0.296 N 
HETATM   16  N   UNK N   1       2.674  -0.464   0.270  0.00  0.00    -0.284 N 
ATOM     17  HN  UNK N   1       3.677   1.272  -0.003  1.00  0.00     0.187 HD
ATOM     18  HN  UNK N   1       3.534  -1.013   0.266  1.00  0.00     0.188 HD
BRANCH  14  19
HETATM   19  C   UNK N   1       1.963   3.130  -0.165  0.00  0.00     0.080 A 
HETATM   20  C   UNK N   1       3.242   3.540  -0.513  0.00  0.00     0.052 A 
HETATM   21  C   UNK N   1       3.171   4.915  -0.622  0.00  0.00     0.110 A 
HETATM   22  N   UNK N   1       1.917   5.307  -0.339  0.00  0.00    -0.310 N 
HETATM   23  N   UNK N   1       1.186   4.242  -0.063  0.00  0.00    -0.295 N 
ATOM     24  HN  UNK N   1       1.583   6.271  -0.339  1.00  0.00     0.186 HD
HETATM   25  C   UNK N   1      -0.199   4.394   0.338  0.00  0.00     0.178 C 
ENDBRANCH  14  19
ENDBRANCH   6   7
BRANCH   5  26
HETATM   26  N   UNK N   1       0.758  -6.127  -0.809  0.00  0.00    -0.347 N 
HETATM   27  C   UNK N   1       0.029  -6.954  -1.738  0.00  0.00     0.153 C 
HETATM   28  C   UNK N   1       1.715  -6.649   0.030  0.00  0.00     0.254 C 
HETATM   29  O   UNK N   1       2.354  -5.896   0.746  0.00  0.00    -0.267 OA
BRANCH  28  30
HETATM   30  C   UNK N   1       2.058  -8.111   0.044  0.00  0.00     0.047 A 
HETATM   31  C   UNK N   1       1.050  -9.061  -0.190  0.00  0.00     0.021 A 
HETATM   32  C   UNK N   1       1.333 -10.424  -0.228  0.00  0.00     0.043 A 
HETATM   33  C   UNK N   1       2.638 -10.867  -0.045  0.00  0.00     0.117 A 
HETATM   34  C   UNK N   1       3.661  -9.948   0.179  0.00  0.00     0.059 A 
HETATM   35  F   UNK N   1       2.918 -12.190  -0.102  0.00  0.00    -0.206 F 
HETATM   36  C   UNK N   1       3.398  -8.570   0.237  0.00  0.00     0.066 A 
BRANCH  36  37
HETATM   37  C   UNK N   1       4.574  -7.628   0.416  0.00  0.00     0.418 C 
HETATM   38  F   UNK N   1       4.610  -6.722  -0.630  0.00  0.00    -0.166 F 
HETATM   39  F   UNK N   1       4.478  -6.952   1.618  0.00  0.00    -0.166 F 
HETATM   40  F   UNK N   1       5.771  -8.323   0.417  0.00  0.00    -0.166 F 
ENDBRANCH  36  37
ENDBRANCH  28  30
ENDBRANCH   5  26
TORSDOF 5
