REMARK  8 active torsions:
REMARK  status: ('A' for Active; 'I' for Inactive)
REMARK    1  A    between atoms: O_2  and  C_3 
REMARK    2  A    between atoms: C_6  and  C_9 
REMARK    3  A    between atoms: C_10  and  O_11 
REMARK    4  A    between atoms: C_15  and  O_16 
REMARK    5  A    between atoms: C_18  and  O_19 
REMARK    6  A    between atoms: C_20  and  C_21 
REMARK    7  A    between atoms: C_21  and  C_22 
REMARK    8  A    between atoms: C_22  and  C_23 
ROOT
HETATM    1  C   UNK N   1       0.245  -0.778  -0.001  0.00  0.00     0.123 A 
HETATM    2  C   UNK N   1       0.189   0.632  -0.003  0.00  0.00     0.152 A 
HETATM    3  C   UNK N   1       1.392   1.362  -0.002  0.00  0.00     0.223 A 
HETATM    4  O   UNK N   1       1.359   2.580  -0.003  0.00  0.00    -0.284 OA
HETATM    5  C   UNK N   1       2.626   0.667  -0.000  0.00  0.00     0.085 A 
HETATM    6  C   UNK N   1       3.886   1.310   0.001  0.00  0.00     0.085 A 
HETATM    7  C   UNK N   1       5.058   0.542   0.003  0.00  0.00     0.074 A 
HETATM    8  C   UNK N   1       5.004  -0.856   0.004  0.00  0.00     0.077 A 
HETATM    9  C   UNK N   1       3.754  -1.507   0.003  0.00  0.00     0.013 A 
HETATM   10  C   UNK N   1       2.584  -0.740   0.001  0.00  0.00     0.102 A 
HETATM   11  O   UNK N   1       1.424  -1.376   0.000  0.00  0.00    -0.305 OA
ENDROOT
BRANCH   1  12
HETATM   12  C   UNK N   1      -0.939  -1.672  -0.001  0.00  0.00     0.001 A 
HETATM   13  C   UNK N   1      -2.259  -1.200  -0.002  0.00  0.00     0.017 A 
HETATM   14  C   UNK N   1      -3.330  -2.105  -0.001  0.00  0.00     0.037 A 
HETATM   15  C   UNK N   1      -3.094  -3.486  -0.000  0.00  0.00     0.068 A 
HETATM   16  C   UNK N   1      -1.774  -3.957  -0.000  0.00  0.00     0.037 A 
HETATM   17  C   UNK N   1      -0.712  -3.057  -0.001  0.00  0.00     0.017 A 
BRANCH  15  18
HETATM   18  O   UNK N   1      -4.145  -4.340   0.001  0.00  0.00    -0.356 OA
HETATM   19  C   UNK N   1      -4.001  -5.710   0.002  0.00  0.00     0.210 C 
ENDBRANCH  15  18
ENDBRANCH   1  12
BRANCH   2  20
HETATM   20  O   UNK N   1      -0.990   1.283  -0.005  0.00  0.00    -0.355 OA
HETATM   21  H   UNK N   1      -1.008   2.220  -0.006  0.00  0.00     0.218 HD
ENDBRANCH   2  20
BRANCH   9  22
HETATM   22  C   UNK N   1       3.549  -3.004   0.004  0.00  0.00     0.072 C 
BRANCH  22  23
HETATM   23  C   UNK N   1       4.705  -3.948   0.001  0.00  0.00    -0.020 C 
BRANCH  23  24
HETATM   24  C   UNK N   1       4.484  -5.271  -0.001  0.00  0.00    -0.091 C 
HETATM   25  C   UNK N   1       5.636  -6.210  -0.004  0.00  0.00     0.042 C 
HETATM   26  C   UNK N   1       3.094  -5.836   0.000  0.00  0.00     0.042 C 
ENDBRANCH  23  24
ENDBRANCH  22  23
ENDBRANCH   9  22
BRANCH   6  27
HETATM   27  O   UNK N   1       3.986   2.651  -0.000  0.00  0.00    -0.360 OA
HETATM   28  H   UNK N   1       4.830   3.058  -0.001  0.00  0.00     0.217 HD
ENDBRANCH   6  27
BRANCH   8  29
HETATM   29  O   UNK N   1       6.152  -1.555   0.005  0.00  0.00    -0.360 OA
HETATM   30  H   UNK N   1       6.130  -2.492   0.007  0.00  0.00     0.217 HD
ENDBRANCH   8  29
TORSDOF 8
