REMARK  3 active torsions:
REMARK  status: ('A' for Active; 'I' for Inactive)
REMARK    1  A    between atoms: C_5  and  N_13 
REMARK    2  A    between atoms: N_13  and  S_14 
REMARK    3  A    between atoms: S_14  and  C_17 
ROOT
HETATM    1  C   UNK N   1       3.095   4.083   0.011  0.00  0.00     0.049 C 
HETATM    2  C   UNK N   1       3.121   2.609   0.143  0.00  0.00    -0.048 A 
HETATM    3  C   UNK N   1       4.362   1.937   0.185  0.00  0.00     0.010 A 
HETATM    4  C   UNK N   1       4.379   0.537   0.091  0.00  0.00     0.033 A 
HETATM    5  C   UNK N   1       3.148  -0.134   0.011  0.00  0.00     0.070 A 
HETATM    6  C   UNK N   1       1.997   0.511   0.094  0.00  0.00     0.072 A 
HETATM    7  C   UNK N   1       1.939   1.837   0.129  0.00  0.00     0.021 A 
HETATM    8  C   UNK N   1       0.606   2.122   0.053  0.00  0.00     0.073 A 
HETATM    9  C   UNK N   1      -0.093   0.927  -0.001  0.00  0.00     0.112 A 
HETATM   10  N   UNK N   1       0.788  -0.077   0.015  0.00  0.00    -0.362 N 
HETATM   11  C   UNK N   1       0.040   3.405  -0.025  0.00  0.00     0.102 C 
HETATM   12  N   UNK N   1      -0.398   4.467  -0.087  0.00  0.00    -0.191 NA
HETATM   13  H   UNK N   1       0.595  -1.041  -0.024  0.00  0.00     0.165 HD
ENDROOT
BRANCH   5  14
HETATM   14  N   UNK N   1       3.006  -1.395  -0.449  0.00  0.00    -0.278 N 
HETATM   15  H   UNK N   1       2.612  -1.549  -1.339  0.00  0.00     0.179 HD
BRANCH  14  16
HETATM   16  S   UNK N   1       3.484  -2.675   0.462  0.00  0.00     0.263 S 
HETATM   17  O   UNK N   1       2.567  -3.843   0.075  0.00  0.00    -0.200 OA
HETATM   18  O   UNK N   1       3.846  -2.866  -1.025  0.00  0.00    -0.200 OA
BRANCH  16  19
HETATM   19  C   UNK N   1       5.181  -2.964   0.385  0.00  0.00     0.081 A 
HETATM   20  C   UNK N   1       6.151  -1.953   0.253  0.00  0.00     0.025 A 
HETATM   21  C   UNK N   1       7.474  -2.330  -0.015  0.00  0.00     0.003 A 
HETATM   22  C   UNK N   1       7.788  -3.701  -0.151  0.00  0.00     0.023 A 
HETATM   23  C   UNK N   1       6.769  -4.657   0.035  0.00  0.00     0.046 A 
HETATM   24  C   UNK N   1       5.513  -4.270   0.301  0.00  0.00     0.048 A 
HETATM   25  C   UNK N   1       6.886  -6.063   0.011  0.00  0.00     0.099 C 
HETATM   26  N   UNK N   1       6.798  -7.214   0.028  0.00  0.00    -0.191 NA
ENDBRANCH  16  19
ENDBRANCH  14  16
ENDBRANCH   5  14
TORSDOF 3
