REMARK  7 active torsions:
REMARK  status: ('A' for Active; 'I' for Inactive)
REMARK    1  A    between atoms: C_2  and  C_4 
REMARK    2  A    between atoms: C_2  and  O_7 
REMARK    3  A    between atoms: C_4  and  O_6 
REMARK    4  A    between atoms: O_7  and  C_8 
REMARK    5  A    between atoms: C_8  and  C_9 
REMARK    6  A    between atoms: N_16  and  C_19 
REMARK    7  A    between atoms: C_19  and  C_20 
ROOT
HETATM    1  C   UNK N   1       1.646   0.297  -0.069  0.00  0.00     0.062 A 
HETATM    2  C   UNK N   1       2.901  -0.259  -0.161  0.00  0.00     0.018 A 
HETATM    3  C   UNK N   1       4.091   0.210  -0.707  0.00  0.00     0.016 A 
HETATM    4  C   UNK N   1       5.207  -0.646  -0.661  0.00  0.00     0.001 A 
HETATM    5  C   UNK N   1       5.097  -1.937  -0.089  0.00  0.00     0.002 A 
HETATM    6  C   UNK N   1       3.870  -2.383   0.443  0.00  0.00     0.032 A 
HETATM    7  C   UNK N   1       2.790  -1.503   0.390  0.00  0.00     0.063 A 
HETATM    8  N   UNK N   1       1.520  -1.687   0.799  0.00  0.00    -0.287 N 
HETATM    9  N   UNK N   1       0.821  -0.586   0.536  0.00  0.00    -0.299 N 
ATOM     10  HN  UNK N   1      -0.164  -0.434   0.752  1.00  0.00     0.187 HD
ENDROOT
BRANCH   1  11
HETATM   11  C   UNK N   1       1.214   1.590  -0.661  0.00  0.00     0.228 C 
BRANCH  11  12
HETATM   12  O   UNK N   1       0.775   2.515   0.304  0.00  0.00    -0.364 OA
BRANCH  12  13
HETATM   13  C   UNK N   1       0.762   3.809  -0.285  0.00  0.00     0.138 C 
HETATM   14  C   UNK N   1      -0.183   3.872  -1.488  0.00  0.00     0.057 C 
HETATM   15  C   UNK N   1       2.172   4.225  -0.731  0.00  0.00     0.057 C 
BRANCH  13  16
HETATM   16  C   UNK N   1       0.234   4.789   0.735  0.00  0.00     0.175 C 
HETATM   17  O   UNK N   1       0.907   5.741   1.101  0.00  0.00    -0.648 OA
BRANCH  16  18
HETATM   18  O   UNK N   1      -1.004   4.623   1.241  0.00  0.00    -0.774 OA
HETATM   19  H   UNK N   1      -1.534   5.311   1.594  0.00  0.00     0.167 HD
ENDBRANCH  16  18
ENDBRANCH  13  16
ENDBRANCH  12  13
ENDBRANCH  11  12
ENDBRANCH   1  11
BRANCH   8  20
HETATM   20  C   UNK N   1       0.946  -2.902   1.377  0.00  0.00     0.187 C 
BRANCH  20  21
HETATM   21  C   UNK N   1      -0.292  -3.366   0.643  0.00  0.00    -0.038 A 
HETATM   22  C   UNK N   1      -0.918  -4.553   1.041  0.00  0.00     0.009 A 
HETATM   23  C   UNK N   1      -2.092  -4.979   0.407  0.00  0.00     0.001 A 
HETATM   24  C   UNK N   1      -2.653  -4.215  -0.622  0.00  0.00     0.000 A 
HETATM   25  C   UNK N   1      -2.034  -3.032  -1.027  0.00  0.00     0.001 A 
HETATM   26  C   UNK N   1      -0.860  -2.613  -0.400  0.00  0.00     0.009 A 
ENDBRANCH  20  21
ENDBRANCH   8  20
TORSDOF 7
