REMARK  11 active torsions:
REMARK  status: ('A' for Active; 'I' for Inactive)
REMARK    1  A    between atoms: C_4  and  C_15 
REMARK    2  A    between atoms: C_6  and  C_7 
REMARK    3  A    between atoms: C_7  and  C_8 
REMARK    4  A    between atoms: C_8  and  C_9 
REMARK    5  A    between atoms: C_9  and  N_10 
REMARK    6  A    between atoms: N_10  and  C_11 
REMARK    7  A    between atoms: C_11  and  C_12 
REMARK    8  A    between atoms: C_12  and  C_13 
REMARK    9  A    between atoms: C_13  and  O_14 
REMARK       I    between atoms: C_15  and  N_17 
REMARK   10  A    between atoms: N_17  and  C_18 
REMARK   11  A    between atoms: C_18  and  C_19 
ROOT
HETATM    1  C   UNK N   1      -2.855  -5.668   0.236  0.00  0.00     0.009 A 
HETATM    2  C   UNK N   1      -2.818  -4.352  -0.217  0.00  0.00     0.025 A 
HETATM    3  C   UNK N   1      -1.615  -3.740  -0.606  0.00  0.00     0.049 A 
HETATM    4  C   UNK N   1      -0.381  -4.482  -0.517  0.00  0.00     0.054 A 
HETATM    5  C   UNK N   1      -0.479  -5.800  -0.033  0.00  0.00     0.026 A 
HETATM    6  C   UNK N   1      -1.672  -6.388   0.335  0.00  0.00    -0.057 A 
HETATM    7 Cl   UNK N   1      -1.838  -2.108  -1.192  0.00  0.00    -0.083 Cl
ENDROOT
BRANCH   4   8
HETATM    8  C   UNK N   1       1.054  -4.126  -0.893  0.00  0.00     0.253 C 
HETATM    9  O   UNK N   1       1.893  -4.991  -0.697  0.00  0.00    -0.268 OA
HETATM   10  N   UNK N   1       1.526  -2.968  -1.423  0.00  0.00    -0.356 N 
HETATM   11  H   UNK N   1       2.486  -2.991  -1.644  0.00  0.00     0.162 HD
BRANCH  10  12
HETATM   12  C   UNK N   1       0.892  -1.723  -1.721  0.00  0.00     0.132 C 
BRANCH  12  13
HETATM   13  C   UNK N   1       1.321  -0.690  -0.685  0.00  0.00    -0.023 C 
HETATM   14  C   UNK N   1       0.583  -0.974   0.636  0.00  0.00     0.015 C 
HETATM   15  C   UNK N   1       0.986   0.051   1.701  0.00  0.00    -0.013 C 
HETATM   16  C   UNK N   1       2.500  -0.050   1.935  0.00  0.00     0.009 C 
HETATM   17  C   UNK N   1       0.636   1.462   1.202  0.00  0.00     0.009 C 
HETATM   18  C   UNK N   1       3.259   0.252   0.631  0.00  0.00    -0.013 C 
HETATM   19  C   UNK N   1       2.846  -0.758  -0.445  0.00  0.00     0.015 C 
HETATM   20  C   UNK N   1       2.896   1.661   0.142  0.00  0.00     0.009 C 
HETATM   21  C   UNK N   1       1.381   1.758  -0.110  0.00  0.00    -0.013 C 
HETATM   22  C   UNK N   1       0.962   0.723  -1.170  0.00  0.00     0.015 C 
ENDBRANCH  12  13
ENDBRANCH  10  12
ENDBRANCH   4   8
BRANCH   6  23
HETATM   23  C   UNK N   1      -1.656  -7.826   0.709  0.00  0.00     0.040 C 
BRANCH  23  24
HETATM   24  C   UNK N   1      -2.358  -8.110   2.019  0.00  0.00     0.024 C 
BRANCH  24  25
HETATM   25  C   UNK N   1      -3.117  -9.421   1.875  0.00  0.00     0.114 C 
BRANCH  25  26
HETATM   26  N   UNK N   1      -4.321  -9.235   1.070  0.00  0.00    -0.421 N 
HETATM   27  H   UNK N   1      -5.256  -9.046   1.432  0.00  0.00     0.153 HD
BRANCH  26  28
HETATM   28  C   UNK N   1      -3.962  -9.365  -0.337  0.00  0.00     0.115 C 
BRANCH  28  29
HETATM   29  C   UNK N   1      -4.651 -10.560  -0.972  0.00  0.00     0.045 C 
BRANCH  29  30
HETATM   30  C   UNK N   1      -4.081 -11.864  -0.442  0.00  0.00     0.165 C 
BRANCH  30  31
HETATM   31  O   UNK N   1      -4.696 -12.189   0.767  0.00  0.00    -0.401 OA
HETATM   32  H   UNK N   1      -5.106 -11.932   1.607  0.00  0.00     0.209 HD
ENDBRANCH  30  31
ENDBRANCH  29  30
ENDBRANCH  28  29
ENDBRANCH  26  28
ENDBRANCH  25  26
ENDBRANCH  24  25
ENDBRANCH  23  24
ENDBRANCH   6  23
TORSDOF 11
