REMARK  7 active torsions:
REMARK  status: ('A' for Active; 'I' for Inactive)
REMARK    1  A    between atoms: C_9  and  C_5 
REMARK    2  A    between atoms: N_25  and  C_5 
REMARK    3  A    between atoms: C_9  and  C_6 
REMARK    4  A    between atoms: O_26  and  C_6 
REMARK    5  A    between atoms: C_9  and  O_27 
REMARK    6  A    between atoms: N_23  and  C_11 
REMARK    7  A    between atoms: N_23  and  C_14 
ROOT
HETATM    1  C   UNK N   1       0.590   4.171  -0.292  0.00  0.00     0.161 C 
HETATM    2  C   UNK N   1      -2.608   1.629   0.367  0.00  0.00     0.187 A 
HETATM    3  C   UNK N   1      -0.076   0.513   0.172  0.00  0.00     0.106 A 
HETATM    4  C   UNK N   1       2.307   0.841  -0.193  0.00  0.00     0.211 A 
HETATM    5  C   UNK N   1       1.226  -0.033   0.040  0.00  0.00     0.097 A 
HETATM    6  C   UNK N   1      -0.268   1.904   0.043  0.00  0.00     0.129 A 
HETATM    7  C   UNK N   1      -1.213  -0.288   0.438  0.00  0.00     0.265 A 
HETATM    8  C   UNK N   1       2.078   2.221  -0.285  0.00  0.00     0.289 A 
HETATM    9  F   UNK N   1       3.570   0.389  -0.363  0.00  0.00    -0.198 F 
HETATM   10  N   UNK N   1      -1.526   2.419   0.139  0.00  0.00    -0.337 N 
ATOM     11  HN  UNK N   1      -1.659   3.425   0.038  1.00  0.00     0.168 HD
HETATM   12  N   UNK N   1       0.801   2.729  -0.173  0.00  0.00    -0.301 N 
HETATM   13  N   UNK N   1      -2.463   0.286   0.514  0.00  0.00    -0.307 N 
HETATM   14  O   UNK N   1      -1.093  -1.487   0.632  0.00  0.00    -0.267 OA
HETATM   15  O   UNK N   1       3.022   2.970  -0.481  0.00  0.00    -0.264 OA
ENDROOT
BRANCH   5  16
HETATM   16  N   UNK N   1       1.354  -1.457   0.073  0.00  0.00    -0.350 N 
HETATM   17  H   UNK N   1       0.479  -1.908   0.046  0.00  0.00     0.166 HD
BRANCH  16  18
HETATM   18  C   UNK N   1       2.428  -2.382   0.134  0.00  0.00     0.071 A 
HETATM   19  C   UNK N   1       3.719  -2.031   0.544  0.00  0.00     0.034 A 
HETATM   20  C   UNK N   1       4.726  -3.002   0.607  0.00  0.00     0.020 A 
HETATM   21  C   UNK N   1       4.441  -4.329   0.269  0.00  0.00     0.009 A 
HETATM   22  C   UNK N   1       3.153  -4.686  -0.125  0.00  0.00     0.062 A 
HETATM   23  I   UNK N   1       5.941  -5.799   0.357  0.00  0.00    -0.044 I 
HETATM   24  C   UNK N   1       2.150  -3.720  -0.189  0.00  0.00     0.144 A 
HETATM   25  F   UNK N   1       0.899  -4.082  -0.569  0.00  0.00    -0.204 F 
ENDBRANCH  16  18
ENDBRANCH   5  16
BRANCH  13  26
HETATM   26  C   UNK N   1      -3.637  -0.524   0.858  0.00  0.00     0.166 C 
BRANCH  26  27
HETATM   27  C   UNK N   1      -4.112  -1.493  -0.239  0.00  0.00     0.160 C 
BRANCH  27  28
HETATM   28  C   UNK N   1      -4.945  -2.567   0.445  0.00  0.00     0.197 C 
BRANCH  28  29
HETATM   29  O   UNK N   1      -5.322  -3.557  -0.464  0.00  0.00    -0.398 OA
HETATM   30  H   UNK N   1      -6.049  -3.674  -1.095  0.00  0.00     0.209 HD
ENDBRANCH  28  29
ENDBRANCH  27  28
BRANCH  27  31
HETATM   31  O   UNK N   1      -3.048  -2.104  -0.906  0.00  0.00    -0.392 OA
HETATM   32  H   UNK N   1      -3.046  -2.956  -1.369  0.00  0.00     0.210 HD
ENDBRANCH  27  31
ENDBRANCH  26  27
ENDBRANCH  13  26
TORSDOF 7
