REMARK  12 active torsions:
REMARK  status: ('A' for Active; 'I' for Inactive)
REMARK    1  A    between atoms: C_2  and  C_3 
REMARK    2  A    between atoms: C_3  and  O_4 
REMARK    3  A    between atoms: O_4  and  C_5 
REMARK    4  A    between atoms: C_5  and  C_7 
REMARK    5  A    between atoms: C_7  and  C_8 
REMARK    6  A    between atoms: C_11  and  O_17 
REMARK    7  A    between atoms: C_12  and  O_14 
REMARK    8  A    between atoms: O_14  and  C_15 
REMARK    9  A    between atoms: O_17  and  C_18 
REMARK   10  A    between atoms: C_18  and  C_19 
REMARK       I    between atoms: C_19  and  N_21 
REMARK   11  A    between atoms: N_21  and  C_22 
REMARK   12  A    between atoms: N_21  and  C_24 
ROOT
HETATM    1  C   UNK N   1      -0.628   4.960  -0.213  0.00  0.00    -0.046 A 
HETATM    2  C   UNK N   1       0.675   5.012   0.281  0.00  0.00     0.010 A 
HETATM    3  C   UNK N   1       1.384   3.832   0.505  0.00  0.00     0.040 A 
HETATM    4  C   UNK N   1       0.803   2.582   0.258  0.00  0.00     0.102 A 
HETATM    5  C   UNK N   1      -0.549   2.523  -0.199  0.00  0.00     0.102 A 
HETATM    6  C   UNK N   1      -1.223   3.719  -0.456  0.00  0.00     0.047 A 
ENDROOT
BRANCH   4   7
HETATM    7  O   UNK N   1       1.581   1.494   0.455  0.00  0.00    -0.339 OA
BRANCH   7   8
HETATM    8  C   UNK N   1       1.702   0.467  -0.455  0.00  0.00     0.278 C 
BRANCH   8   9
HETATM    9  C   UNK N   1       2.904  -0.357  -0.093  0.00  0.00     0.243 C 
HETATM   10  O   UNK N   1       2.738  -1.523   0.228  0.00  0.00    -0.271 OA
HETATM   11  N   UNK N   1       4.158   0.189  -0.097  0.00  0.00    -0.351 N 
BRANCH  11  12
HETATM   12  C   UNK N   1       5.297  -0.605   0.323  0.00  0.00     0.121 C 
HETATM   13  C   UNK N   1       6.323  -0.718  -0.790  0.00  0.00     0.026 C 
ENDBRANCH  11  12
BRANCH  11  14
HETATM   14  C   UNK N   1       4.363   1.565  -0.504  0.00  0.00     0.121 C 
HETATM   15  C   UNK N   1       4.882   2.400   0.653  0.00  0.00     0.026 C 
ENDBRANCH  11  14
ENDBRANCH   8   9
ENDBRANCH   7   8
ENDBRANCH   4   7
BRANCH   5  16
HETATM   16  O   UNK N   1      -1.256   1.376  -0.365  0.00  0.00    -0.349 OA
BRANCH  16  17
HETATM   17  C   UNK N   1      -1.032   0.208   0.323  0.00  0.00     0.171 C 
HETATM   18  C   UNK N   1      -2.160  -0.762   0.045  0.00  0.00     0.034 C 
ENDBRANCH  16  17
ENDBRANCH   5  16
BRANCH   1  19
HETATM   19  C   UNK N   1      -1.373   6.238  -0.479  0.00  0.00     0.149 C 
BRANCH  19  20
HETATM   20  C   UNK N   1      -2.776   6.287   0.078  0.00  0.00     0.263 C 
HETATM   21  O   UNK N   1      -3.341   5.263   0.439  0.00  0.00    -0.265 OA
BRANCH  20  22
HETATM   22  O   UNK N   1      -3.425   7.475   0.123  0.00  0.00    -0.321 OA
BRANCH  22  23
HETATM   23  C   UNK N   1      -4.715   7.577   0.592  0.00  0.00     0.178 C 
BRANCH  23  24
HETATM   24  C   UNK N   1      -5.624   8.039  -0.527  0.00  0.00     0.022 C 
HETATM   25  C   UNK N   1      -7.067   7.824  -0.124  0.00  0.00     0.007 C 
ENDBRANCH  23  24
ENDBRANCH  22  23
ENDBRANCH  20  22
ENDBRANCH  19  20
ENDBRANCH   1  19
TORSDOF 12
