REMARK  8 active torsions:
REMARK  status: ('A' for Active; 'I' for Inactive)
REMARK    1  A    between atoms: C_2  and  C_3 
REMARK    2  A    between atoms: C_2  and  C_7 
REMARK    3  A    between atoms: C_2  and  O_11 
REMARK    4  A    between atoms: O_11  and  C_12 
REMARK    5  A    between atoms: C_12  and  C_14 
REMARK    6  A    between atoms: C_17  and  C_20 
REMARK    7  A    between atoms: C_20  and  C_21 
REMARK    8  A    between atoms: C_22  and  O_32 
ROOT
HETATM    1  C   UNK N   1      -2.610  -1.310   0.777  0.00  0.00     0.039 A 
HETATM    2  C   UNK N   1      -2.876  -0.382  -0.242  0.00  0.00     0.018 A 
HETATM    3  C   UNK N   1      -1.860   0.436  -0.753  0.00  0.00     0.008 A 
HETATM    4  C   UNK N   1      -0.578   0.376  -0.204  0.00  0.00    -0.054 A 
HETATM    5  C   UNK N   1      -0.330  -0.501   0.864  0.00  0.00     0.008 A 
HETATM    6  C   UNK N   1      -1.328  -1.338   1.336  0.00  0.00     0.018 A 
ENDROOT
BRANCH   4   7
HETATM    7  C   UNK N   1       0.571   1.073  -0.889  0.00  0.00     0.086 C 
BRANCH   7   8
HETATM    8  C   UNK N   1       1.811   0.213  -0.771  0.00  0.00     0.056 A 
HETATM    9  C   UNK N   1       2.951   0.714  -0.140  0.00  0.00     0.091 A 
HETATM   10  C   UNK N   1       4.033  -0.142   0.088  0.00  0.00     0.032 A 
HETATM   11  C   UNK N   1       5.186   0.299   0.748  0.00  0.00     0.017 A 
HETATM   12  C   UNK N   1       3.936  -1.489  -0.330  0.00  0.00     0.092 A 
HETATM   13  C   UNK N   1       6.231  -0.594   1.002  0.00  0.00     0.001 A 
HETATM   14  C   UNK N   1       6.126  -1.930   0.601  0.00  0.00     0.003 A 
HETATM   15  C   UNK N   1       4.984  -2.375  -0.068  0.00  0.00     0.038 A 
HETATM   16  O   UNK N   1       2.852  -1.921  -0.959  0.00  0.00    -0.274 OA
HETATM   17  C   UNK N   1       1.804  -1.138  -1.199  0.00  0.00     0.297 A 
HETATM   18  O   UNK N   1       0.827  -1.607  -1.753  0.00  0.00    -0.259 OA
BRANCH   9  19
HETATM   19  O   UNK N   1       2.996   1.997   0.269  0.00  0.00    -0.359 OA
HETATM   20  H   UNK N   1       3.784   2.416   0.554  0.00  0.00     0.217 HD
ENDBRANCH   9  19
ENDBRANCH   7   8
ENDBRANCH   4   7
BRANCH   1  21
HETATM   21  C   UNK N   1      -3.622  -2.260   1.323  0.00  0.00     0.294 C 
HETATM   22  O   UNK N   1      -3.239  -3.091   2.134  0.00  0.00    -0.259 OA
BRANCH  21  23
HETATM   23  O   UNK N   1      -4.961  -2.201   1.079  0.00  0.00    -0.288 OA
BRANCH  23  24
HETATM   24  C   UNK N   1      -5.737  -1.890  -0.031  0.00  0.00     0.260 C 
HETATM   25  C   UNK N   1      -4.958  -1.935  -1.346  0.00  0.00     0.066 C 
BRANCH  24  26
HETATM   26  C   UNK N   1      -6.381  -0.495   0.175  0.00  0.00     0.427 C 
HETATM   27  F   UNK N   1      -7.220  -0.180  -0.879  0.00  0.00    -0.167 F 
HETATM   28  F   UNK N   1      -7.112  -0.469   1.350  0.00  0.00    -0.167 F 
HETATM   29  F   UNK N   1      -5.415   0.488   0.261  0.00  0.00    -0.167 F 
ENDBRANCH  24  26
BRANCH  24  30
HETATM   30  C   UNK N   1      -6.818  -2.991  -0.108  0.00  0.00     0.427 C 
HETATM   31  F   UNK N   1      -7.531  -3.049   1.078  0.00  0.00    -0.167 F 
HETATM   32  F   UNK N   1      -7.702  -2.758  -1.148  0.00  0.00    -0.167 F 
HETATM   33  F   UNK N   1      -6.219  -4.225  -0.307  0.00  0.00    -0.167 F 
ENDBRANCH  24  30
ENDBRANCH  23  24
ENDBRANCH  21  23
ENDBRANCH   1  21
TORSDOF 8
