REMARK  9 active torsions:
REMARK  status: ('A' for Active; 'I' for Inactive)
REMARK    1  A    between atoms: C_2  and  C_4 
REMARK    2  A    between atoms: C_4  and  O_6 
REMARK    3  A    between atoms: O_6  and  C_7 
REMARK    4  A    between atoms: C_8  and  C_7 
REMARK    5  A    between atoms: C_9  and  O_24 
REMARK    6  A    between atoms: C_11  and  N_13 
REMARK    7  A    between atoms: C_16  and  N_21 
REMARK    8  A    between atoms: O_24  and  C_25 
REMARK    9  A    between atoms: C_25  and  C_27 
ROOT
HETATM    1  C   UNK N   1       3.620  -4.298   0.741  0.00  0.00     0.181 C 
HETATM    2  C   UNK N   1       3.692  -2.981  -0.036  0.00  0.00     0.206 C 
HETATM    3  C   UNK N   1       5.160  -2.648   0.060  0.00  0.00     0.172 C 
HETATM    4  C   UNK N   1       5.650  -4.070  -0.148  0.00  0.00     0.274 C 
HETATM    5  O   UNK N   1       4.912  -4.877   0.736  0.00  0.00    -0.353 OA
HETATM    6  C   UNK N   1       5.535  -2.093   1.437  0.00  0.00     0.059 C 
HETATM    7  F   UNK N   1       5.593  -1.810  -0.950  0.00  0.00    -0.236 F 
ENDROOT
BRANCH   4   8
HETATM    8  N   UNK N   1       7.103  -4.318  -0.071  0.00  0.00    -0.279 N 
HETATM    9  C   UNK N   1       7.980  -3.292   0.139  0.00  0.00     0.102 A 
HETATM   10  C   UNK N   1       9.354  -3.520   0.157  0.00  0.00     0.065 A 
HETATM   11  C   UNK N   1       9.821  -4.813  -0.046  0.00  0.00     0.103 A 
HETATM   12  N   UNK N   1       8.944  -5.825  -0.255  0.00  0.00    -0.295 N 
HETATM   13  C   UNK N   1       7.593  -5.595  -0.273  0.00  0.00     0.330 A 
ATOM     14  HN  UNK N   1       9.294  -6.772  -0.400  1.00  0.00     0.172 HD
HETATM   15  O   UNK N   1       6.832  -6.527  -0.477  0.00  0.00    -0.246 OA
BRANCH  11  16
HETATM   16  N   UNK N   1      11.206  -5.071  -0.043  0.00  0.00    -0.385 N 
HETATM   17  H   UNK N   1      11.533  -5.999  -0.042  0.00  0.00     0.157 HD
HETATM   18  H   UNK N   1      11.846  -4.323  -0.043  0.00  0.00     0.157 HD
ENDBRANCH  11  16
ENDBRANCH   4   8
BRANCH   2  19
HETATM   19  O   UNK N   1       2.804  -2.044   0.474  0.00  0.00    -0.309 OA
BRANCH  19  20
HETATM   20  C   UNK N   1       2.697  -0.751   0.065  0.00  0.00     0.262 C 
HETATM   21  O   UNK N   1       3.552  -0.246  -0.649  0.00  0.00    -0.265 OA
BRANCH  20  22
HETATM   22  C   UNK N   1       1.512   0.061   0.513  0.00  0.00     0.077 C 
HETATM   23  C   UNK N   1       0.251  -0.517  -0.097  0.00  0.00     0.020 C 
HETATM   24  C   UNK N   1       1.614   1.525   0.116  0.00  0.00     0.020 C 
ENDBRANCH  20  22
ENDBRANCH  19  20
ENDBRANCH   2  19
BRANCH   1  25
HETATM   25  C   UNK N   1       2.628  -5.271   0.119  0.00  0.00     0.213 C 
BRANCH  25  26
HETATM   26  O   UNK N   1       1.350  -4.761   0.126  0.00  0.00    -0.319 OA
BRANCH  26  27
HETATM   27  C   UNK N   1       0.284  -5.501  -0.278  0.00  0.00     0.262 C 
HETATM   28  O   UNK N   1       0.431  -6.672  -0.602  0.00  0.00    -0.265 OA
BRANCH  27  29
HETATM   29  C   UNK N   1      -1.089  -4.891  -0.343  0.00  0.00     0.077 C 
HETATM   30  C   UNK N   1      -2.038  -5.624   0.586  0.00  0.00     0.020 C 
HETATM   31  C   UNK N   1      -1.083  -3.419   0.018  0.00  0.00     0.020 C 
ENDBRANCH  27  29
ENDBRANCH  26  27
ENDBRANCH  25  26
ENDBRANCH   1  25
TORSDOF 9
