REMARK  3 active torsions:
REMARK  status: ('A' for Active; 'I' for Inactive)
REMARK    1  A    between atoms: C_6  and  N_7 
REMARK       I    between atoms: N_7  and  C_8 
REMARK       I    between atoms: C_8  and  N_10 
REMARK    2  A    between atoms: N_10  and  S_11 
REMARK    3  A    between atoms: S_11  and  C_14 
ROOT
HETATM    1  N   UNK N   1       6.720   2.598   0.161  0.00  0.00    -0.308 N 
HETATM    2  C   UNK N   1       6.082   3.107  -0.922  0.00  0.00     0.334 C 
HETATM    3  O   UNK N   1       6.647   3.140  -2.007  0.00  0.00    -0.246 OA
HETATM    4  N   UNK N   1       4.802   3.539  -0.842  0.00  0.00    -0.232 N 
HETATM    5  H   UNK N   1       6.231   2.523   1.013  0.00  0.00     0.170 HD
HETATM    6  H   UNK N   1       4.398   3.909  -1.660  0.00  0.00     0.183 HD
ENDROOT
BRANCH   4   7
HETATM    7  S   UNK N   1       3.801   3.494   0.606  0.00  0.00     0.266 S 
HETATM    8  O   UNK N   1       4.721   3.268   1.816  0.00  0.00    -0.200 OA
HETATM    9  O   UNK N   1       3.365   4.955   0.789  0.00  0.00    -0.200 OA
BRANCH   7  10
HETATM   10  C   UNK N   1       2.407   2.384   0.495  0.00  0.00     0.080 A 
HETATM   11  C   UNK N   1       2.622   0.990   0.492  0.00  0.00     0.028 A 
HETATM   12  C   UNK N   1       1.541   0.111   0.314  0.00  0.00     0.039 A 
HETATM   13  C   UNK N   1       0.272   0.659   0.134  0.00  0.00     0.075 A 
HETATM   14  C   UNK N   1       0.063   1.995   0.139  0.00  0.00    -0.021 A 
HETATM   15  O   UNK N   1      -0.852  -0.020  -0.068  0.00  0.00    -0.350 OA
HETATM   16  C   UNK N   1       1.111   2.897   0.314  0.00  0.00     0.035 A 
HETATM   17  C   UNK N   1      -1.369   2.282  -0.083  0.00  0.00     0.068 A 
HETATM   18  C   UNK N   1      -1.933   0.837  -0.223  0.00  0.00     0.180 A 
ENDBRANCH   7  10
ENDBRANCH   4   7
BRANCH   1  19
HETATM   19  C   UNK N   1       8.069   2.172   0.104  0.00  0.00     0.038 A 
HETATM   20  C   UNK N   1       8.365   0.841   0.385  0.00  0.00     0.055 A 
HETATM   21  C   UNK N   1       9.662   0.356   0.228  0.00  0.00     0.058 A 
HETATM   22  C   UNK N   1      10.686   1.220  -0.199  0.00  0.00     0.055 A 
HETATM   23 Cl   UNK N   1       9.962  -1.345   0.532  0.00  0.00    -0.082 Cl
HETATM   24  C   UNK N   1      10.396   2.564  -0.461  0.00  0.00     0.028 A 
HETATM   25 Cl   UNK N   1      12.326   0.638  -0.431  0.00  0.00    -0.083 Cl
HETATM   26  C   UNK N   1       9.088   3.039  -0.324  0.00  0.00     0.031 A 
ENDBRANCH   1  19
TORSDOF 3
