REMARK  3 active torsions:
REMARK  status: ('A' for Active; 'I' for Inactive)
REMARK    1  A    between atoms: N_1  and  C_2 
REMARK    2  A    between atoms: C_2  and  C_3 
REMARK    3  A    between atoms: C_5  and  O_6 
ROOT
HETATM    1  C   UNK N   1      -0.041  -0.139  -0.000  0.00  0.00     0.097 A 
HETATM    2  C   UNK N   1      -0.432   1.184  -0.000  0.00  0.00     0.094 A 
HETATM    3  C   UNK N   1       0.771   1.854   0.000  0.00  0.00     0.162 A 
HETATM    4  N   UNK N   1       1.794   0.984   0.000  0.00  0.00    -0.239 N 
ATOM      5  HN  UNK N   1       2.788   1.213   0.000  1.00  0.00     0.197 HD
HETATM    6  O   UNK N   1       1.272  -0.206  -0.000  0.00  0.00    -0.238 OA
ENDROOT
BRANCH   1   7
HETATM    7  C   UNK N   1      -0.959  -1.313  -0.000  0.00  0.00     0.178 C 
BRANCH   7   8
HETATM    8  N   UNK N   1      -0.194  -2.547  -0.000  0.00  0.00    -0.424 N 
HETATM    9  H   UNK N   1      -0.676  -3.446   0.000  0.00  0.00     0.150 HD
HETATM   10  H   UNK N   1       0.825  -2.516  -0.000  0.00  0.00     0.150 HD
ENDBRANCH   7   8
ENDBRANCH   1   7
BRANCH   3  11
HETATM   11  O   UNK N   1       0.921   3.188   0.000  0.00  0.00    -0.345 OA
HETATM   12  H   UNK N   1       1.780   3.563   0.000  0.00  0.00     0.219 HD
ENDBRANCH   3  11
TORSDOF 3
