REMARK  8 active torsions:
REMARK  status: ('A' for Active; 'I' for Inactive)
REMARK    1  A    between atoms: C_2  and  C_3 
REMARK    2  A    between atoms: C_3  and  C_4 
REMARK    3  A    between atoms: C_4  and  O_5 
REMARK    4  A    between atoms: O_5  and  C_6 
REMARK    5  A    between atoms: C_11  and  O_12 
REMARK    6  A    between atoms: O_12  and  C_13 
REMARK    7  A    between atoms: C_13  and  C_14 
REMARK    8  A    between atoms: C_14  and  C_15 
ROOT
HETATM    1  C   UNK N   1       0.093   0.550   0.000  0.00  0.00     0.161 A 
HETATM    2  C   UNK N   1      -1.331   0.911   0.000  0.00  0.00     0.260 A 
HETATM    3  O   UNK N   1      -2.386   0.305  -0.000  0.00  0.00    -0.281 OA
HETATM    4  C   UNK N   1      -0.915   2.306   0.000  0.00  0.00     0.260 A 
HETATM    5  O   UNK N   1      -1.485   3.387  -0.000  0.00  0.00    -0.281 OA
HETATM    6  C   UNK N   1       0.473   1.837   0.000  0.00  0.00     0.161 A 
ENDROOT
BRANCH   1   7
HETATM    7  O   UNK N   1       0.815  -0.587  -0.000  0.00  0.00    -0.345 OA
BRANCH   7   8
HETATM    8  C   UNK N   1       0.213  -1.816  -0.000  0.00  0.00     0.176 C 
BRANCH   8   9
HETATM    9  C   UNK N   1       1.279  -2.890  -0.000  0.00  0.00     0.026 C 
BRANCH   9  10
HETATM   10  C   UNK N   1       0.616  -4.249   0.000  0.00  0.00    -0.002 C 
HETATM   11  C   UNK N   1       1.677  -5.328  -0.000  0.00  0.00     0.005 C 
ENDBRANCH   9  10
ENDBRANCH   8   9
ENDBRANCH   7   8
ENDBRANCH   1   7
BRANCH   6  12
HETATM   12  O   UNK N   1       1.701   2.412  -0.000  0.00  0.00    -0.345 OA
BRANCH  12  13
HETATM   13  C   UNK N   1       2.818   1.610  -0.000  0.00  0.00     0.176 C 
BRANCH  13  14
HETATM   14  C   UNK N   1       4.096   2.413  -0.000  0.00  0.00     0.026 C 
BRANCH  14  15
HETATM   15  C   UNK N   1       5.240   1.418  -0.000  0.00  0.00    -0.002 C 
HETATM   16  C   UNK N   1       6.569   2.140   0.000  0.00  0.00     0.005 C 
ENDBRANCH  14  15
ENDBRANCH  13  14
ENDBRANCH  12  13
ENDBRANCH   6  12
TORSDOF 8
