REMARK WARNING: 32 MAX_TORS EXCEEDED!!!
REMARK  42 active torsions:
REMARK  status: ('A' for Active; 'I' for Inactive)
REMARK    1  A    between atoms: C_2  and  C_3 
REMARK    2  A    between atoms: C_3  and  C_4 
REMARK    3  A    between atoms: C_4  and  C_5 
REMARK    4  A    between atoms: C_5  and  C_6 
REMARK    5  A    between atoms: C_5  and  N_33 
REMARK       I    between atoms: C_6  and  N_8 
REMARK    6  A    between atoms: C_9  and  N_8 
REMARK    7  A    between atoms: C_9  and  C_10 
REMARK    8  A    between atoms: C_9  and  C_18 
REMARK    9  A    between atoms: C_10  and  C_11 
REMARK   10  A    between atoms: C_11  and  C_12 
REMARK   11  A    between atoms: C_12  and  N_13 
REMARK       I    between atoms: N_13  and  C_14 
REMARK       I    between atoms: C_14  and  N_17 
REMARK       I    between atoms: C_18  and  N_20 
REMARK   12  A    between atoms: C_24  and  C_25 
REMARK       I    between atoms: C_25  and  N_27 
REMARK   13  A    between atoms: N_27  and  C_28 
REMARK   14  A    between atoms: C_28  and  C_30 
REMARK       I    between atoms: C_30  and  N_32 
REMARK       I    between atoms: N_33  and  C_34 
REMARK   15  A    between atoms: C_34  and  C_36 
REMARK   16  A    between atoms: C_36  and  C_37 
REMARK   17  A    between atoms: C_36  and  N_45 
REMARK   18  A    between atoms: C_37  and  C_38 
REMARK   19  A    between atoms: C_38  and  C_39 
REMARK   20  A    between atoms: C_39  and  C_40 
REMARK   21  A    between atoms: C_40  and  N_41 
REMARK       I    between atoms: N_41  and  C_42 
REMARK       I    between atoms: C_42  and  N_44 
REMARK       I    between atoms: N_45  and  C_46 
REMARK   22  A    between atoms: C_46  and  C_48 
REMARK   23  A    between atoms: C_48  and  C_49 
REMARK   24  A    between atoms: C_48  and  N_57 
REMARK   25  A    between atoms: C_49  and  C_50 
REMARK   26  A    between atoms: C_53  and  O_56 
REMARK       I    between atoms: N_57  and  C_59 
REMARK   27  A    between atoms: C_59  and  C_61 
REMARK   28  A    between atoms: C_61  and  C_62 
REMARK   29  A    between atoms: C_61  and  N_64 
REMARK   30  A    between atoms: C_62  and  O_63 
REMARK       I    between atoms: N_64  and  C_65 
REMARK   31  A    between atoms: C_65  and  C_67 
REMARK   32  A    between atoms: C_67  and  C_68 
REMARK   33  A    between atoms: C_67  and  N_76 
REMARK   34  A    between atoms: C_68  and  C_69 
REMARK       I    between atoms: N_76  and  C_77 
REMARK   35  A    between atoms: C_77  and  C_79 
REMARK   36  A    between atoms: C_79  and  C_80 
REMARK   37  A    between atoms: C_79  and  N_88 
REMARK   38  A    between atoms: C_80  and  C_81 
REMARK       I    between atoms: N_88  and  C_89 
REMARK   39  A    between atoms: C_89  and  C_91 
REMARK   40  A    between atoms: C_91  and  C_92 
REMARK   41  A    between atoms: C_91  and  N_103 
REMARK   42  A    between atoms: C_92  and  C_93 
REMARK       I    between atoms: N_103  and  C_104 
ROOT
HETATM    1  C   UNK N   1      27.216  -8.503  -0.152  0.00  0.00     0.183 C 
ENDROOT
BRANCH   1   2
HETATM    2  C   UNK N   1      26.833  -7.108   0.277  0.00  0.00     0.241 C 
HETATM    3  N   UNK N   1      25.694  -6.812   0.950  0.00  0.00    -0.346 N 
HETATM    4  H   UNK N   1      25.625  -5.872   1.234  0.00  0.00     0.163 HD
HETATM    5  O   UNK N   1      27.543  -6.179  -0.068  0.00  0.00    -0.271 OA
BRANCH   3   6
HETATM    6  C   UNK N   1      24.562  -7.633   1.325  0.00  0.00     0.176 C 
BRANCH   6   7
HETATM    7  C   UNK N   1      24.872  -9.053   1.693  0.00  0.00     0.241 C 
HETATM    8  N   UNK N   1      24.554 -10.076   0.867  0.00  0.00    -0.346 N 
HETATM    9  H   UNK N   1      24.656 -10.992   1.214  0.00  0.00     0.163 HD
HETATM   10  O   UNK N   1      25.403  -9.301   2.764  0.00  0.00    -0.271 OA
BRANCH   8  11
HETATM   11  C   UNK N   1      24.074  -9.922  -0.490  0.00  0.00     0.176 C 
BRANCH  11  12
HETATM   12  C   UNK N   1      23.841 -11.308  -1.111  0.00  0.00     0.035 C 
BRANCH  12  13
HETATM   13  C   UNK N   1      22.935 -12.211  -0.274  0.00  0.00     0.002 C 
BRANCH  13  14
HETATM   14  C   UNK N   1      23.708 -12.889   0.845  0.00  0.00    -0.004 C 
HETATM   15  C   UNK N   1      23.621 -14.393   0.691  0.00  0.00     0.005 C 
ENDBRANCH  13  14
ENDBRANCH  12  13
ENDBRANCH  11  12
BRANCH  11  16
HETATM   16  C   UNK N   1      22.819  -9.124  -0.613  0.00  0.00     0.241 C 
HETATM   17  O   UNK N   1      22.547  -8.621  -1.694  0.00  0.00    -0.271 OA
HETATM   18  N   UNK N   1      21.898  -9.174   0.383  0.00  0.00    -0.346 N 
HETATM   19  H   UNK N   1      22.193  -9.387   1.297  0.00  0.00     0.163 HD
BRANCH  18  20
HETATM   20  C   UNK N   1      20.498  -8.923   0.141  0.00  0.00     0.176 C 
BRANCH  20  21
HETATM   21  C   UNK N   1      20.006  -7.492   0.301  0.00  0.00     0.036 C 
BRANCH  21  22
HETATM   22  C   UNK N   1      20.261  -6.598  -0.901  0.00  0.00     0.023 C 
BRANCH  22  23
HETATM   23  C   UNK N   1      18.969  -6.344  -1.675  0.00  0.00     0.138 C 
BRANCH  23  24
HETATM   24  N   UNK N   1      17.865  -6.022  -0.793  0.00  0.00    -0.227 N 
HETATM   25  C   UNK N   1      17.805  -4.834  -0.016  0.00  0.00     0.665 C 
HETATM   26  N   UNK N   1      18.712  -3.934  -0.121  0.00  0.00    -0.235 N 
HETATM   27  N   UNK N   1      16.726  -4.636   0.872  0.00  0.00    -0.235 N 
HETATM   28  H   UNK N   1      19.658  -4.192  -0.202  0.00  0.00     0.174 HD
ATOM     29  HN  UNK N   1      18.452  -2.948  -0.121  1.00  0.00     0.174 HD
HETATM   30  H   UNK N   1      16.469  -3.916   1.492  0.00  0.00     0.174 HD
HETATM   31  H   UNK N   1      16.088  -5.386   0.872  0.00  0.00     0.174 HD
HETATM   32  H   UNK N   1      17.118  -6.660  -0.728  0.00  0.00     0.177 HD
ENDBRANCH  23  24
ENDBRANCH  22  23
ENDBRANCH  21  22
ENDBRANCH  20  21
BRANCH  20  33
HETATM   33  C   UNK N   1      20.016  -9.868  -0.925  0.00  0.00     0.243 C 
HETATM   34  O   UNK N   1      20.013  -9.522  -2.098  0.00  0.00    -0.271 OA
HETATM   35  N   UNK N   1      19.835 -11.173  -0.592  0.00  0.00    -0.337 N 
HETATM   36  C   UNK N   1      19.774 -12.227  -1.566  0.00  0.00     0.127 C 
HETATM   37  C   UNK N   1      19.705 -11.606   0.772  0.00  0.00     0.179 C 
HETATM   38  C   UNK N   1      19.760 -13.511  -0.741  0.00  0.00     0.022 C 
HETATM   39  C   UNK N   1      20.016 -13.093   0.709  0.00  0.00     0.037 C 
BRANCH  37  40
HETATM   40  C   UNK N   1      18.251 -11.443   1.111  0.00  0.00     0.241 C 
HETATM   41  O   UNK N   1      17.907 -10.857   2.125  0.00  0.00    -0.271 OA
HETATM   42  N   UNK N   1      17.346 -11.941   0.225  0.00  0.00    -0.346 N 
HETATM   43  H   UNK N   1      17.743 -12.328  -0.589  0.00  0.00     0.163 HD
BRANCH  42  44
HETATM   44  C   UNK N   1      15.902 -12.002   0.272  0.00  0.00     0.172 C 
HETATM   45  C   UNK N   1      15.288 -11.417   1.534  0.00  0.00     0.042 C 
BRANCH  44  46
HETATM   46  C   UNK N   1      15.471 -13.431   0.070  0.00  0.00     0.237 C 
HETATM   47  O   UNK N   1      14.290 -13.693  -0.077  0.00  0.00    -0.271 OA
HETATM   48  N   UNK N   1      16.385 -14.425   0.015  0.00  0.00    -0.368 N 
HETATM   49  H   UNK N   1      16.091 -15.364  -0.024  0.00  0.00     0.159 HD
HETATM   50  H   UNK N   1      17.346 -14.211   0.015  0.00  0.00     0.159 HD
ENDBRANCH  44  46
ENDBRANCH  42  44
ENDBRANCH  37  40
ENDBRANCH  20  33
ENDBRANCH  18  20
ENDBRANCH  11  16
ENDBRANCH   8  11
ENDBRANCH   6   7
BRANCH   6  51
HETATM   51  C   UNK N   1      23.859  -6.982   2.520  0.00  0.00     0.035 C 
BRANCH  51  52
HETATM   52  C   UNK N   1      23.355  -5.575   2.237  0.00  0.00     0.004 C 
BRANCH  52  53
HETATM   53  C   UNK N   1      24.489  -4.567   2.088  0.00  0.00     0.020 C 
BRANCH  53  54
HETATM   54  C   UNK N   1      23.960  -3.239   1.571  0.00  0.00     0.124 C 
BRANCH  54  55
HETATM   55  N   UNK N   1      23.515  -3.356   0.198  0.00  0.00    -0.343 N 
HETATM   56  C   UNK N   1      22.242  -3.710  -0.108  0.00  0.00     0.313 C 
HETATM   57  O   UNK N   1      21.437  -3.968   0.761  0.00  0.00    -0.248 OA
HETATM   58  N   UNK N   1      21.869  -3.773  -1.407  0.00  0.00    -0.352 N 
HETATM   59  H   UNK N   1      21.694  -3.562  -2.353  0.00  0.00     0.160 HD
HETATM   60  H   UNK N   1      21.527  -4.696  -1.407  0.00  0.00     0.160 HD
HETATM   61  H   UNK N   1      24.152  -3.175  -0.531  0.00  0.00     0.164 HD
ENDBRANCH  54  55
ENDBRANCH  53  54
ENDBRANCH  52  53
ENDBRANCH  51  52
ENDBRANCH   6  51
ENDBRANCH   3   6
ENDBRANCH   1   2
BRANCH   1  62
HETATM   62  C   UNK N   1      27.597  -9.648   0.822  0.00  0.00     0.073 C 
BRANCH  62  63
HETATM   63  C   UNK N   1      27.346 -11.030   0.248  0.00  0.00    -0.056 A 
HETATM   64  C   UNK N   1      27.412 -12.159   1.074  0.00  0.00     0.010 A 
HETATM   65  C   UNK N   1      27.121 -13.430   0.552  0.00  0.00     0.037 A 
HETATM   66  C   UNK N   1      26.764 -13.574  -0.796  0.00  0.00     0.065 A 
HETATM   67  C   UNK N   1      26.712 -12.458  -1.622  0.00  0.00     0.037 A 
HETATM   68  C   UNK N   1      26.996 -11.202  -1.100  0.00  0.00     0.010 A 
BRANCH  66  69
HETATM   69  O   UNK N   1      26.465 -14.783  -1.295  0.00  0.00    -0.361 OA
HETATM   70  H   UNK N   1      25.630 -15.025  -1.644  0.00  0.00     0.217 HD
ENDBRANCH  66  69
ENDBRANCH  62  63
ENDBRANCH   1  62
BRANCH   1  71
HETATM   71  N   UNK N   1      27.874  -8.552  -1.432  0.00  0.00    -0.341 N 
HETATM   72  C   UNK N   1      27.019  -8.646  -2.592  0.00  0.00     0.153 C 
HETATM   73  C   UNK N   1      29.231  -8.570  -1.606  0.00  0.00     0.245 C 
HETATM   74  O   UNK N   1      29.665  -8.774  -2.733  0.00  0.00    -0.271 OA
BRANCH  73  75
HETATM   75  C   UNK N   1      30.284  -8.319  -0.532  0.00  0.00     0.200 C 
BRANCH  75  76
HETATM   76  C   UNK N   1      29.968  -7.994   0.932  0.00  0.00     0.199 C 
BRANCH  76  77
HETATM   77  O   UNK N   1      29.756  -6.632   1.133  0.00  0.00    -0.398 OA
HETATM   78  H   UNK N   1      30.503  -6.030   1.272  0.00  0.00     0.209 HD
ENDBRANCH  76  77
ENDBRANCH  75  76
BRANCH  75  79
HETATM   79  N   UNK N   1      31.166  -7.338  -1.100  0.00  0.00    -0.344 N 
HETATM   80  C   UNK N   1      32.398  -7.662  -1.545  0.00  0.00     0.241 C 
HETATM   81  O   UNK N   1      32.996  -6.864  -2.247  0.00  0.00    -0.271 OA
HETATM   82  H   UNK N   1      30.863  -6.404  -1.167  0.00  0.00     0.163 HD
BRANCH  80  83
HETATM   83  C   UNK N   1      33.050  -8.985  -1.202  0.00  0.00     0.180 C 
BRANCH  83  84
HETATM   84  C   UNK N   1      32.285 -10.141  -1.875  0.00  0.00     0.074 C 
BRANCH  84  85
HETATM   85  C   UNK N   1      32.072 -11.355  -1.020  0.00  0.00    -0.040 A 
HETATM   86  C   UNK N   1      33.143 -12.165  -0.633  0.00  0.00     0.010 A 
HETATM   87  C   UNK N   1      32.909 -13.278   0.178  0.00  0.00     0.018 A 
HETATM   88  C   UNK N   1      31.606 -13.562   0.592  0.00  0.00     0.087 A 
HETATM   89  N   UNK N   1      30.576 -12.763   0.203  0.00  0.00    -0.375 N 
HETATM   90  C   UNK N   1      30.782 -11.676  -0.589  0.00  0.00     0.094 A 
ATOM     91  HN  UNK N   1      29.629 -12.983   0.512  1.00  0.00     0.164 HD
ENDBRANCH  84  85
ENDBRANCH  83  84
BRANCH  83  92
HETATM   92  N   UNK N   1      33.150  -9.176   0.241  0.00  0.00    -0.346 N 
HETATM   93  C   UNK N   1      33.767  -8.356   1.137  0.00  0.00     0.241 C 
HETATM   94  O   UNK N   1      33.863  -8.722   2.296  0.00  0.00    -0.271 OA
HETATM   95  H   UNK N   1      32.725  -9.985   0.607  0.00  0.00     0.163 HD
BRANCH  93  96
HETATM   96  C   UNK N   1      34.400  -7.049   0.755  0.00  0.00     0.180 C 
BRANCH  96  97
HETATM   97  C   UNK N   1      34.058  -5.733   1.471  0.00  0.00     0.073 C 
BRANCH  97  98
HETATM   98  C   UNK N   1      32.942  -4.923   0.890  0.00  0.00    -0.056 A 
HETATM   99  C   UNK N   1      31.867  -4.540   1.703  0.00  0.00     0.009 A 
HETATM  100  C   UNK N   1      30.854  -3.720   1.190  0.00  0.00     0.024 A 
HETATM  101  C   UNK N   1      30.919  -3.275  -0.134  0.00  0.00     0.034 A 
HETATM  102  C   UNK N   1      31.997  -3.644  -0.942  0.00  0.00     0.024 A 
HETATM  103 Cl   UNK N   1      29.654  -2.252  -0.780  0.00  0.00    -0.084 Cl
HETATM  104  C   UNK N   1      33.012  -4.457  -0.427  0.00  0.00     0.009 A 
ENDBRANCH  97  98
ENDBRANCH  96  97
BRANCH  96 105
HETATM  105  N   UNK N   1      34.956  -6.982  -0.572  0.00  0.00    -0.346 N 
HETATM  106  C   UNK N   1      36.252  -6.730  -0.798  0.00  0.00     0.241 C 
HETATM  107  O   UNK N   1      36.681  -6.747  -1.942  0.00  0.00    -0.271 OA
HETATM  108  H   UNK N   1      34.360  -7.127  -1.343  0.00  0.00     0.163 HD
BRANCH 106 109
HETATM  109  C   UNK N   1      37.143  -6.389   0.350  0.00  0.00     0.180 C 
BRANCH 109 110
HETATM  110  C   UNK N   1      37.372  -7.388   1.479  0.00  0.00     0.073 C 
BRANCH 110 111
HETATM  111  C   UNK N   1      38.314  -8.451   1.072  0.00  0.00    -0.055 A 
HETATM  112  C   UNK N   1      39.643  -8.361   1.488  0.00  0.00     0.008 A 
HETATM  113  C   UNK N   1      40.576  -9.302   1.059  0.00  0.00     0.013 A 
HETATM  114  C   UNK N   1      40.180 -10.338   0.214  0.00  0.00    -0.026 A 
HETATM  115  C   UNK N   1      41.121 -11.261  -0.243  0.00  0.00     0.012 A 
HETATM  116  C   UNK N   1      38.828 -10.449  -0.188  0.00  0.00    -0.025 A 
HETATM  117  C   UNK N   1      40.726 -12.295  -1.096  0.00  0.00     0.001 A 
HETATM  118  C   UNK N   1      39.386 -12.413  -1.485  0.00  0.00     0.001 A 
HETATM  119  C   UNK N   1      38.437 -11.491  -1.032  0.00  0.00     0.012 A 
HETATM  120  C   UNK N   1      37.898  -9.500   0.242  0.00  0.00     0.019 A 
ENDBRANCH 110 111
ENDBRANCH 109 110
BRANCH 109 121
HETATM  121  N   UNK N   1      38.199  -5.453   0.070  0.00  0.00    -0.348 N 
HETATM  122  C   UNK N   1      37.914  -4.150  -0.164  0.00  0.00     0.214 C 
HETATM  123  O   UNK N   1      36.756  -3.755  -0.167  0.00  0.00    -0.274 OA
HETATM  124  C   UNK N   1      39.017  -3.187  -0.419  0.00  0.00     0.117 C 
HETATM  125  H   UNK N   1      39.134  -5.761   0.049  0.00  0.00     0.163 HD
ENDBRANCH 109 121
ENDBRANCH 106 109
ENDBRANCH  96 105
ENDBRANCH  93  96
ENDBRANCH  83  92
ENDBRANCH  80  83
ENDBRANCH  75  79
ENDBRANCH  73  75
ENDBRANCH   1  71
TORSDOF 42
