REMARK  8 active torsions:
REMARK  status: ('A' for Active; 'I' for Inactive)
REMARK    1  A    between atoms: O_2  and  C_3 
REMARK    2  A    between atoms: C_6  and  C_11 
REMARK    3  A    between atoms: C_8  and  O_9 
REMARK    4  A    between atoms: C_19  and  O_24 
REMARK    5  A    between atoms: C_21  and  O_22 
REMARK    6  A    between atoms: O_24  and  C_25 
REMARK    7  A    between atoms: C_25  and  C_26 
REMARK    8  A    between atoms: C_26  and  O_28 
ROOT
HETATM    1  C   UNK N   1      -1.015  -0.428   0.444  0.00  0.00     0.090 A 
HETATM    2  C   UNK N   1      -1.081  -1.825   0.462  0.00  0.00     0.094 A 
HETATM    3  C   UNK N   1       0.083  -2.571   0.273  0.00  0.00     0.190 A 
HETATM    4  O   UNK N   1      -0.005  -3.784   0.257  0.00  0.00    -0.287 OA
HETATM    5  C   UNK N   1       1.315  -1.904   0.036  0.00  0.00     0.081 A 
HETATM    6  C   UNK N   1       1.277  -0.482   0.035  0.00  0.00     0.095 A 
HETATM    7  O   UNK N   1       0.148   0.173   0.245  0.00  0.00    -0.309 OA
HETATM    8  C   UNK N   1       2.410   0.259  -0.258  0.00  0.00     0.075 A 
HETATM    9  C   UNK N   1       3.614  -0.365  -0.575  0.00  0.00     0.074 A 
HETATM   10  C   UNK N   1       3.684  -1.757  -0.565  0.00  0.00     0.074 A 
HETATM   11  C   UNK N   1       2.568  -2.546  -0.247  0.00  0.00     0.087 A 
ENDROOT
BRANCH   1  12
HETATM   12  C   UNK N   1      -2.229   0.406   0.454  0.00  0.00     0.001 A 
HETATM   13  C   UNK N   1      -2.093   1.797   0.431  0.00  0.00     0.017 A 
HETATM   14  C   UNK N   1      -3.207   2.615   0.276  0.00  0.00     0.040 A 
HETATM   15  C   UNK N   1      -4.481   2.067   0.110  0.00  0.00     0.101 A 
HETATM   16  C   UNK N   1      -4.638   0.653   0.145  0.00  0.00     0.102 A 
HETATM   17  C   UNK N   1      -3.501  -0.160   0.323  0.00  0.00     0.054 A 
BRANCH  15  18
HETATM   18  O   UNK N   1      -5.508   2.933  -0.095  0.00  0.00    -0.353 OA
HETATM   19  C   UNK N   1      -6.800   2.581  -0.406  0.00  0.00     0.210 C 
ENDBRANCH  15  18
BRANCH  16  20
HETATM   20  O   UNK N   1      -5.862   0.093  -0.013  0.00  0.00    -0.353 OA
HETATM   21  C   UNK N   1      -6.079  -1.267  -0.031  0.00  0.00     0.210 C 
ENDBRANCH  16  20
ENDBRANCH   1  12
BRANCH  11  22
HETATM   22  O   UNK N   1       2.756  -3.890  -0.262  0.00  0.00    -0.355 OA
HETATM   23  C   UNK N   1       2.395  -4.725   0.769  0.00  0.00     0.210 C 
ENDBRANCH  11  22
BRANCH   9  24
HETATM   24  O   UNK N   1       4.710   0.359  -0.902  0.00  0.00    -0.341 OA
BRANCH  24  25
HETATM   25  C   UNK N   1       4.689   1.738  -0.979  0.00  0.00     0.285 C 
BRANCH  25  26
HETATM   26  C   UNK N   1       5.593   2.342   0.045  0.00  0.00     0.164 C 
HETATM   27  O   UNK N   1       5.621   3.553   0.185  0.00  0.00    -0.648 OA
BRANCH  26  28
HETATM   28  O   UNK N   1       6.370   1.560   0.820  0.00  0.00    -0.775 OA
HETATM   29  H   UNK N   1       6.169   0.820   1.359  0.00  0.00     0.167 HD
ENDBRANCH  26  28
ENDBRANCH  25  26
ENDBRANCH  24  25
ENDBRANCH   9  24
TORSDOF 8
