REMARK  7 active torsions:
REMARK  status: ('A' for Active; 'I' for Inactive)
REMARK    1  A    between atoms: N_21  and  C_13 
REMARK    2  A    between atoms: O_23  and  C_14 
REMARK    3  A    between atoms: O_26  and  C_15 
REMARK    4  A    between atoms: S_27  and  C_16 
REMARK    5  A    between atoms: N_22  and  C_17 
REMARK    6  A    between atoms: N_21  and  C_18 
REMARK    7  A    between atoms: S_27  and  N_22 
ROOT
HETATM    1  C   UNK N   1       5.650  -2.251   0.201  0.00  0.00     0.019 A 
HETATM    2  C   UNK N   1       5.752  -0.941   0.667  0.00  0.00     0.035 A 
HETATM    3  C   UNK N   1       4.491  -2.648  -0.467  0.00  0.00     0.090 A 
HETATM    4  C   UNK N   1       4.713  -0.038   0.443  0.00  0.00     0.086 A 
HETATM    5  C   UNK N   1       3.554  -0.475  -0.216  0.00  0.00     0.133 A 
HETATM    6  N   UNK N   1       3.471  -1.767  -0.649  0.00  0.00    -0.350 N 
ATOM      7  HN  UNK N   1       2.623  -2.079  -1.122  1.00  0.00     0.166 HD
ENDROOT
BRANCH   4   8
HETATM    8  N   UNK N   1       4.821   1.274   0.961  0.00  0.00    -0.277 N 
HETATM    9  H   UNK N   1       4.921   1.387   1.933  0.00  0.00     0.179 HD
BRANCH   8  10
HETATM   10  S   UNK N   1       4.783   2.709  -0.050  0.00  0.00     0.263 S 
HETATM   11  O   UNK N   1       3.628   3.559   0.501  0.00  0.00    -0.200 OA
HETATM   12  O   UNK N   1       4.292   2.256  -1.434  0.00  0.00    -0.200 OA
BRANCH  10  13
HETATM   13  C   UNK N   1       6.368   3.519  -0.077  0.00  0.00     0.080 A 
HETATM   14  C   UNK N   1       6.510   4.818  -0.572  0.00  0.00     0.028 A 
HETATM   15  C   UNK N   1       7.773   5.422  -0.582  0.00  0.00     0.038 A 
HETATM   16  C   UNK N   1       8.893   4.731  -0.100  0.00  0.00     0.068 A 
HETATM   17  C   UNK N   1       8.737   3.426   0.396  0.00  0.00     0.038 A 
HETATM   18  C   UNK N   1       7.480   2.827   0.406  0.00  0.00     0.028 A 
BRANCH  16  19
HETATM   19  O   UNK N   1      10.104   5.336  -0.124  0.00  0.00    -0.356 OA
HETATM   20  C   UNK N   1      11.256   4.727   0.323  0.00  0.00     0.210 C 
ENDBRANCH  16  19
ENDBRANCH  10  13
ENDBRANCH   8  10
ENDBRANCH   4   8
BRANCH   5  21
HETATM   21  N   UNK N   1       2.457   0.409  -0.375  0.00  0.00    -0.341 N 
HETATM   22  H   UNK N   1       2.648   1.347  -0.604  0.00  0.00     0.167 HD
BRANCH  21  23
HETATM   23  C   UNK N   1       1.102   0.023  -0.223  0.00  0.00     0.033 A 
HETATM   24  C   UNK N   1       0.095   0.955  -0.492  0.00  0.00     0.032 A 
HETATM   25  C   UNK N   1      -1.243   0.638  -0.239  0.00  0.00     0.039 A 
HETATM   26  C   UNK N   1      -1.577  -0.608   0.299  0.00  0.00     0.065 A 
HETATM   27  C   UNK N   1      -0.576  -1.544   0.568  0.00  0.00     0.039 A 
HETATM   28  C   UNK N   1       0.759  -1.229   0.314  0.00  0.00     0.032 A 
BRANCH  26  29
HETATM   29  O   UNK N   1      -2.860  -0.904   0.563  0.00  0.00    -0.361 OA
HETATM   30  H   UNK N   1      -3.486  -0.231   0.748  0.00  0.00     0.217 HD
ENDBRANCH  26  29
ENDBRANCH  21  23
ENDBRANCH   5  21
TORSDOF 7
