REMARK  11 active torsions:
REMARK  status: ('A' for Active; 'I' for Inactive)
REMARK    1  A    between atoms: O_2  and  C_3 
REMARK    2  A    between atoms: C_5  and  N_34 
REMARK    3  A    between atoms: C_8  and  C_9 
REMARK       I    between atoms: C_9  and  N_11 
REMARK    4  A    between atoms: N_11  and  C_12 
REMARK    5  A    between atoms: C_12  and  C_13 
REMARK    6  A    between atoms: N_16  and  C_19 
REMARK    7  A    between atoms: C_19  and  C_20 
REMARK    8  A    between atoms: C_20  and  C_21 
REMARK    9  A    between atoms: C_21  and  C_22 
REMARK   10  A    between atoms: C_21  and  O_29 
REMARK   11  A    between atoms: O_29  and  C_30 
REMARK       I    between atoms: C_30  and  N_32 
ROOT
HETATM    1  C   UNK N   1      -2.279  -2.001  -0.715  0.00  0.00     0.007 C 
HETATM    2  C   UNK N   1      -1.205  -1.054  -1.251  0.00  0.00     0.036 C 
HETATM    3  C   UNK N   1      -0.079  -0.898  -0.230  0.00  0.00     0.273 C 
HETATM    4  N   UNK N   1       0.438  -2.174   0.286  0.00  0.00     0.088 N 
HETATM    5  C   UNK N   1      -0.507  -3.293   0.456  0.00  0.00     0.273 C 
HETATM    6  C   UNK N   1      -1.612  -3.355  -0.602  0.00  0.00     0.036 C 
ENDROOT
BRANCH   1   7
HETATM    7  C   UNK N   1      -2.871  -1.590   0.656  0.00  0.00     0.127 C 
BRANCH   7   8
HETATM    8  N   UNK N   1      -2.742  -0.169   0.845  0.00  0.00    -0.356 N 
HETATM    9  C   UNK N   1      -3.627   0.714   0.333  0.00  0.00     0.254 C 
HETATM   10  O   UNK N   1      -4.649   0.305  -0.195  0.00  0.00    -0.268 OA
HETATM   11  H   UNK N   1      -1.980   0.173   1.367  0.00  0.00     0.162 HD
BRANCH   9  12
HETATM   12  C   UNK N   1      -3.244   2.150   0.267  0.00  0.00     0.067 A 
HETATM   13  C   UNK N   1      -1.882   2.431   0.479  0.00  0.00     0.046 A 
HETATM   14  C   UNK N   1      -1.363   3.709   0.307  0.00  0.00     0.061 A 
HETATM   15  C   UNK N   1      -2.206   4.748  -0.092  0.00  0.00     0.050 A 
HETATM   16 Cl   UNK N   1       0.356   3.973   0.554  0.00  0.00    -0.082 Cl
HETATM   17  C   UNK N   1      -3.565   4.502  -0.287  0.00  0.00     0.068 A 
HETATM   18  C   UNK N   1      -4.113   3.226  -0.106  0.00  0.00     0.086 A 
BRANCH  15  19
HETATM   19  N   UNK N   1      -1.695   6.045  -0.299  0.00  0.00    -0.398 N 
HETATM   20  H   UNK N   1      -0.732   6.190  -0.444  0.00  0.00     0.156 HD
HETATM   21  H   UNK N   1      -2.309   6.815  -0.299  0.00  0.00     0.156 HD
ENDBRANCH  15  19
BRANCH  18  22
HETATM   22  O   UNK N   1      -5.453   3.109  -0.300  0.00  0.00    -0.355 OA
HETATM   23  C   UNK N   1      -6.286   2.254   0.382  0.00  0.00     0.210 C 
ENDBRANCH  18  22
ENDBRANCH   9  12
ENDBRANCH   7   8
ENDBRANCH   1   7
BRANCH   4  24
HETATM   24  C   UNK N   1       1.603  -2.597  -0.455  0.00  0.00     0.275 C 
BRANCH  24  25
HETATM   25  C   UNK N   1       2.612  -3.152   0.528  0.00  0.00     0.068 C 
BRANCH  25  26
HETATM   26  C   UNK N   1       3.636  -3.943  -0.259  0.00  0.00     0.168 C 
BRANCH  26  27
HETATM   27  C   UNK N   1       3.373  -5.421  -0.127  0.00  0.00    -0.029 A 
HETATM   28  C   UNK N   1       4.370  -6.309   0.306  0.00  0.00     0.013 A 
HETATM   29  C   UNK N   1       4.105  -7.681   0.382  0.00  0.00     0.043 A 
HETATM   30  C   UNK N   1       2.842  -8.173   0.032  0.00  0.00     0.116 A 
HETATM   31  C   UNK N   1       1.844  -7.294  -0.392  0.00  0.00     0.043 A 
HETATM   32  F   UNK N   1       2.588  -9.502   0.098  0.00  0.00    -0.206 F 
HETATM   33  C   UNK N   1       2.110  -5.926  -0.477  0.00  0.00     0.013 A 
ENDBRANCH  26  27
BRANCH  26  34
HETATM   34  O   UNK N   1       4.917  -3.583   0.114  0.00  0.00    -0.294 OA
BRANCH  34  35
HETATM   35  C   UNK N   1       5.410  -2.327  -0.057  0.00  0.00     0.358 C 
HETATM   36  O   UNK N   1       4.711  -1.440  -0.536  0.00  0.00    -0.239 OA
HETATM   37  N   UNK N   1       6.676  -2.050   0.295  0.00  0.00    -0.346 N 
HETATM   38  H   UNK N   1       7.316  -2.753   0.553  0.00  0.00     0.161 HD
HETATM   39  H   UNK N   1       6.975  -1.112   0.295  0.00  0.00     0.161 HD
ENDBRANCH  34  35
ENDBRANCH  26  34
ENDBRANCH  25  26
ENDBRANCH  24  25
ENDBRANCH   4  24
TORSDOF 11
