REMARK  20 active torsions:
REMARK  status: ('A' for Active; 'I' for Inactive)
REMARK    1  A    between atoms: C_2  and  C_3 
REMARK    2  A    between atoms: C_3  and  C_5 
REMARK    3  A    between atoms: C_5  and  C_6 
REMARK    4  A    between atoms: C_5  and  N_33 
REMARK    5  A    between atoms: C_6  and  C_7 
REMARK    6  A    between atoms: C_6  and  O_31 
REMARK    7  A    between atoms: C_7  and  C_8 
REMARK       I    between atoms: C_8  and  N_10 
REMARK    8  A    between atoms: C_14  and  C_15 
REMARK    9  A    between atoms: C_15  and  C_16 
REMARK   10  A    between atoms: C_15  and  O_29 
REMARK   11  A    between atoms: C_16  and  C_18 
REMARK       I    between atoms: C_18  and  N_20 
REMARK   12  A    between atoms: N_20  and  C_21 
REMARK   13  A    between atoms: C_21  and  C_22 
REMARK   14  A    between atoms: C_22  and  C_23 
REMARK       I    between atoms: N_33  and  C_35 
REMARK   15  A    between atoms: C_35  and  C_37 
REMARK   16  A    between atoms: C_37  and  C_38 
REMARK   17  A    between atoms: C_37  and  N_41 
REMARK       I    between atoms: N_41  and  C_42 
REMARK   18  A    between atoms: C_42  and  C_44 
REMARK   19  A    between atoms: C_44  and  C_45 
REMARK   20  A    between atoms: C_44  and  N_48 
ROOT
HETATM    1  C   UNK N   1       5.385  -4.324  -1.367  0.00  0.00     0.152 C 
ENDROOT
BRANCH   1   2
HETATM    2  C   UNK N   1       6.789  -4.218  -0.710  0.00  0.00     0.119 C 
BRANCH   2   3
HETATM    3  C   UNK N   1       7.237  -2.842  -0.184  0.00  0.00     0.006 C 
HETATM    4  C   UNK N   1       7.285  -1.788  -1.278  0.00  0.00     0.012 C 
BRANCH   3   5
HETATM    5  C   UNK N   1       6.601  -2.355   1.122  0.00  0.00     0.002 C 
HETATM    6  C   UNK N   1       5.305  -1.584   0.916  0.00  0.00     0.005 C 
ENDBRANCH   3   5
ENDBRANCH   2   3
BRANCH   2   7
HETATM    7  N   UNK N   1       7.504  -5.442  -0.274  0.00  0.00    -0.347 N 
HETATM    8  C   UNK N   1       7.218  -6.679  -0.953  0.00  0.00     0.153 C 
HETATM    9  C   UNK N   1       8.558  -5.399   0.615  0.00  0.00     0.243 C 
HETATM   10  O   UNK N   1       8.812  -4.387   1.237  0.00  0.00    -0.271 OA
BRANCH   9  11
HETATM   11  C   UNK N   1       9.525  -6.558   0.785  0.00  0.00     0.180 C 
BRANCH  11  12
HETATM   12  C   UNK N   1       9.047  -7.880   1.419  0.00  0.00     0.009 C 
HETATM   13  C   UNK N   1       8.527  -8.927   0.448  0.00  0.00     0.012 C 
HETATM   14  C   UNK N   1       8.074  -7.670   2.564  0.00  0.00     0.012 C 
ENDBRANCH  11  12
BRANCH  11  15
HETATM   15  N   UNK N   1      10.219  -6.773  -0.464  0.00  0.00    -0.346 N 
HETATM   16  C   UNK N   1      11.481  -6.337  -0.687  0.00  0.00     0.252 C 
HETATM   17  O   UNK N   1      11.986  -6.516  -1.784  0.00  0.00    -0.271 OA
HETATM   18  H   UNK N   1       9.754  -7.257  -1.184  0.00  0.00     0.163 HD
BRANCH  16  19
HETATM   19  C   UNK N   1      12.270  -5.630   0.403  0.00  0.00     0.316 C 
BRANCH  19  20
HETATM   20  C   UNK N   1      13.490  -6.473   0.833  0.00  0.00     0.020 C 
HETATM   21  C   UNK N   1      14.505  -6.672  -0.284  0.00  0.00     0.012 C 
HETATM   22  C   UNK N   1      13.062  -7.817   1.397  0.00  0.00     0.012 C 
ENDBRANCH  19  20
BRANCH  19  23
HETATM   23  N   UNK N   1      12.654  -4.268  -0.013  0.00  0.00     0.094 N 
HETATM   24  C   UNK N   1      11.453  -3.456  -0.145  0.00  0.00     0.310 C 
HETATM   25  C   UNK N   1      13.439  -3.627   1.034  0.00  0.00     0.310 C 
ENDBRANCH  19  23
ENDBRANCH  16  19
ENDBRANCH  11  15
ENDBRANCH   9  11
ENDBRANCH   2   7
ENDBRANCH   1   2
BRANCH   1  26
HETATM   26  C   UNK N   1       4.206  -4.162  -0.399  0.00  0.00     0.137 C 
BRANCH  26  27
HETATM   27  C   UNK N   1       4.337  -5.009   0.840  0.00  0.00     0.222 C 
HETATM   28  O   UNK N   1       4.550  -4.451   1.905  0.00  0.00    -0.273 OA
HETATM   29  N   UNK N   1       4.220  -6.366   0.794  0.00  0.00    -0.345 N 
HETATM   30  C   UNK N   1       4.419  -7.189   1.949  0.00  0.00     0.126 C 
HETATM   31  C   UNK N   1       3.840  -7.071  -0.396  0.00  0.00     0.117 C 
HETATM   32  C   UNK N   1       4.198  -8.613   1.467  0.00  0.00     0.022 C 
HETATM   33  C   UNK N   1       3.932  -8.545  -0.039  0.00  0.00     0.029 C 
BRANCH  31  34
HETATM   34  C   UNK N   1       2.423  -6.624  -0.766  0.00  0.00     0.156 C 
BRANCH  34  35
HETATM   35  C   UNK N   1       1.322  -6.853   0.269  0.00  0.00     0.105 C 
HETATM   36  C   UNK N   1       0.880  -8.290   0.513  0.00  0.00     0.022 C 
BRANCH  35  37
HETATM   37  C   UNK N   1       0.238  -5.830   0.113  0.00  0.00     0.224 C 
HETATM   38  O   UNK N   1       0.374  -4.755   0.672  0.00  0.00    -0.273 OA
HETATM   39  N   UNK N   1      -0.848  -6.026  -0.669  0.00  0.00    -0.360 N 
HETATM   40  H   UNK N   1      -1.447  -5.260  -0.821  0.00  0.00     0.162 HD
BRANCH  39  41
HETATM   41  C   UNK N   1      -1.191  -7.279  -1.296  0.00  0.00     0.127 C 
BRANCH  41  42
HETATM   42  C   UNK N   1      -2.326  -7.953  -0.513  0.00  0.00     0.058 C 
BRANCH  42  43
HETATM   43  C   UNK N   1      -3.406  -6.981  -0.140  0.00  0.00    -0.057 A 
HETATM   44  C   UNK N   1      -4.631  -7.016  -0.807  0.00  0.00     0.007 A 
HETATM   45  C   UNK N   1      -5.615  -6.068  -0.508  0.00  0.00     0.001 A 
HETATM   46  C   UNK N   1      -5.373  -5.082   0.454  0.00  0.00     0.000 A 
HETATM   47  C   UNK N   1      -4.154  -5.054   1.135  0.00  0.00     0.001 A 
HETATM   48  C   UNK N   1      -3.175  -6.004   0.843  0.00  0.00     0.007 A 
ENDBRANCH  42  43
ENDBRANCH  41  42
ENDBRANCH  39  41
ENDBRANCH  35  37
ENDBRANCH  34  35
BRANCH  34  49
HETATM   49  O   UNK N   1       2.053  -6.823  -2.095  0.00  0.00    -0.388 OA
HETATM   50  C   UNK N   1       1.955  -5.522  -2.607  0.00  0.00     0.202 C 
ENDBRANCH  34  49
ENDBRANCH  31  34
ENDBRANCH  26  27
ENDBRANCH   1  26
BRANCH   1  51
HETATM   51  O   UNK N   1       5.233  -5.431  -2.211  0.00  0.00    -0.388 OA
HETATM   52  C   UNK N   1       5.704  -5.030  -3.464  0.00  0.00     0.202 C 
ENDBRANCH   1  51
TORSDOF 20
