REMARK  1 active torsions:
REMARK  status: ('A' for Active; 'I' for Inactive)
REMARK    1  A    between atoms: C_2  and  C_4 
ROOT
HETATM    1  C   UNK N   1       0.284  -2.001  -0.000  0.00  0.00     0.122 A 
HETATM    2  O   UNK N   1       1.024  -0.904  -0.000  0.00  0.00    -0.302 OA
HETATM    3  C   UNK N   1       2.285  -1.270  -0.000  0.00  0.00     0.141 A 
HETATM    4  C   UNK N   1       3.489  -0.420  -0.000  0.00  0.00     0.217 A 
HETATM    5  O   UNK N   1       3.397   0.797  -0.000  0.00  0.00    -0.284 OA
HETATM    6  C   UNK N   1       4.821  -1.101   0.000  0.00  0.00     0.031 A 
HETATM    7  C   UNK N   1       6.006  -0.353   0.000  0.00  0.00     0.016 A 
HETATM    8  C   UNK N   1       7.247  -0.998   0.000  0.00  0.00     0.001 A 
HETATM    9  C   UNK N   1       7.316  -2.394   0.000  0.00  0.00     0.001 A 
HETATM   10  C   UNK N   1       6.145  -3.153   0.000  0.00  0.00     0.016 A 
HETATM   11  C   UNK N   1       4.895  -2.523   0.000  0.00  0.00     0.029 A 
HETATM   12  C   UNK N   1       3.652  -3.336   0.000  0.00  0.00     0.196 A 
HETATM   13  O   UNK N   1       3.690  -4.556   0.000  0.00  0.00    -0.287 OA
HETATM   14  C   UNK N   1       2.371  -2.630   0.000  0.00  0.00     0.056 A 
HETATM   15  C   UNK N   1       1.091  -3.130  -0.000  0.00  0.00     0.059 A 
ENDROOT
BRANCH   1  16
HETATM   16  C   UNK N   1      -1.187  -2.026  -0.000  0.00  0.00     0.179 C 
HETATM   17  C   UNK N   1      -1.916  -3.331  -0.000  0.00  0.00     0.099 C 
HETATM   18  O   UNK N   1      -1.819  -0.984  -0.000  0.00  0.00    -0.291 OA
ENDBRANCH   1  16
TORSDOF 1
