REMARK  4 active torsions:
REMARK  status: ('A' for Active; 'I' for Inactive)
REMARK    1  A    between atoms: C_2  and  C_4 
REMARK    2  A    between atoms: C_6  and  O_12 
REMARK    3  A    between atoms: O_12  and  C_13 
REMARK    4  A    between atoms: C_16  and  N_20 
ROOT
HETATM    1  N   UNK N   1       4.088  -9.833  -0.029  0.00  0.00    -0.204 N 
HETATM    2  C   UNK N   1       5.163 -10.662  -0.260  0.00  0.00     0.348 A 
HETATM    3  O   UNK N   1       6.289 -10.216  -0.405  0.00  0.00    -0.245 OA
HETATM    4  N   UNK N   1       4.958 -12.013  -0.289  0.00  0.00    -0.271 N 
HETATM    5  C   UNK N   1       3.693 -12.524  -0.127  0.00  0.00     0.288 A 
HETATM    6  O   UNK N   1       3.525 -13.727  -0.093  0.00  0.00    -0.265 OA
HETATM    7  C   UNK N   1       2.615 -11.648   0.003  0.00  0.00     0.197 A 
HETATM    8  N   UNK N   1       2.864 -10.343   0.053  0.00  0.00    -0.275 N 
ATOM      9  HN  UNK N   1       2.078  -9.702   0.159  1.00  0.00     0.188 HD
HETATM   10  C   UNK N   1       1.243 -12.049   0.125  0.00  0.00     0.125 C 
HETATM   11  N   UNK N   1       0.117 -12.292   0.229  0.00  0.00    -0.190 NA
HETATM   12  H   UNK N   1       5.719 -12.622  -0.426  0.00  0.00     0.174 HD
ENDROOT
BRANCH   1  13
HETATM   13  C   UNK N   1       4.174  -8.433   0.161  0.00  0.00     0.065 C 
HETATM   14  C   UNK N   1       5.365  -7.719   0.052  0.00  0.00     0.058 C 
HETATM   15  C   UNK N   1       5.327  -6.339   0.098  0.00  0.00     0.071 C 
HETATM   16  C   UNK N   1       4.100  -5.683   0.235  0.00  0.00     0.121 C 
HETATM   17 Cl   UNK N   1       6.821  -5.429  -0.036  0.00  0.00    -0.081 Cl
HETATM   18  C   UNK N   1       2.932  -6.434   0.577  0.00  0.00     0.071 C 
HETATM   19  C   UNK N   1       3.001  -7.781   0.500  0.00  0.00     0.058 C 
HETATM   20 Cl   UNK N   1       1.368  -5.834   1.162  0.00  0.00    -0.081 Cl
BRANCH  16  21
HETATM   21  O   UNK N   1       4.092  -4.362   0.026  0.00  0.00    -0.289 OA
BRANCH  21  22
HETATM   22  C   UNK N   1       3.012  -3.696  -0.393  0.00  0.00     0.163 C 
HETATM   23  C   UNK N   1       2.930  -2.398  -0.033  0.00  0.00     0.071 C 
HETATM   24  C   UNK N   1       1.725  -1.750  -0.068  0.00  0.00     0.019 C 
HETATM   25  C   UNK N   1       0.583  -2.473  -0.479  0.00  0.00     0.266 C 
HETATM   26  N   UNK N   1       0.748  -3.730  -0.999  0.00  0.00    -0.264 N 
HETATM   27  O   UNK N   1      -0.534  -1.999  -0.389  0.00  0.00    -0.266 OA
HETATM   28  N   UNK N   1       1.945  -4.316  -0.978  0.00  0.00    -0.277 N 
HETATM   29  H   UNK N   1      -0.022  -4.203  -1.389  0.00  0.00     0.190 HD
ATOM     30  HN  UNK N   1       2.066  -5.235  -1.404  1.00  0.00     0.189 HD
BRANCH  24  31
HETATM   31  C   UNK N   1       1.742  -0.344   0.431  0.00  0.00     0.016 C 
HETATM   32  C   UNK N   1       0.482   0.440   0.691  0.00  0.00     0.015 C 
HETATM   33  C   UNK N   1       3.087   0.326   0.703  0.00  0.00     0.015 C 
ENDBRANCH  24  31
ENDBRANCH  21  22
ENDBRANCH  16  21
ENDBRANCH   1  13
TORSDOF 4
