REMARK  5 active torsions:
REMARK  status: ('A' for Active; 'I' for Inactive)
REMARK    1  A    between atoms: C_2  and  C_3 
REMARK    2  A    between atoms: C_2  and  O_16 
REMARK    3  A    between atoms: C_5  and  C_9 
REMARK    4  A    between atoms: O_16  and  C_17 
REMARK    5  A    between atoms: C_22  and  C_25 
ROOT
HETATM    1  O   UNK N   1       1.843  -2.928  -0.812  0.00  0.00    -0.309 OA
ENDROOT
BRANCH   1   2
HETATM    2  C   UNK N   1       0.673  -3.648  -0.611  0.00  0.00     0.179 C 
HETATM    3  C   UNK N   1      -0.239  -3.091   0.476  0.00  0.00     0.047 C 
BRANCH   2   4
HETATM    4  C   UNK N   1       1.051  -5.061  -0.299  0.00  0.00     0.064 A 
HETATM    5  C   UNK N   1       2.343  -5.542  -0.224  0.00  0.00     0.070 A 
HETATM    6  C   UNK N   1       2.170  -6.888   0.004  0.00  0.00     0.111 A 
HETATM    7  O   UNK N   1       0.884  -7.153   0.060  0.00  0.00    -0.237 OA
HETATM    8  N   UNK N   1       0.181  -6.073  -0.120  0.00  0.00    -0.262 N 
ATOM      9  HN  UNK N   1      -0.837  -6.005  -0.124  1.00  0.00     0.194 HD
BRANCH   6  10
HETATM   10  C   UNK N   1       3.245  -7.884   0.089  0.00  0.00     0.001 A 
HETATM   11  C   UNK N   1       4.587  -7.486  -0.010  0.00  0.00     0.014 A 
HETATM   12  C   UNK N   1       5.608  -8.439   0.018  0.00  0.00     0.003 A 
HETATM   13  C   UNK N   1       5.293  -9.795   0.135  0.00  0.00     0.024 A 
HETATM   14  C   UNK N   1       3.957 -10.196   0.233  0.00  0.00     0.035 A 
HETATM   15  C   UNK N   1       2.935  -9.243   0.211  0.00  0.00     0.038 A 
HETATM   16 Cl   UNK N   1       3.561 -11.895   0.360  0.00  0.00    -0.084 Cl
ENDBRANCH   6  10
ENDBRANCH   2   4
ENDBRANCH   1   2
BRANCH   1  17
HETATM   17  C   UNK N   1       2.203  -1.713  -0.340  0.00  0.00     0.242 A 
HETATM   18  N   UNK N   1       1.377  -0.810   0.227  0.00  0.00    -0.263 N 
HETATM   19  N   UNK N   1       2.104   0.267   0.490  0.00  0.00    -0.281 N 
ATOM     20  HN  UNK N   1       0.383  -0.932   0.418  1.00  0.00     0.190 HD
HETATM   21  C   UNK N   1       3.369   0.008   0.087  0.00  0.00     0.135 A 
ATOM     22  HN  UNK N   1       1.771   1.131   0.918  1.00  0.00     0.188 HD
HETATM   23  N   UNK N   1       3.450  -1.233  -0.429  0.00  0.00    -0.300 N 
HETATM   24  C   UNK N   1       4.597  -1.928  -0.999  0.00  0.00     0.161 C 
BRANCH  21  25
HETATM   25  C   UNK N   1       4.469   0.993   0.161  0.00  0.00     0.012 A 
HETATM   26  C   UNK N   1       4.197   2.307   0.557  0.00  0.00     0.032 A 
HETATM   27  C   UNK N   1       5.226   3.251   0.570  0.00  0.00     0.088 A 
HETATM   28  N   UNK N   1       6.487   2.893   0.205  0.00  0.00    -0.375 N 
HETATM   29  C   UNK N   1       6.780   1.621  -0.175  0.00  0.00     0.088 A 
ATOM     30  HN  UNK N   1       7.228   3.594   0.217  1.00  0.00     0.164 HD
HETATM   31  C   UNK N   1       5.775   0.652  -0.210  0.00  0.00     0.032 A 
ENDBRANCH  21  25
ENDBRANCH   1  17
TORSDOF 5
