REMARK  7 active torsions:
REMARK  status: ('A' for Active; 'I' for Inactive)
REMARK    1  A    between atoms: C_4  and  C_25 
REMARK    2  A    between atoms: C_19  and  C_20 
REMARK    3  A    between atoms: C_19  and  O_24 
REMARK    4  A    between atoms: C_20  and  C_21 
REMARK    5  A    between atoms: C_21  and  C_22 
REMARK    6  A    between atoms: C_22  and  O_23 
REMARK    7  A    between atoms: C_28  and  N_31 
ROOT
HETATM    1  C   UNK N   1       1.153  -2.401   1.528  0.00  0.00     0.019 C 
HETATM    2  C   UNK N   1       0.755  -2.687   0.065  0.00  0.00    -0.008 C 
HETATM    3  C   UNK N   1       1.497  -1.743  -0.881  0.00  0.00     0.026 C 
HETATM    4  C   UNK N   1       3.030  -1.979  -0.922  0.00  0.00     0.049 C 
HETATM    5  C   UNK N   1       3.543  -3.381  -0.494  0.00  0.00    -0.060 C 
HETATM    6  C   UNK N   1       4.867  -3.724  -0.545  0.00  0.00    -0.048 C 
HETATM    7  C   UNK N   1       5.908  -2.733  -1.019  0.00  0.00     0.047 C 
HETATM    8  C   UNK N   1       7.382  -3.130  -0.877  0.00  0.00     0.087 C 
HETATM    9  C   UNK N   1       7.648  -4.430  -0.180  0.00  0.00     0.150 C 
HETATM   10  O   UNK N   1       8.789  -4.707   0.150  0.00  0.00    -0.293 OA
HETATM   11  C   UNK N   1       6.576  -5.399   0.066  0.00  0.00     0.057 C 
HETATM   12  C   UNK N   1       5.291  -5.100  -0.123  0.00  0.00    -0.048 C 
HETATM   13  C   UNK N   1       4.278  -6.185   0.117  0.00  0.00     0.040 C 
HETATM   14  C   UNK N   1       2.923  -5.818  -0.468  0.00  0.00     0.014 C 
HETATM   15  C   UNK N   1       2.554  -4.429   0.018  0.00  0.00     0.021 C 
HETATM   16  C   UNK N   1       1.111  -4.097  -0.333  0.00  0.00     0.005 C 
HETATM   17  C   UNK N   1       0.062  -4.984   0.323  0.00  0.00     0.009 C 
HETATM   18  C   UNK N   1      -1.137  -4.062   0.563  0.00  0.00     0.039 C 
HETATM   19  C   UNK N   1      -0.776  -2.718  -0.082  0.00  0.00     0.066 C 
ENDROOT
BRANCH   4  20
HETATM   20  C   UNK N   1       3.760  -0.740  -0.450  0.00  0.00    -0.050 A 
HETATM   21  C   UNK N   1       3.683   0.410  -1.246  0.00  0.00     0.010 A 
HETATM   22  C   UNK N   1       4.416   1.552  -0.922  0.00  0.00     0.030 A 
HETATM   23  C   UNK N   1       5.255   1.566   0.203  0.00  0.00     0.029 A 
HETATM   24  C   UNK N   1       5.315   0.420   1.018  0.00  0.00     0.030 A 
HETATM   25  C   UNK N   1       4.570  -0.724   0.698  0.00  0.00     0.010 A 
BRANCH  23  26
HETATM   26  N   UNK N   1       6.049   2.718   0.493  0.00  0.00    -0.390 N 
HETATM   27  C   UNK N   1       6.986   2.714   1.590  0.00  0.00     0.149 C 
HETATM   28  C   UNK N   1       5.983   3.892  -0.342  0.00  0.00     0.149 C 
ENDBRANCH  23  26
ENDBRANCH   4  20
BRANCH  19  29
HETATM   29  C   UNK N   1      -1.458  -1.516   0.595  0.00  0.00     0.040 C 
BRANCH  29  30
HETATM   30  C   UNK N   1      -2.911  -1.740   1.023  0.00  0.00     0.029 C 
BRANCH  30  31
HETATM   31  C   UNK N   1      -3.854  -1.897  -0.153  0.00  0.00     0.164 C 
BRANCH  31  32
HETATM   32  O   UNK N   1      -4.093  -3.251  -0.383  0.00  0.00    -0.401 OA
HETATM   33  H   UNK N   1      -4.992  -3.578  -0.544  0.00  0.00     0.209 HD
ENDBRANCH  31  32
ENDBRANCH  30  31
ENDBRANCH  29  30
ENDBRANCH  19  29
BRANCH  19  34
HETATM   34  O   UNK N   1      -1.139  -2.762  -1.434  0.00  0.00    -0.389 OA
HETATM   35  H   UNK N   1      -1.292  -2.560  -2.370  0.00  0.00     0.210 HD
ENDBRANCH  19  34
TORSDOF 7
