REMARK WARNING: 32 MAX_TORS EXCEEDED!!!
REMARK  52 active torsions:
REMARK  status: ('A' for Active; 'I' for Inactive)
REMARK    1  A    between atoms: C_4  and  C_7 
REMARK    2  A    between atoms: C_7  and  C_8 
REMARK    3  A    between atoms: C_7  and  C_14 
REMARK    4  A    between atoms: C_14  and  C_15 
REMARK    5  A    between atoms: C_14  and  N_27 
REMARK       I    between atoms: C_15  and  N_17 
REMARK    6  A    between atoms: C_18  and  N_17 
REMARK    7  A    between atoms: C_18  and  C_19 
REMARK    8  A    between atoms: C_18  and  C_24 
REMARK    9  A    between atoms: C_19  and  C_20 
REMARK   10  A    between atoms: C_20  and  C_21 
REMARK   11  A    between atoms: C_21  and  C_22 
REMARK   12  A    between atoms: C_22  and  N_23 
REMARK       I    between atoms: C_24  and  N_26 
REMARK       I    between atoms: N_27  and  C_28 
REMARK   13  A    between atoms: C_28  and  C_30 
REMARK   14  A    between atoms: C_30  and  C_31 
REMARK   15  A    between atoms: C_30  and  N_41 
REMARK   16  A    between atoms: C_31  and  C_32 
REMARK       I    between atoms: N_41  and  C_42 
REMARK   17  A    between atoms: C_42  and  C_44 
REMARK   18  A    between atoms: C_44  and  C_45 
REMARK   19  A    between atoms: C_44  and  N_50 
REMARK   20  A    between atoms: C_45  and  C_46 
REMARK   21  A    between atoms: C_46  and  C_47 
REMARK   22  A    between atoms: C_47  and  C_48 
REMARK   23  A    between atoms: C_48  and  N_49 
REMARK       I    between atoms: N_50  and  C_51 
REMARK   24  A    between atoms: C_51  and  C_53 
REMARK   25  A    between atoms: C_53  and  C_54 
REMARK   26  A    between atoms: C_53  and  N_59 
REMARK   27  A    between atoms: C_54  and  C_55 
REMARK   28  A    between atoms: C_55  and  C_56 
REMARK   29  A    between atoms: C_56  and  C_57 
REMARK   30  A    between atoms: C_57  and  N_58 
REMARK       I    between atoms: N_59  and  C_60 
REMARK   31  A    between atoms: C_60  and  C_62 
REMARK   32  A    between atoms: C_62  and  C_63 
REMARK   33  A    between atoms: C_62  and  N_73 
REMARK   34  A    between atoms: C_63  and  C_64 
REMARK       I    between atoms: N_73  and  C_74 
REMARK   35  A    between atoms: C_74  and  C_76 
REMARK   36  A    between atoms: C_76  and  C_77 
REMARK   37  A    between atoms: C_76  and  N_87 
REMARK   38  A    between atoms: C_77  and  C_78 
REMARK       I    between atoms: N_87  and  C_88 
REMARK   39  A    between atoms: C_88  and  C_90 
REMARK   40  A    between atoms: C_90  and  C_91 
REMARK   41  A    between atoms: C_90  and  N_96 
REMARK   42  A    between atoms: C_91  and  C_92 
REMARK   43  A    between atoms: C_92  and  C_93 
REMARK   44  A    between atoms: C_93  and  C_94 
REMARK   45  A    between atoms: C_94  and  N_95 
REMARK       I    between atoms: N_96  and  C_97 
REMARK   46  A    between atoms: C_97  and  C_99 
REMARK   47  A    between atoms: C_99  and  C_100 
REMARK   48  A    between atoms: C_99  and  N_105 
REMARK   49  A    between atoms: C_100  and  C_101 
REMARK   50  A    between atoms: C_101  and  C_102 
REMARK   51  A    between atoms: C_102  and  C_103 
REMARK   52  A    between atoms: C_103  and  N_104 
ROOT
HETATM    1  C   UNK N   1      -6.163  -0.981  -1.826  0.00  0.00     0.176 C 
ENDROOT
BRANCH   1   2
HETATM    2  C   UNK N   1      -7.559  -0.608  -1.474  0.00  0.00     0.241 C 
HETATM    3  N   UNK N   1      -7.981  -0.914  -0.220  0.00  0.00    -0.346 N 
HETATM    4  H   UNK N   1      -7.284  -1.187   0.419  0.00  0.00     0.163 HD
HETATM    5  O   UNK N   1      -8.314  -0.143  -2.315  0.00  0.00    -0.271 OA
BRANCH   3   6
HETATM    6  C   UNK N   1      -9.330  -0.884   0.284  0.00  0.00     0.176 C 
BRANCH   6   7
HETATM    7  C   UNK N   1     -10.326  -1.586  -0.599  0.00  0.00     0.241 C 
HETATM    8  N   UNK N   1     -10.861  -2.775  -0.236  0.00  0.00    -0.346 N 
HETATM    9  H   UNK N   1     -11.432  -3.246  -0.885  0.00  0.00     0.163 HD
HETATM   10  O   UNK N   1     -10.635  -1.104  -1.675  0.00  0.00    -0.271 OA
BRANCH   8  11
HETATM   11  C   UNK N   1     -10.643  -3.389   1.046  0.00  0.00     0.181 C 
BRANCH  11  12
HETATM   12  C   UNK N   1     -11.878  -3.469   1.917  0.00  0.00     0.241 C 
HETATM   13  N   UNK N   1     -13.170  -3.573   1.458  0.00  0.00    -0.345 N 
HETATM   14  H   UNK N   1     -13.844  -3.624   2.175  0.00  0.00     0.163 HD
HETATM   15  O   UNK N   1     -11.702  -3.407   3.123  0.00  0.00    -0.271 OA
BRANCH  13  16
HETATM   16  C   UNK N   1     -13.739  -3.625   0.107  0.00  0.00     0.189 C 
BRANCH  16  17
HETATM   17  C   UNK N   1     -14.465  -2.367  -0.410  0.00  0.00     0.083 C 
BRANCH  17  18
HETATM   18  C   UNK N   1     -13.704  -1.121  -0.690  0.00  0.00    -0.047 A 
HETATM   19  C   UNK N   1     -13.173  -0.377   0.369  0.00  0.00     0.008 A 
HETATM   20  C   UNK N   1     -12.710   0.914   0.141  0.00  0.00     0.001 A 
HETATM   21  C   UNK N   1     -12.771   1.469  -1.140  0.00  0.00     0.000 A 
HETATM   22  C   UNK N   1     -13.296   0.728  -2.198  0.00  0.00     0.001 A 
HETATM   23  C   UNK N   1     -13.781  -0.560  -1.969  0.00  0.00     0.008 A 
ENDBRANCH  17  18
BRANCH  17  24
HETATM   24  C   UNK N   1     -15.825  -2.016   0.136  0.00  0.00    -0.047 A 
HETATM   25  C   UNK N   1     -16.965  -2.470  -0.534  0.00  0.00     0.008 A 
HETATM   26  C   UNK N   1     -18.233  -2.010  -0.166  0.00  0.00     0.001 A 
HETATM   27  C   UNK N   1     -18.365  -1.054   0.845  0.00  0.00     0.000 A 
HETATM   28  C   UNK N   1     -17.232  -0.575   1.505  0.00  0.00     0.001 A 
HETATM   29  C   UNK N   1     -15.968  -1.052   1.152  0.00  0.00     0.008 A 
ENDBRANCH  17  24
ENDBRANCH  16  17
BRANCH  16  30
HETATM   30  C   UNK N   1     -13.222  -4.593  -0.947  0.00  0.00     0.242 C 
HETATM   31  O   UNK N   1     -12.312  -4.246  -1.677  0.00  0.00    -0.271 OA
HETATM   32  N   UNK N   1     -13.828  -5.786  -1.215  0.00  0.00    -0.346 N 
HETATM   33  H   UNK N   1     -13.432  -6.316  -1.944  0.00  0.00     0.163 HD
BRANCH  32  34
HETATM   34  C   UNK N   1     -14.984  -6.371  -0.560  0.00  0.00     0.176 C 
BRANCH  34  35
HETATM   35  C   UNK N   1     -16.111  -5.370  -0.329  0.00  0.00     0.035 C 
BRANCH  35  36
HETATM   36  C   UNK N   1     -17.219  -5.914   0.557  0.00  0.00     0.004 C 
BRANCH  36  37
HETATM   37  C   UNK N   1     -18.555  -5.820  -0.149  0.00  0.00     0.019 C 
BRANCH  37  38
HETATM   38  C   UNK N   1     -18.829  -7.098  -0.920  0.00  0.00     0.111 C 
BRANCH  38  39
HETATM   39  N   UNK N   1     -19.086  -8.188   0.006  0.00  0.00    -0.430 N 
HETATM   40  H   UNK N   1     -19.838  -8.414   0.656  0.00  0.00     0.149 HD
HETATM   41  H   UNK N   1     -18.342  -8.886   0.006  0.00  0.00     0.149 HD
ENDBRANCH  38  39
ENDBRANCH  37  38
ENDBRANCH  36  37
ENDBRANCH  35  36
ENDBRANCH  34  35
BRANCH  34  42
HETATM   42  C   UNK N   1     -14.618  -7.219   0.618  0.00  0.00     0.238 C 
HETATM   43  O   UNK N   1     -14.249  -6.709   1.662  0.00  0.00    -0.271 OA
HETATM   44  N   UNK N   1     -14.727  -8.559   0.527  0.00  0.00    -0.368 N 
HETATM   45  H   UNK N   1     -15.615  -8.979   0.461  0.00  0.00     0.159 HD
HETATM   46  H   UNK N   1     -13.918  -9.120   0.527  0.00  0.00     0.159 HD
ENDBRANCH  34  42
ENDBRANCH  32  34
ENDBRANCH  16  30
ENDBRANCH  13  16
ENDBRANCH  11  12
BRANCH  11  47
HETATM   47  C   UNK N   1      -9.647  -4.582   1.069  0.00  0.00     0.075 C 
BRANCH  47  48
HETATM   48  C   UNK N   1     -10.186  -5.968   0.799  0.00  0.00    -0.028 A 
HETATM   49  C   UNK N   1     -11.518  -6.337   0.768  0.00  0.00     0.096 A 
HETATM   50  N   UNK N   1     -11.631  -7.657   0.472  0.00  0.00    -0.365 N 
HETATM   51  C   UNK N   1     -10.385  -8.114   0.326  0.00  0.00     0.042 A 
HETATM   52  H   UNK N   1     -12.465  -8.173   0.382  0.00  0.00     0.165 HD
HETATM   53  C   UNK N   1      -9.467  -7.122   0.530  0.00  0.00    -0.002 A 
HETATM   54  C   UNK N   1     -10.013  -9.418   0.001  0.00  0.00     0.030 A 
HETATM   55  C   UNK N   1      -8.102  -7.375   0.437  0.00  0.00     0.014 A 
HETATM   56  C   UNK N   1      -7.687  -8.681   0.110  0.00  0.00     0.001 A 
HETATM   57  C   UNK N   1      -8.641  -9.698  -0.113  0.00  0.00     0.002 A 
ENDBRANCH  47  48
ENDBRANCH  11  47
ENDBRANCH   8  11
ENDBRANCH   6   7
BRANCH   6  58
HETATM   58  C   UNK N   1      -9.704   0.394   1.023  0.00  0.00     0.035 C 
BRANCH  58  59
HETATM   59  C   UNK N   1      -9.810   1.620   0.145  0.00  0.00     0.004 C 
BRANCH  59  60
HETATM   60  C   UNK N   1     -10.337   2.756   1.004  0.00  0.00     0.019 C 
BRANCH  60  61
HETATM   61  C   UNK N   1     -10.992   3.807   0.134  0.00  0.00     0.111 C 
BRANCH  61  62
HETATM   62  N   UNK N   1     -12.149   4.348   0.822  0.00  0.00    -0.430 N 
HETATM   63  H   UNK N   1     -12.227   5.243   1.305  0.00  0.00     0.149 HD
HETATM   64  H   UNK N   1     -12.985   3.764   0.822  0.00  0.00     0.149 HD
ENDBRANCH  61  62
ENDBRANCH  60  61
ENDBRANCH  59  60
ENDBRANCH  58  59
ENDBRANCH   6  58
ENDBRANCH   3   6
ENDBRANCH   1   2
BRANCH   1  65
HETATM   65  C   UNK N   1      -5.729  -2.399  -1.582  0.00  0.00     0.035 C 
BRANCH  65  66
HETATM   66  C   UNK N   1      -5.527  -2.577  -0.081  0.00  0.00     0.004 C 
BRANCH  66  67
HETATM   67  C   UNK N   1      -6.632  -3.396   0.563  0.00  0.00     0.019 C 
BRANCH  67  68
HETATM   68  C   UNK N   1      -6.549  -4.843   0.130  0.00  0.00     0.111 C 
BRANCH  68  69
HETATM   69  N   UNK N   1      -7.174  -5.007  -1.172  0.00  0.00    -0.430 N 
HETATM   70  H   UNK N   1      -7.493  -4.685  -2.085  0.00  0.00     0.149 HD
HETATM   71  H   UNK N   1      -7.442  -5.992  -1.172  0.00  0.00     0.149 HD
ENDBRANCH  68  69
ENDBRANCH  67  68
ENDBRANCH  66  67
ENDBRANCH  65  66
ENDBRANCH   1  65
BRANCH   1  72
HETATM   72  N   UNK N   1      -5.234  -0.081  -2.473  0.00  0.00    -0.346 N 
HETATM   73  C   UNK N   1      -4.614   0.992  -1.907  0.00  0.00     0.241 C 
HETATM   74  O   UNK N   1      -3.838   1.635  -2.596  0.00  0.00    -0.271 OA
HETATM   75  H   UNK N   1      -5.029  -0.262  -3.419  0.00  0.00     0.163 HD
BRANCH  73  76
HETATM   76  C   UNK N   1      -4.787   1.391  -0.448  0.00  0.00     0.181 C 
BRANCH  76  77
HETATM   77  C   UNK N   1      -6.241   1.484   0.010  0.00  0.00     0.075 C 
BRANCH  77  78
HETATM   78  C   UNK N   1      -6.975   2.651  -0.583  0.00  0.00    -0.028 A 
HETATM   79  C   UNK N   1      -7.476   2.777  -1.877  0.00  0.00     0.096 A 
HETATM   80  N   UNK N   1      -8.074   3.987  -2.015  0.00  0.00    -0.365 N 
HETATM   81  C   UNK N   1      -7.939   4.609  -0.826  0.00  0.00     0.042 A 
HETATM   82  H   UNK N   1      -8.517   4.339  -2.821  0.00  0.00     0.165 HD
HETATM   83  C   UNK N   1      -7.275   3.817   0.063  0.00  0.00    -0.002 A 
HETATM   84  C   UNK N   1      -8.389   5.880  -0.488  0.00  0.00     0.030 A 
HETATM   85  C   UNK N   1      -7.004   4.237   1.366  0.00  0.00     0.014 A 
HETATM   86  C   UNK N   1      -7.443   5.518   1.742  0.00  0.00     0.001 A 
HETATM   87  C   UNK N   1      -8.134   6.337   0.820  0.00  0.00     0.002 A 
ENDBRANCH  77  78
ENDBRANCH  76  77
BRANCH  76  88
HETATM   88  N   UNK N   1      -4.234   2.708  -0.210  0.00  0.00    -0.346 N 
HETATM   89  C   UNK N   1      -3.119   3.002   0.490  0.00  0.00     0.241 C 
HETATM   90  O   UNK N   1      -2.889   4.170   0.752  0.00  0.00    -0.271 OA
HETATM   91  H   UNK N   1      -4.723   3.468  -0.601  0.00  0.00     0.163 HD
BRANCH  89  92
HETATM   92  C   UNK N   1      -2.129   1.966   0.926  0.00  0.00     0.181 C 
BRANCH  92  93
HETATM   93  C   UNK N   1      -1.313   1.452  -0.252  0.00  0.00     0.075 C 
BRANCH  93  94
HETATM   94  C   UNK N   1       0.052   2.061  -0.194  0.00  0.00    -0.028 A 
HETATM   95  C   UNK N   1       1.228   1.359   0.027  0.00  0.00     0.096 A 
HETATM   96  N   UNK N   1       2.278   2.211   0.060  0.00  0.00    -0.365 N 
HETATM   97  C   UNK N   1       1.766   3.441  -0.141  0.00  0.00     0.042 A 
HETATM   98  H   UNK N   1       3.224   1.980   0.201  0.00  0.00     0.165 HD
HETATM   99  C   UNK N   1       0.412   3.383  -0.306  0.00  0.00    -0.002 A 
HETATM  100  C   UNK N   1       2.470   4.637  -0.177  0.00  0.00     0.030 A 
HETATM  101  C   UNK N   1      -0.341   4.536  -0.529  0.00  0.00     0.014 A 
HETATM  102  C   UNK N   1       0.337   5.767  -0.572  0.00  0.00     0.001 A 
HETATM  103  C   UNK N   1       1.738   5.819  -0.394  0.00  0.00     0.002 A 
ENDBRANCH  93  94
ENDBRANCH  92  93
BRANCH  92 104
HETATM  104  N   UNK N   1      -2.707   0.984   1.833  0.00  0.00    -0.346 N 
HETATM  105  C   UNK N   1      -2.561  -0.372   1.847  0.00  0.00     0.241 C 
HETATM  106  O   UNK N   1      -3.125  -1.006   2.726  0.00  0.00    -0.271 OA
HETATM  107  H   UNK N   1      -3.287   1.352   2.538  0.00  0.00     0.163 HD
BRANCH 105 108
HETATM  108  C   UNK N   1      -1.733  -1.128   0.835  0.00  0.00     0.176 C 
BRANCH 108 109
HETATM  109  C   UNK N   1      -0.604  -1.863   1.558  0.00  0.00     0.035 C 
BRANCH 109 110
HETATM  110  C   UNK N   1       0.757  -1.412   1.061  0.00  0.00     0.004 C 
BRANCH 110 111
HETATM  111  C   UNK N   1       1.283  -2.356  -0.006  0.00  0.00     0.019 C 
BRANCH 111 112
HETATM  112  C   UNK N   1       1.961  -1.583  -1.126  0.00  0.00     0.111 C 
BRANCH 112 113
HETATM  113  N   UNK N   1       3.224  -1.031  -0.667  0.00  0.00    -0.430 N 
HETATM  114  H   UNK N   1       4.003  -1.604  -0.344  0.00  0.00     0.149 HD
HETATM  115  H   UNK N   1       3.337  -0.017  -0.667  0.00  0.00     0.149 HD
ENDBRANCH 112 113
ENDBRANCH 111 112
ENDBRANCH 110 111
ENDBRANCH 109 110
ENDBRANCH 108 109
BRANCH 108 116
HETATM  116  N   UNK N   1      -2.581  -2.094   0.174  0.00  0.00    -0.346 N 
HETATM  117  C   UNK N   1      -2.221  -2.780  -0.941  0.00  0.00     0.240 C 
HETATM  118  O   UNK N   1      -1.167  -2.538  -1.507  0.00  0.00    -0.271 OA
HETATM  119  H   UNK N   1      -3.472  -2.266   0.556  0.00  0.00     0.163 HD
BRANCH 117 120
HETATM  120  C   UNK N   1      -3.143  -3.837  -1.479  0.00  0.00     0.167 C 
BRANCH 120 121
HETATM  121  C   UNK N   1      -3.452  -4.910  -0.434  0.00  0.00     0.034 C 
BRANCH 121 122
HETATM  122  C   UNK N   1      -2.256  -5.783  -0.097  0.00  0.00     0.004 C 
BRANCH 122 123
HETATM  123  C   UNK N   1      -2.282  -7.040  -0.951  0.00  0.00     0.019 C 
BRANCH 123 124
HETATM  124  C   UNK N   1      -3.333  -8.016  -0.448  0.00  0.00     0.111 C 
BRANCH 124 125
HETATM  125  N   UNK N   1      -2.862  -8.667   0.762  0.00  0.00    -0.430 N 
HETATM  126  H   UNK N   1      -3.092  -9.182   1.611  0.00  0.00     0.149 HD
HETATM  127  H   UNK N   1      -1.847  -8.562   0.762  0.00  0.00     0.149 HD
ENDBRANCH 124 125
ENDBRANCH 123 124
ENDBRANCH 122 123
ENDBRANCH 121 122
ENDBRANCH 120 121
BRANCH 120 128
HETATM  128  N   UNK N   1      -2.658  -4.427  -2.717  0.00  0.00    -0.418 N 
HETATM  129  H   UNK N   1      -2.846  -4.928  -3.585  0.00  0.00     0.150 HD
HETATM  130  H   UNK N   1      -1.652  -4.259  -2.717  0.00  0.00     0.150 HD
ENDBRANCH 120 128
ENDBRANCH 117 120
ENDBRANCH 108 116
ENDBRANCH 105 108
ENDBRANCH  92 104
ENDBRANCH  89  92
ENDBRANCH  76  88
ENDBRANCH  73  76
ENDBRANCH   1  72
TORSDOF 52
