REMARK  5 active torsions:
REMARK  status: ('A' for Active; 'I' for Inactive)
REMARK    1  A    between atoms: C_8  and  N_10 
REMARK    2  A    between atoms: N_10  and  C_11 
REMARK    3  A    between atoms: C_11  and  C_12 
REMARK    4  A    between atoms: C_15  and  C_19 
REMARK    5  A    between atoms: C_23  and  C_25 
ROOT
HETATM    1  C   UNK N   1      -0.993   0.580   0.827  0.00  0.00     0.036 A 
HETATM    2  C   UNK N   1      -1.473  -0.700   0.494  0.00  0.00     0.128 A 
HETATM    3  C   UNK N   1      -2.793  -0.860   0.044  0.00  0.00     0.055 A 
HETATM    4  C   UNK N   1      -3.617   0.267  -0.089  0.00  0.00    -0.020 A 
HETATM    5  C   UNK N   1      -3.103   1.533   0.216  0.00  0.00     0.055 A 
HETATM    6  C   UNK N   1      -1.817   1.698   0.668  0.00  0.00     0.128 A 
HETATM    7  F   UNK N   1      -1.390   2.949   0.975  0.00  0.00    -0.205 F 
HETATM    8  F   UNK N   1      -0.681  -1.791   0.651  0.00  0.00    -0.205 F 
ENDROOT
BRANCH   4   9
HETATM    9  C   UNK N   1      -5.063   0.177  -0.356  0.00  0.00    -0.025 A 
HETATM   10  C   UNK N   1      -5.754  -1.027  -0.560  0.00  0.00     0.012 A 
HETATM   11  C   UNK N   1      -7.160  -1.012  -0.625  0.00  0.00     0.002 A 
HETATM   12  C   UNK N   1      -7.868   0.192  -0.439  0.00  0.00     0.015 A 
HETATM   13  C   UNK N   1      -7.161   1.386  -0.240  0.00  0.00     0.010 A 
HETATM   14  C   UNK N   1      -5.787   1.354  -0.216  0.00  0.00     0.027 A 
BRANCH  13  15
HETATM   15  C   UNK N   1      -7.789   2.675   0.065  0.00  0.00     0.131 A 
HETATM   16  N   UNK N   1      -9.099   2.873   0.280  0.00  0.00    -0.336 N 
HETATM   17  C   UNK N   1      -9.173   4.184   0.598  0.00  0.00     0.199 A 
ATOM     18  HN  UNK N   1      -9.858   2.195   0.219  1.00  0.00     0.168 HD
HETATM   19  N   UNK N   1      -7.949   4.750   0.574  0.00  0.00    -0.295 N 
HETATM   20  N   UNK N   1      -7.087   3.810   0.247  0.00  0.00    -0.284 N 
HETATM   21  H   UNK N   1      -7.739   5.693   0.765  0.00  0.00     0.187 HD
ATOM     22  HN  UNK N   1      -6.077   3.920   0.150  1.00  0.00     0.188 HD
ENDBRANCH  13  15
ENDBRANCH   4   9
BRANCH   1  23
HETATM   23  C   UNK N   1       0.384   0.750   1.369  0.00  0.00     0.159 C 
BRANCH  23  24
HETATM   24  N   UNK N   1       1.042   1.907   0.771  0.00  0.00    -0.412 N 
HETATM   25  H   UNK N   1       1.265   2.762   1.281  0.00  0.00     0.153 HD
BRANCH  24  26
HETATM   26  C   UNK N   1       1.347   1.696  -0.648  0.00  0.00     0.085 C 
HETATM   27  C   UNK N   1       2.267   2.862  -1.054  0.00  0.00     0.064 C 
HETATM   28  C   UNK N   1       3.563   2.335  -0.584  0.00  0.00    -0.050 A 
HETATM   29  C   UNK N   1       3.530   0.978  -0.436  0.00  0.00    -0.050 A 
HETATM   30  C   UNK N   1       4.685   3.075  -0.224  0.00  0.00     0.007 A 
HETATM   31  C   UNK N   1       4.612   0.273   0.080  0.00  0.00     0.007 A 
HETATM   32  C   UNK N   1       2.217   0.427  -0.791  0.00  0.00     0.064 C 
HETATM   33  C   UNK N   1       5.759   0.991   0.445  0.00  0.00     0.001 A 
HETATM   34  C   UNK N   1       5.797   2.391   0.293  0.00  0.00     0.001 A 
ENDBRANCH  24  26
ENDBRANCH  23  24
ENDBRANCH   1  23
TORSDOF 5
