REMARK  9 active torsions:
REMARK  status: ('A' for Active; 'I' for Inactive)
REMARK    1  A    between atoms: C_2  and  O_3 
REMARK    2  A    between atoms: O_3  and  C_4 
REMARK    3  A    between atoms: C_7  and  C_10 
REMARK    4  A    between atoms: C_10  and  C_11 
REMARK    5  A    between atoms: C_18  and  C_13 
REMARK    6  A    between atoms: C_19  and  O_28 
REMARK    7  A    between atoms: C_20  and  O_27 
REMARK    8  A    between atoms: C_21  and  O_26 
REMARK    9  A    between atoms: C_22  and  S_24 
ROOT
HETATM    1  C   UNK N   1      -1.548  -6.336   0.684  0.00  0.00    -0.032 A 
HETATM    2  C   UNK N   1      -1.419  -7.655   0.244  0.00  0.00     0.019 A 
HETATM    3  C   UNK N   1      -2.547  -8.419  -0.100  0.00  0.00    -0.026 A 
HETATM    4  C   UNK N   1      -3.814  -7.831  -0.026  0.00  0.00     0.011 A 
HETATM    5  C   UNK N   1      -3.960  -6.523   0.432  0.00  0.00     0.025 A 
HETATM    6  C   UNK N   1      -2.844  -5.775   0.813  0.00  0.00     0.040 A 
HETATM    7 Cl   UNK N   1      -3.123  -4.162   1.460  0.00  0.00    -0.084 Cl
ENDROOT
BRANCH   3   8
HETATM    8  C   UNK N   1      -2.444  -9.886  -0.450  0.00  0.00     0.187 C 
HETATM    9  C   UNK N   1      -1.002 -10.439  -0.323  0.00  0.00     0.183 C 
HETATM   10  C   UNK N   1      -0.993 -11.950  -0.558  0.00  0.00     0.181 C 
HETATM   11  C   UNK N   1      -2.079 -12.639   0.262  0.00  0.00     0.188 C 
HETATM   12  C   UNK N   1      -3.392 -11.911  -0.019  0.00  0.00     0.214 C 
HETATM   13  O   UNK N   1      -3.284 -10.589   0.440  0.00  0.00    -0.360 OA
BRANCH   9  14
HETATM   14  O   UNK N   1      -0.156  -9.825  -1.250  0.00  0.00    -0.390 OA
HETATM   15  H   UNK N   1       0.507 -10.121  -1.894  0.00  0.00     0.210 HD
ENDBRANCH   9  14
BRANCH  10  16
HETATM   16  O   UNK N   1       0.258 -12.475  -0.230  0.00  0.00    -0.390 OA
HETATM   17  H   UNK N   1       0.376 -13.411  -0.003  0.00  0.00     0.210 HD
ENDBRANCH  10  16
BRANCH  11  18
HETATM   18  O   UNK N   1      -2.169 -13.979  -0.118  0.00  0.00    -0.389 OA
HETATM   19  H   UNK N   1      -3.007 -14.390  -0.382  0.00  0.00     0.210 HD
ENDBRANCH  11  18
BRANCH  12  20
HETATM   20  S   UNK N   1      -4.791 -12.721   0.812  0.00  0.00    -0.139 SA
HETATM   21  C   UNK N   1      -5.430 -13.378  -0.754  0.00  0.00     0.092 C 
ENDBRANCH  12  20
ENDBRANCH   3   8
BRANCH   1  22
HETATM   22  C   UNK N   1      -0.288  -5.599   1.065  0.00  0.00     0.078 C 
BRANCH  22  23
HETATM   23  C   UNK N   1      -0.147  -4.216   0.495  0.00  0.00    -0.054 A 
HETATM   24  C   UNK N   1       0.568  -3.269   1.233  0.00  0.00     0.010 A 
HETATM   25  C   UNK N   1       0.579  -1.930   0.841  0.00  0.00     0.037 A 
HETATM   26  C   UNK N   1      -0.148  -1.518  -0.279  0.00  0.00     0.068 A 
HETATM   27  C   UNK N   1      -0.833  -2.476  -1.049  0.00  0.00     0.037 A 
HETATM   28  C   UNK N   1      -0.828  -3.818  -0.667  0.00  0.00     0.010 A 
BRANCH  26  29
HETATM   29  O   UNK N   1      -0.218  -0.198  -0.561  0.00  0.00    -0.352 OA
BRANCH  29  30
HETATM   30  C   UNK N   1      -1.117   0.325  -1.463  0.00  0.00     0.171 C 
HETATM   31  C   UNK N   1      -2.195   1.077  -0.705  0.00  0.00     0.034 C 
ENDBRANCH  29  30
ENDBRANCH  26  29
ENDBRANCH  22  23
ENDBRANCH   1  22
TORSDOF 9
