REMARK  15 active torsions:
REMARK  status: ('A' for Active; 'I' for Inactive)
REMARK    1  A    between atoms: C_5  and  C_7 
REMARK    2  A    between atoms: C_7  and  O_8 
REMARK    3  A    between atoms: O_8  and  C_9 
REMARK    4  A    between atoms: C_9  and  C_11 
REMARK    5  A    between atoms: C_11  and  C_12 
REMARK    6  A    between atoms: C_12  and  C_13 
REMARK    7  A    between atoms: C_16  and  O_19 
REMARK    8  A    between atoms: O_19  and  C_20 
REMARK    9  A    between atoms: C_20  and  C_21 
REMARK   10  A    between atoms: C_21  and  C_22 
REMARK   11  A    between atoms: C_21  and  O_35 
REMARK   12  A    between atoms: C_22  and  N_23 
REMARK   13  A    between atoms: N_23  and  C_24 
REMARK   14  A    between atoms: C_24  and  C_25 
REMARK   15  A    between atoms: C_25  and  N_26 
REMARK       I    between atoms: N_26  and  C_27 
REMARK       I    between atoms: C_27  and  N_29 
ROOT
HETATM    1  O   UNK N   1       4.172  -5.860  -1.205  0.00  0.00    -0.349 OA
ENDROOT
BRANCH   1   2
HETATM    2  C   UNK N   1       3.226  -6.754  -0.835  0.00  0.00     0.068 A 
HETATM    3  C   UNK N   1       2.651  -6.720   0.448  0.00  0.00     0.037 A 
HETATM    4  C   UNK N   1       1.622  -7.599   0.779  0.00  0.00     0.010 A 
HETATM    5  C   UNK N   1       1.160  -8.518  -0.165  0.00  0.00    -0.058 A 
HETATM    6  C   UNK N   1       1.751  -8.580  -1.433  0.00  0.00     0.010 A 
HETATM    7  C   UNK N   1       2.795  -7.711  -1.759  0.00  0.00     0.037 A 
BRANCH   5   8
HETATM    8  C   UNK N   1      -0.119  -9.241   0.106  0.00  0.00     0.048 C 
BRANCH   8   9
HETATM    9  C   UNK N   1      -1.260  -8.575  -0.688  0.00  0.00     0.116 C 
BRANCH   9  10
HETATM   10  C   UNK N   1      -1.218  -7.076  -0.545  0.00  0.00     0.259 C 
HETATM   11  O   UNK N   1      -0.920  -6.390  -1.512  0.00  0.00    -0.265 OA
BRANCH  10  12
HETATM   12  O   UNK N   1      -1.382  -6.516   0.680  0.00  0.00    -0.319 OA
BRANCH  12  13
HETATM   13  C   UNK N   1      -0.953  -5.242   1.000  0.00  0.00     0.213 C 
BRANCH  13  14
HETATM   14  C   UNK N   1      -2.009  -4.172   0.748  0.00  0.00     0.173 C 
HETATM   15  C   UNK N   1      -1.990  -3.716  -0.669  0.00  0.00     0.205 C 
HETATM   16  O   UNK N   1      -3.290  -3.295  -0.917  0.00  0.00    -0.353 OA
HETATM   17  C   UNK N   1      -4.084  -4.057  -0.036  0.00  0.00     0.157 C 
HETATM   18  C   UNK N   1      -4.800  -5.142  -0.821  0.00  0.00     0.078 C 
HETATM   19  O   UNK N   1      -3.298  -4.649   0.974  0.00  0.00    -0.346 OA
HETATM   20  C   UNK N   1      -5.110  -3.148   0.612  0.00  0.00     0.078 C 
ENDBRANCH  13  14
ENDBRANCH  12  13
ENDBRANCH  10  12
ENDBRANCH   9  10
ENDBRANCH   8   9
ENDBRANCH   5   8
ENDBRANCH   1   2
BRANCH   1  21
HETATM   21  C   UNK N   1       4.481  -4.758  -0.437  0.00  0.00     0.209 C 
BRANCH  21  22
HETATM   22  C   UNK N   1       5.878  -4.879   0.131  0.00  0.00     0.159 C 
BRANCH  22  23
HETATM   23  C   UNK N   1       5.980  -6.134   0.969  0.00  0.00     0.147 C 
BRANCH  23  24
HETATM   24  N   UNK N   1       6.761  -7.124   0.248  0.00  0.00    -0.417 N 
HETATM   25  H   UNK N   1       6.868  -7.192  -0.764  0.00  0.00     0.153 HD
BRANCH  24  26
HETATM   26  C   UNK N   1       7.361  -8.001   1.244  0.00  0.00     0.133 C 
BRANCH  26  27
HETATM   27  C   UNK N   1       8.543  -7.359   1.991  0.00  0.00     0.143 C 
BRANCH  27  28
HETATM   28  N   UNK N   1       8.826  -6.006   1.560  0.00  0.00    -0.341 N 
HETATM   29  C   UNK N   1       9.758  -5.621   0.639  0.00  0.00     0.318 C 
HETATM   30  O   UNK N   1       9.896  -4.422   0.437  0.00  0.00    -0.247 OA
HETATM   31  N   UNK N   1      10.540  -6.510  -0.062  0.00  0.00    -0.330 N 
HETATM   32  C   UNK N   1      11.540  -5.997  -0.985  0.00  0.00     0.153 C 
HETATM   33  C   UNK N   1      10.413  -7.954   0.083  0.00  0.00     0.153 C 
HETATM   34  C   UNK N   1      12.860  -6.790  -0.877  0.00  0.00     0.187 C 
HETATM   35  O   UNK N   1      12.778  -7.872   0.025  0.00  0.00    -0.388 OA
HETATM   36  C   UNK N   1      11.685  -8.652  -0.381  0.00  0.00     0.187 C 
HETATM   37  H   UNK N   1       8.292  -5.289   1.973  0.00  0.00     0.164 HD
ENDBRANCH  27  28
ENDBRANCH  26  27
ENDBRANCH  24  26
ENDBRANCH  23  24
ENDBRANCH  22  23
BRANCH  22  38
HETATM   38  O   UNK N   1       6.142  -3.772   0.935  0.00  0.00    -0.392 OA
HETATM   39  H   UNK N   1       6.900  -3.546   1.495  0.00  0.00     0.210 HD
ENDBRANCH  22  38
ENDBRANCH  21  22
ENDBRANCH   1  21
TORSDOF 15
