REMARK  4 active torsions:
REMARK  status: ('A' for Active; 'I' for Inactive)
REMARK    1  A    between atoms: C_2  and  C_5 
REMARK    2  A    between atoms: C_5  and  C_6 
REMARK    3  A    between atoms: C_6  and  C_7 
REMARK    4  A    between atoms: C_7  and  C_8 
ROOT
HETATM    1  C   UNK N   1       0.016  -0.136   0.316  0.00  0.00    -0.032 A 
HETATM    2  C   UNK N   1      -1.186  -0.844   0.269  0.00  0.00     0.091 A 
HETATM    3  C   UNK N   1      -1.168  -2.217   0.028  0.00  0.00     0.289 A 
HETATM    4  O   UNK N   1      -2.215  -2.835  -0.019  0.00  0.00    -0.260 OA
HETATM    5  O   UNK N   1      -0.016  -2.857  -0.140  0.00  0.00    -0.257 OA
HETATM    6  C   UNK N   1       1.160  -2.237  -0.097  0.00  0.00     0.172 A 
HETATM    7  C   UNK N   1       1.231  -0.841   0.127  0.00  0.00     0.090 A 
HETATM    8  C   UNK N   1       2.512  -0.242   0.167  0.00  0.00     0.264 A 
HETATM    9  O   UNK N   1       2.645   0.956   0.346  0.00  0.00    -0.267 OA
HETATM   10  N   UNK N   1       3.628  -1.017   0.002  0.00  0.00    -0.275 N 
HETATM   11  C   UNK N   1       3.528  -2.365  -0.202  0.00  0.00     0.329 A 
HETATM   12  O   UNK N   1       4.535  -3.036  -0.334  0.00  0.00    -0.247 OA
HETATM   13  N   UNK N   1       2.298  -2.961  -0.254  0.00  0.00    -0.288 N 
HETATM   14  H   UNK N   1       4.518  -0.596   0.030  0.00  0.00     0.173 HD
HETATM   15  H   UNK N   1       2.237  -3.931  -0.408  0.00  0.00     0.172 HD
ENDROOT
BRANCH   1  16
HETATM   16  C   UNK N   1      -0.024   1.328   0.645  0.00  0.00     0.040 C 
BRANCH  16  17
HETATM   17  C   UNK N   1      -0.902   2.141  -0.289  0.00  0.00     0.005 C 
BRANCH  17  18
HETATM   18  C   UNK N   1      -1.422   3.320   0.517  0.00  0.00     0.009 C 
BRANCH  18  19
HETATM   19  C   UNK N   1      -2.515   4.083  -0.207  0.00  0.00    -0.044 A 
HETATM   20  C   UNK N   1      -2.181   5.314  -1.025  0.00  0.00     0.015 C 
HETATM   21  C   UNK N   1      -3.809   3.366  -0.525  0.00  0.00     0.010 A 
HETATM   22  C   UNK N   1      -3.724   4.294   0.676  0.00  0.00     0.010 A 
ENDBRANCH  18  19
ENDBRANCH  17  18
ENDBRANCH  16  17
ENDBRANCH   1  16
TORSDOF 4
