REMARK  1 active torsions:
REMARK  status: ('A' for Active; 'I' for Inactive)
REMARK    1  A    between atoms: N_14  and  C_6 
REMARK       I    between atoms: N_8  and  C_7 
ROOT
HETATM    1  C   UNK N   1       1.739   0.943  -0.000  0.00  0.00     0.711 A 
HETATM    2  N   UNK N   1       0.518   1.329  -0.000  0.00  0.00    -0.232 N 
ATOM      3  HN  UNK N   1      -0.235   0.641  -0.000  1.00  0.00     0.174 HD
HETATM    4  N   UNK N   1       2.124  -0.341  -0.000  0.00  0.00    -0.113 N 
ATOM      5  HN  UNK N   1       1.526  -1.167  -0.000  1.00  0.00     0.203 HD
HETATM    6  N   UNK N   1       3.453  -0.307  -0.000  0.00  0.00     0.009 NA
HETATM    7  N   UNK N   1       3.866   0.954   0.000  0.00  0.00    -0.204 N 
HETATM    8  N   UNK N   1       2.810   1.751   0.000  0.00  0.00    -0.073 N 
HETATM    9  H   UNK N   1       0.306   2.291  -0.000  0.00  0.00     0.174 HD
HETATM   10  H   UNK N   1       4.806   1.248   0.000  0.00  0.00     0.207 HD
ENDROOT
BRANCH   8  11
HETATM   11  C   UNK N   1       2.882   3.181   0.000  0.00  0.00     0.075 A 
HETATM   12  C   UNK N   1       1.717   3.962   0.000  0.00  0.00     0.032 A 
HETATM   13  C   UNK N   1       1.805   5.355   0.000  0.00  0.00     0.002 A 
HETATM   14  C   UNK N   1       3.058   5.974  -0.000  0.00  0.00     0.000 A 
HETATM   15  C   UNK N   1       4.222   5.202  -0.000  0.00  0.00     0.002 A 
HETATM   16  C   UNK N   1       4.134   3.810   0.000  0.00  0.00     0.032 A 
ENDBRANCH   8  11
TORSDOF 1
