REMARK  9 active torsions:
REMARK  status: ('A' for Active; 'I' for Inactive)
REMARK    1  A    between atoms: N_32  and  C_4 
REMARK    2  A    between atoms: C_14  and  C_7 
REMARK    3  A    between atoms: C_21  and  C_8 
REMARK    4  A    between atoms: C_13  and  C_12 
REMARK    5  A    between atoms: O_34  and  C_12 
REMARK    6  A    between atoms: O_34  and  C_15 
REMARK    7  A    between atoms: C_20  and  C_17 
REMARK    8  A    between atoms: N_22  and  C_19 
REMARK    9  A    between atoms: O_33  and  C_21 
ROOT
HETATM    1  C   UNK N   1       5.352   0.838  -0.706  0.00  0.00     0.128 A 
HETATM    2  C   UNK N   1       4.311  -1.288  -0.405  0.00  0.00     0.116 A 
HETATM    3  C   UNK N   1       4.122   1.510  -0.507  0.00  0.00     0.113 A 
HETATM    4  C   UNK N   1       3.096  -0.649  -0.270  0.00  0.00     0.100 A 
HETATM    5  C   UNK N   1       2.978   0.702  -0.311  0.00  0.00     0.101 A 
HETATM    6  C   UNK N   1       1.034  -0.186  -0.001  0.00  0.00     0.141 A 
HETATM    7  N   UNK N   1       5.426  -0.534  -0.641  0.00  0.00    -0.354 N 
ATOM      8  HN  UNK N   1       6.326  -0.996  -0.770  1.00  0.00     0.166 HD
HETATM    9  N   UNK N   1       1.899  -1.221  -0.060  0.00  0.00    -0.336 N 
ATOM     10  HN  UNK N   1       1.691  -2.215   0.033  1.00  0.00     0.168 HD
HETATM   11  N   UNK N   1       1.673   1.013  -0.127  0.00  0.00    -0.327 N 
ENDROOT
BRANCH   6  12
HETATM   12  C   UNK N   1      -0.420  -0.429   0.161  0.00  0.00     0.146 A 
HETATM   13  C   UNK N   1      -1.517   0.382  -0.056  0.00  0.00     0.154 A 
HETATM   14  N   UNK N   1      -2.619  -0.338   0.194  0.00  0.00    -0.224 N 
HETATM   15  O   UNK N   1      -2.204  -1.521   0.545  0.00  0.00    -0.155 OA
ATOM     16  HN  UNK N   1      -3.587  -0.022   0.124  1.00  0.00     0.198 HD
HETATM   17  N   UNK N   1      -0.903  -1.629   0.530  0.00  0.00    -0.234 N 
ATOM     18  HN  UNK N   1      -0.359  -2.462   0.755  1.00  0.00     0.197 HD
BRANCH  13  19
HETATM   19  N   UNK N   1      -1.550   1.701  -0.545  0.00  0.00    -0.382 N 
HETATM   20  H   UNK N   1      -0.762   2.183  -0.887  0.00  0.00     0.157 HD
HETATM   21  H   UNK N   1      -2.414   2.172  -0.545  0.00  0.00     0.157 HD
ENDBRANCH  13  19
ENDBRANCH   6  12
BRANCH  11  22
HETATM   22  C   UNK N   1       1.085   2.334  -0.051  0.00  0.00     0.126 C 
HETATM   23  C   UNK N   1       0.621   2.610   1.372  0.00  0.00     0.027 C 
ENDBRANCH  11  22
BRANCH   2  24
HETATM   24  C   UNK N   1       4.354  -2.709  -0.223  0.00  0.00    -0.043 C 
HETATM   25  C   UNK N   1       4.133  -3.862   0.045  0.00  0.00    -0.062 C 
BRANCH  25  26
HETATM   26  C   UNK N   1       3.821  -5.194   0.559  0.00  0.00     0.114 C 
HETATM   27  C   UNK N   1       4.183  -6.269  -0.442  0.00  0.00     0.060 C 
HETATM   28  C   UNK N   1       4.548  -5.399   1.871  0.00  0.00     0.060 C 
BRANCH  26  29
HETATM   29  O   UNK N   1       2.452  -5.246   0.825  0.00  0.00    -0.378 OA
HETATM   30  H   UNK N   1       1.945  -4.440   1.011  0.00  0.00     0.211 HD
ENDBRANCH  26  29
ENDBRANCH  25  26
ENDBRANCH   2  24
BRANCH   3  31
HETATM   31  O   UNK N   1       4.096   2.864  -0.493  0.00  0.00    -0.347 OA
BRANCH  31  32
HETATM   32  C   UNK N   1       3.647   3.542   0.621  0.00  0.00     0.182 C 
BRANCH  32  33
HETATM   33  C   UNK N   1       3.219   4.977   0.325  0.00  0.00     0.027 C 
HETATM   34  C   UNK N   1       2.082   5.039  -0.692  0.00  0.00     0.010 C 
HETATM   35  C   UNK N   1       1.579   6.474  -0.882  0.00  0.00     0.020 C 
HETATM   36  C   UNK N   1       2.607   7.510  -0.416  0.00  0.00     0.113 C 
HETATM   37  N   UNK N   1       3.961   7.107  -0.806  0.00  0.00    -0.421 N 
HETATM   38  C   UNK N   1       4.384   5.839  -0.177  0.00  0.00     0.120 C 
HETATM   39  H   UNK N   1       4.548   7.645  -1.443  0.00  0.00     0.153 HD
ENDBRANCH  32  33
ENDBRANCH  31  32
ENDBRANCH   3  31
TORSDOF 9
