REMARK  7 active torsions:
REMARK  status: ('A' for Active; 'I' for Inactive)
REMARK    1  A    between atoms: C_3  and  C_27 
REMARK    2  A    between atoms: N_11  and  C_12 
REMARK    3  A    between atoms: C_12  and  C_13 
REMARK    4  A    between atoms: C_16  and  S_23 
REMARK    5  A    between atoms: C_18  and  C_19 
REMARK    6  A    between atoms: C_27  and  C_28 
REMARK    7  A    between atoms: C_28  and  O_30 
ROOT
HETATM    1  C   UNK N   1      -1.323   0.091  -0.906  0.00  0.00     0.069 C 
HETATM    2  C   UNK N   1       0.095   0.232  -0.458  0.00  0.00     0.017 A 
HETATM    3  C   UNK N   1       0.862   1.393  -0.557  0.00  0.00    -0.012 A 
HETATM    4  C   UNK N   1       2.093   1.080  -0.019  0.00  0.00     0.017 A 
HETATM    5  C   UNK N   1       3.257   1.826   0.129  0.00  0.00     0.017 A 
HETATM    6  C   UNK N   1       4.357   1.201   0.738  0.00  0.00     0.018 A 
HETATM    7  C   UNK N   1       4.242  -0.131   1.192  0.00  0.00     0.090 A 
HETATM    8  N   UNK N   1       3.073  -0.821   1.027  0.00  0.00    -0.351 N 
ATOM      9  HN  UNK N   1       2.989  -1.780   1.364  1.00  0.00     0.166 HD
HETATM   10  C   UNK N   1       2.025  -0.217   0.410  0.00  0.00     0.118 A 
HETATM   11  N   UNK N   1       0.816  -0.760   0.123  0.00  0.00    -0.332 N 
ENDROOT
BRANCH  11  12
HETATM   12  C   UNK N   1       0.302  -2.117   0.385  0.00  0.00     0.170 C 
BRANCH  12  13
HETATM   13  C   UNK N   1       1.204  -3.279  -0.000  0.00  0.00    -0.025 A 
HETATM   14  C   UNK N   1       2.528  -3.052  -0.392  0.00  0.00     0.011 A 
HETATM   15  C   UNK N   1       3.417  -4.100  -0.588  0.00  0.00     0.024 A 
HETATM   16  C   UNK N   1       2.992  -5.412  -0.416  0.00  0.00     0.059 A 
HETATM   17  C   UNK N   1       1.656  -5.674  -0.099  0.00  0.00     0.040 A 
HETATM   18  C   UNK N   1       0.746  -4.619   0.102  0.00  0.00     0.057 A 
BRANCH  16  19
HETATM   19  S   UNK N   1       4.194  -6.736  -0.457  0.00  0.00     0.171 S 
HETATM   20  O   UNK N   1       4.627  -6.939   1.004  0.00  0.00    -0.223 OA
HETATM   21  O   UNK N   1       5.509  -6.143  -0.988  0.00  0.00    -0.223 OA
HETATM   22  C   UNK N   1       4.018  -8.388  -1.179  0.00  0.00     0.167 C 
ENDBRANCH  16  19
BRANCH  18  23
HETATM   23  C   UNK N   1      -0.692  -4.939   0.439  0.00  0.00     0.418 C 
HETATM   24  F   UNK N   1      -1.017  -4.430   1.682  0.00  0.00    -0.166 F 
HETATM   25  F   UNK N   1      -1.522  -4.379  -0.516  0.00  0.00    -0.166 F 
HETATM   26  F   UNK N   1      -0.907  -6.308   0.451  0.00  0.00    -0.166 F 
ENDBRANCH  18  23
ENDBRANCH  12  13
ENDBRANCH  11  12
BRANCH   3  27
HETATM   27  C   UNK N   1       0.425   2.707  -1.135  0.00  0.00     0.151 C 
BRANCH  27  28
HETATM   28  C   UNK N   1       0.510   3.820  -0.133  0.00  0.00     0.143 C 
HETATM   29  O   UNK N   1      -0.509   4.356   0.268  0.00  0.00    -0.650 OA
BRANCH  28  30
HETATM   30  O   UNK N   1       1.708   4.262   0.295  0.00  0.00    -0.776 OA
HETATM   31  H   UNK N   1       2.391   3.694   0.593  0.00  0.00     0.167 HD
ENDBRANCH  28  30
ENDBRANCH  27  28
ENDBRANCH   3  27
TORSDOF 7
