REMARK  11 active torsions:
REMARK  status: ('A' for Active; 'I' for Inactive)
REMARK    1  A    between atoms: C_10  and  C_3 
REMARK    2  A    between atoms: C_5  and  C_7 
REMARK       I    between atoms: C_7  and  N_9 
REMARK    3  A    between atoms: N_17  and  C_18 
REMARK    4  A    between atoms: C_18  and  C_19 
REMARK    5  A    between atoms: C_19  and  N_20 
REMARK    6  A    between atoms: N_20  and  C_21 
REMARK       I    between atoms: N_20  and  C_28 
REMARK    7  A    between atoms: C_21  and  C_22 
REMARK    8  A    between atoms: C_28  and  C_30 
REMARK    9  A    between atoms: C_30  and  C_31 
REMARK   10  A    between atoms: C_30  and  O_33 
REMARK   11  A    between atoms: C_31  and  O_32 
ROOT
HETATM    1  C   UNK N   1       0.334  -1.733  -0.737  0.00  0.00     0.023 C 
HETATM    2  C   UNK N   1       2.023  -1.706  -0.819  0.00  0.00     0.045 C 
HETATM    3  C   UNK N   1       2.649  -0.162  -0.322  0.00  0.00     0.224 A 
HETATM    4  C   UNK N   1       1.719   0.443  -0.988  0.00  0.00     0.038 A 
HETATM    5  C   UNK N   1       1.336   0.077   0.559  0.00  0.00     0.038 A 
HETATM    6  C   UNK N   1       0.546   0.858   0.766  0.00  0.00     0.224 A 
HETATM    7  C   UNK N   1      -0.319  -0.525   0.307  0.00  0.00     0.045 C 
HETATM    8  N   UNK N   1       2.116   0.805   0.846  0.00  0.00     0.099 N 
ENDROOT
BRANCH   8   9
HETATM    9  C   UNK N   1       2.812   2.170   0.897  0.00  0.00     0.293 C 
BRANCH   9  10
HETATM   10  C   UNK N   1       2.746   2.887  -0.461  0.00  0.00     0.156 C 
BRANCH  10  11
HETATM   11  N   UNK N   1       3.648   4.012  -0.567  0.00  0.00    -0.348 N 
HETATM   12  C   UNK N   1       4.980   3.837  -0.834  0.00  0.00     0.250 C 
HETATM   13  O   UNK N   1       5.691   4.831  -0.993  0.00  0.00    -0.270 OA
BRANCH  11  14
HETATM   14  C   UNK N   1       3.055   5.323  -0.562  0.00  0.00     0.130 C 
BRANCH  14  15
HETATM   15  C   UNK N   1       2.244   5.548   0.711  0.00  0.00     0.004 C 
HETATM   16  C   UNK N   1       1.176   6.623   0.491  0.00  0.00     0.006 C 
HETATM   17  C   UNK N   1       1.674   8.059   0.706  0.00  0.00     0.000 C 
HETATM   18  C   UNK N   1       3.197   8.161   0.671  0.00  0.00     0.000 C 
HETATM   19  C   UNK N   1       3.835   7.264   1.739  0.00  0.00     0.000 C 
HETATM   20  C   UNK N   1       3.149   5.896   1.893  0.00  0.00     0.006 C 
ENDBRANCH  14  15
ENDBRANCH  11  14
BRANCH  12  21
HETATM   21  C   UNK N   1       5.623   2.486  -1.005  0.00  0.00     0.233 C 
BRANCH  21  22
HETATM   22  C   UNK N   1       5.678   1.682   0.285  0.00  0.00     0.205 C 
BRANCH  22  23
HETATM   23  O   UNK N   1       6.334   0.470   0.068  0.00  0.00    -0.398 OA
HETATM   24  H   UNK N   1       5.832  -0.346  -0.083  0.00  0.00     0.209 HD
ENDBRANCH  22  23
ENDBRANCH  21  22
BRANCH  21  25
HETATM   25  O   UNK N   1       4.987   1.761  -2.017  0.00  0.00    -0.384 OA
HETATM   26  H   UNK N   1       4.330   1.891  -2.719  0.00  0.00     0.210 HD
ENDBRANCH  21  25
ENDBRANCH  12  21
ENDBRANCH  10  11
ENDBRANCH   9  10
ENDBRANCH   8   9
BRANCH   1  27
HETATM   27  C   UNK N   1      -0.132  -3.083  -0.338  0.00  0.00    -0.053 A 
HETATM   28  C   UNK N   1      -1.490  -3.416  -0.333  0.00  0.00     0.007 A 
HETATM   29  C   UNK N   1      -1.881  -4.704   0.052  0.00  0.00     0.002 A 
HETATM   30  C   UNK N   1      -0.916  -5.650   0.429  0.00  0.00     0.017 A 
HETATM   31  C   UNK N   1       0.444  -5.307   0.423  0.00  0.00     0.032 A 
HETATM   32  C   UNK N   1       0.814  -4.031   0.039  0.00  0.00     0.024 A 
BRANCH  31  33
HETATM   33  C   UNK N   1       1.497  -6.264   0.810  0.00  0.00     0.249 C 
HETATM   34  O   UNK N   1       1.205  -7.403   1.131  0.00  0.00    -0.268 OA
HETATM   35  N   UNK N   1       2.794  -5.885   0.809  0.00  0.00    -0.366 N 
HETATM   36  H   UNK N   1       3.505  -6.565   0.809  0.00  0.00     0.159 HD
HETATM   37  H   UNK N   1       3.027  -4.929   0.809  0.00  0.00     0.159 HD
ENDBRANCH  31  33
ENDBRANCH   1  27
TORSDOF 11
