REMARK  1 active torsions:
REMARK  status: ('A' for Active; 'I' for Inactive)
REMARK    1  A    between atoms: C_15  and  N_16 
ROOT
HETATM    1  C   UNK N   1       0.456  -7.473  -1.421  0.00  0.00     0.041 C 
HETATM    2  C   UNK N   1       0.124  -6.022  -1.146  0.00  0.00     0.136 C 
HETATM    3  C   UNK N   1       0.735  -5.615   0.188  0.00  0.00     0.155 C 
HETATM    4  N   UNK N   1       0.384  -4.234   0.415  0.00  0.00    -0.366 N 
HETATM    5  C   UNK N   1       1.383  -3.217   0.425  0.00  0.00     0.079 A 
HETATM    6  C   UNK N   1       1.013  -1.922   0.847  0.00  0.00    -0.026 A 
HETATM    7  C   UNK N   1       1.887  -0.841   0.710  0.00  0.00     0.028 A 
HETATM    8  C   UNK N   1       3.145  -1.093   0.183  0.00  0.00     0.050 A 
HETATM    9  C   UNK N   1       3.556  -2.350  -0.138  0.00  0.00     0.153 A 
HETATM   10  C   UNK N   1       2.710  -3.448  -0.041  0.00  0.00     0.180 A 
HETATM   11  F   UNK N   1       3.144  -4.670  -0.439  0.00  0.00    -0.201 F 
HETATM   12  O   UNK N   1       4.800  -2.299  -0.555  0.00  0.00    -0.232 OA
HETATM   13  N   UNK N   1       5.239  -1.065  -0.529  0.00  0.00    -0.243 N 
ATOM     14  HN  UNK N   1       6.174  -0.750  -0.785  1.00  0.00     0.196 HD
HETATM   15  C   UNK N   1       4.217  -0.286  -0.100  0.00  0.00     0.146 A 
HETATM   16  C   UNK N   1      -0.330  -1.728   1.451  0.00  0.00     0.072 C 
HETATM   17  C   UNK N   1      -1.400  -2.372   0.580  0.00  0.00     0.149 A 
HETATM   18  C   UNK N   1      -1.040  -3.889   0.318  0.00  0.00     0.141 C 
HETATM   19  C   UNK N   1      -1.533  -4.464  -1.038  0.00  0.00     0.142 C 
HETATM   20  O   UNK N   1      -1.273  -5.851  -1.091  0.00  0.00    -0.378 OA
HETATM   21  C   UNK N   1      -3.006  -4.222  -1.307  0.00  0.00     0.042 C 
HETATM   22  C   UNK N   1      -2.681  -2.345   1.394  0.00  0.00     0.246 A 
HETATM   23  O   UNK N   1      -2.740  -2.969   2.444  0.00  0.00    -0.272 OA
HETATM   24  N   UNK N   1      -3.757  -1.624   1.000  0.00  0.00    -0.278 N 
HETATM   25  C   UNK N   1      -3.765  -0.886  -0.134  0.00  0.00     0.329 A 
HETATM   26  O   UNK N   1      -4.761  -0.243  -0.422  0.00  0.00    -0.247 OA
HETATM   27  N   UNK N   1      -2.685  -0.848  -0.952  0.00  0.00    -0.278 N 
HETATM   28  C   UNK N   1      -1.541  -1.525  -0.687  0.00  0.00     0.246 A 
HETATM   29  O   UNK N   1      -0.607  -1.435  -1.469  0.00  0.00    -0.272 OA
HETATM   30  H   UNK N   1      -4.566  -1.637   1.562  0.00  0.00     0.173 HD
HETATM   31  H   UNK N   1      -2.734  -0.306  -1.773  0.00  0.00     0.173 HD
ENDROOT
BRANCH  15  32
HETATM   32  N   UNK N   1       4.284   1.136   0.018  0.00  0.00    -0.271 N 
HETATM   33  C   UNK N   1       5.494   1.877   0.247  0.00  0.00     0.117 A 
HETATM   34  C   UNK N   1       4.976   3.343   0.304  0.00  0.00     0.206 A 
HETATM   35  C   UNK N   1       6.465   1.721  -0.908  0.00  0.00     0.035 C 
HETATM   36  O   UNK N   1       3.614   3.255   0.071  0.00  0.00    -0.302 OA
HETATM   37  C   UNK N   1       3.254   1.983  -0.083  0.00  0.00     0.369 A 
HETATM   38  O   UNK N   1       2.113   1.651  -0.359  0.00  0.00    -0.238 OA
ENDBRANCH  15  32
TORSDOF 1
