REMARK  12 active torsions:
REMARK  status: ('A' for Active; 'I' for Inactive)
REMARK    1  A    between atoms: C_2  and  C_4 
REMARK    2  A    between atoms: C_2  and  N_22 
REMARK    3  A    between atoms: C_4  and  C_5 
REMARK    4  A    between atoms: C_8  and  O_11 
REMARK    5  A    between atoms: O_11  and  C_12 
REMARK    6  A    between atoms: C_15  and  C_19 
REMARK       I    between atoms: C_19  and  N_21 
REMARK    7  A    between atoms: N_22  and  C_23 
REMARK    8  A    between atoms: C_23  and  C_24 
REMARK    9  A    between atoms: C_24  and  C_25 
REMARK   10  A    between atoms: C_24  and  O_40 
REMARK   11  A    between atoms: C_25  and  O_26 
REMARK   12  A    between atoms: O_26  and  C_27 
ROOT
HETATM    1  C   UNK N   1       5.598  -2.323   1.332  0.00  0.00     0.038 C 
HETATM    2  C   UNK N   1       5.009  -3.717   1.331  0.00  0.00     0.022 C 
HETATM    3  C   UNK N   1       5.057  -4.220   2.763  0.00  0.00     0.038 C 
ENDROOT
BRANCH   2   4
HETATM    4  C   UNK N   1       5.906  -4.629   0.451  0.00  0.00     0.068 C 
BRANCH   4   5
HETATM    5  C   UNK N   1       5.425  -6.041   0.256  0.00  0.00    -0.056 A 
HETATM    6  C   UNK N   1       6.229  -6.988  -0.402  0.00  0.00     0.010 A 
HETATM    7  C   UNK N   1       5.742  -8.290  -0.632  0.00  0.00     0.038 A 
HETATM    8  C   UNK N   1       4.444  -8.628  -0.222  0.00  0.00     0.077 A 
HETATM    9  C   UNK N   1       3.677  -7.674   0.463  0.00  0.00     0.038 A 
HETATM   10  C   UNK N   1       4.158  -6.409   0.696  0.00  0.00     0.010 A 
BRANCH   8  11
HETATM   11  O   UNK N   1       3.916  -9.858  -0.472  0.00  0.00    -0.294 OA
BRANCH  11  12
HETATM   12  C   UNK N   1       2.567 -10.027  -0.481  0.00  0.00     0.147 A 
HETATM   13  C   UNK N   1       1.984 -11.152   0.106  0.00  0.00     0.057 A 
HETATM   14  C   UNK N   1       0.590 -11.207   0.229  0.00  0.00     0.022 A 
HETATM   15  C   UNK N   1      -0.202 -10.147  -0.244  0.00  0.00     0.047 A 
HETATM   16  C   UNK N   1       0.421  -9.074  -0.877  0.00  0.00     0.107 A 
HETATM   17  N   UNK N   1       1.769  -9.037  -0.979  0.00  0.00    -0.346 N 
ATOM     18  HN  UNK N   1       2.206  -8.242  -1.446  1.00  0.00     0.167 HD
BRANCH  15  19
HETATM   19  C   UNK N   1      -1.665 -10.128  -0.051  0.00  0.00     0.250 C 
HETATM   20  O   UNK N   1      -2.322  -9.175  -0.443  0.00  0.00    -0.268 OA
HETATM   21  N   UNK N   1      -2.283 -11.139   0.591  0.00  0.00    -0.366 N 
HETATM   22  H   UNK N   1      -3.148 -11.117   1.061  0.00  0.00     0.159 HD
HETATM   23  H   UNK N   1      -1.812 -12.003   0.591  0.00  0.00     0.159 HD
ENDBRANCH  15  19
ENDBRANCH  11  12
ENDBRANCH   8  11
ENDBRANCH   4   5
ENDBRANCH   2   4
BRANCH   2  24
HETATM   24  N   UNK N   1       3.592  -3.650   0.924  0.00  0.00    -0.410 N 
HETATM   25  H   UNK N   1       2.826  -3.577   1.593  0.00  0.00     0.154 HD
BRANCH  24  26
HETATM   26  C   UNK N   1       3.382  -3.699  -0.523  0.00  0.00     0.148 C 
BRANCH  26  27
HETATM   27  C   UNK N   1       2.214  -2.803  -0.886  0.00  0.00     0.159 C 
BRANCH  27  28
HETATM   28  C   UNK N   1       2.724  -1.439  -1.309  0.00  0.00     0.209 C 
BRANCH  28  29
HETATM   29  O   UNK N   1       3.638  -0.948  -0.407  0.00  0.00    -0.348 OA
BRANCH  29  30
HETATM   30  C   UNK N   1       3.694   0.345  -0.028  0.00  0.00     0.082 A 
HETATM   31  C   UNK N   1       4.961   0.929   0.145  0.00  0.00     0.038 A 
HETATM   32  C   UNK N   1       5.094   2.292   0.471  0.00  0.00     0.005 A 
HETATM   33  C   UNK N   1       3.956   3.097   0.631  0.00  0.00     0.030 A 
HETATM   34  C   UNK N   1       2.709   2.502   0.486  0.00  0.00     0.046 A 
HETATM   35  C   UNK N   1       2.560   1.162   0.178  0.00  0.00     0.036 A 
HETATM   36  N   UNK N   1       1.512   3.115   0.635  0.00  0.00    -0.355 N 
HETATM   37  C   UNK N   1       1.196   0.932   0.163  0.00  0.00     0.006 A 
HETATM   38  C   UNK N   1       0.434  -0.217  -0.034  0.00  0.00     0.014 A 
HETATM   39  C   UNK N   1       0.599   2.145   0.438  0.00  0.00     0.043 A 
HETATM   40  C   UNK N   1      -0.966  -0.109   0.040  0.00  0.00     0.001 A 
HETATM   41  C   UNK N   1      -1.573   1.137   0.307  0.00  0.00     0.002 A 
HETATM   42  C   UNK N   1      -0.785   2.283   0.513  0.00  0.00     0.030 A 
HETATM   43  H   UNK N   1       1.346   4.062   0.842  0.00  0.00     0.166 HD
ENDBRANCH  29  30
ENDBRANCH  28  29
ENDBRANCH  27  28
BRANCH  27  44
HETATM   44  O   UNK N   1       1.505  -3.362  -1.949  0.00  0.00    -0.392 OA
HETATM   45  H   UNK N   1       0.922  -3.130  -2.688  0.00  0.00     0.210 HD
ENDBRANCH  27  44
ENDBRANCH  26  27
ENDBRANCH  24  26
ENDBRANCH   2  24
TORSDOF 12
