REMARK  19 active torsions:
REMARK  status: ('A' for Active; 'I' for Inactive)
REMARK    1  A    between atoms: C_10  and  C_3 
REMARK    2  A    between atoms: N_26  and  C_3 
REMARK    3  A    between atoms: C_11  and  C_4 
REMARK    4  A    between atoms: N_27  and  C_4 
REMARK    5  A    between atoms: C_9  and  C_5 
REMARK    6  A    between atoms: O_28  and  C_5 
REMARK    7  A    between atoms: C_9  and  C_6 
REMARK    8  A    between atoms: O_29  and  C_6 
REMARK    9  A    between atoms: C_10  and  C_7 
REMARK   10  A    between atoms: O_30  and  C_7 
REMARK   11  A    between atoms: C_11  and  C_8 
REMARK   12  A    between atoms: O_31  and  C_8 
REMARK   13  A    between atoms: C_18  and  C_9 
REMARK   14  A    between atoms: O_32  and  C_10 
REMARK   15  A    between atoms: O_33  and  C_11 
REMARK   16  A    between atoms: C_19  and  C_12 
REMARK   17  A    between atoms: C_20  and  C_13 
REMARK   18  A    between atoms: N_24  and  C_17 
REMARK   19  A    between atoms: O_34  and  C_18 
REMARK       I    between atoms: N_26  and  C_19 
REMARK       I    between atoms: N_27  and  C_20 
ROOT
HETATM    1  C   UNK N   1      10.487  -0.049   0.421  0.00  0.00     0.068 A 
HETATM    2  C   UNK N   1       8.080  -0.163  -0.102  0.00  0.00     0.068 A 
HETATM    3  C   UNK N   1       9.285   0.595   0.025  0.00  0.00     0.040 A 
HETATM    4  C   UNK N   1      10.463  -1.414   0.764  0.00  0.00     0.051 A 
HETATM    5  C   UNK N   1       8.124  -1.566   0.137  0.00  0.00     0.051 A 
HETATM    6  C   UNK N   1       9.307  -2.162   0.591  0.00  0.00     0.069 A 
HETATM    7  I   UNK N   1       9.316   2.695  -0.413  0.00  0.00    -0.042 I 
HETATM    8  I   UNK N   1      12.170  -2.415   1.607  0.00  0.00    -0.041 I 
HETATM    9  I   UNK N   1       6.494  -2.882  -0.333  0.00  0.00    -0.041 I 
ENDROOT
BRANCH   6  10
HETATM   10  N   UNK N   1       9.379  -3.561   0.801  0.00  0.00    -0.338 N 
HETATM   11  C   UNK N   1       9.767  -4.354  -0.144  0.00  0.00     0.124 C 
ATOM     12  HN  UNK N   1       9.123  -3.947   1.709  1.00  0.00     0.168 HD
BRANCH  11  13
HETATM   13  C   UNK N   1       9.935  -5.821   0.118  0.00  0.00     0.107 C 
BRANCH  13  14
HETATM   14  C   UNK N   1       8.756  -6.394   0.892  0.00  0.00     0.179 C 
BRANCH  14  15
HETATM   15  O   UNK N   1       7.565  -6.191   0.194  0.00  0.00    -0.400 OA
HETATM   16  H   UNK N   1       7.273  -5.403  -0.291  0.00  0.00     0.209 HD
ENDBRANCH  14  15
ENDBRANCH  13  14
BRANCH  13  17
HETATM   17  C   UNK N   1      11.223  -6.078   0.883  0.00  0.00     0.179 C 
BRANCH  17  18
HETATM   18  O   UNK N   1      12.323  -5.723   0.097  0.00  0.00    -0.400 OA
HETATM   19  H   UNK N   1      12.919  -6.261  -0.448  0.00  0.00     0.209 HD
ENDBRANCH  17  18
ENDBRANCH  13  17
ENDBRANCH  11  13
BRANCH  11  20
HETATM   20  O   UNK N   1      10.058  -3.873  -1.372  0.00  0.00    -0.349 OA
HETATM   21  H   UNK N   1      10.448  -3.881  -2.224  0.00  0.00     0.219 HD
ENDBRANCH  11  20
ENDBRANCH   6  10
BRANCH   1  22
HETATM   22  C   UNK N   1      11.805   0.652   0.403  0.00  0.00     0.256 C 
HETATM   23  N   UNK N   1      12.840   0.147  -0.349  0.00  0.00    -0.350 N 
HETATM   24  C   UNK N   1      12.622  -0.954  -1.267  0.00  0.00     0.153 C 
HETATM   25  O   UNK N   1      11.953   1.696   1.026  0.00  0.00    -0.267 OA
BRANCH  23  26
HETATM   26  C   UNK N   1      14.141   0.775  -0.373  0.00  0.00     0.159 C 
BRANCH  26  27
HETATM   27  C   UNK N   1      15.150   0.020   0.504  0.00  0.00     0.159 C 
BRANCH  27  28
HETATM   28  C   UNK N   1      16.572   0.344   0.081  0.00  0.00     0.197 C 
BRANCH  28  29
HETATM   29  O   UNK N   1      16.872  -0.278  -1.134  0.00  0.00    -0.398 OA
HETATM   30  H   UNK N   1      16.603  -0.675  -1.978  0.00  0.00     0.209 HD
ENDBRANCH  28  29
ENDBRANCH  27  28
BRANCH  27  31
HETATM   31  O   UNK N   1      14.967  -1.364   0.453  0.00  0.00    -0.392 OA
HETATM   32  H   UNK N   1      14.072  -1.735   0.417  0.00  0.00     0.210 HD
ENDBRANCH  27  31
ENDBRANCH  26  27
ENDBRANCH  23  26
ENDBRANCH   1  22
BRANCH   2  33
HETATM   33  C   UNK N   1       6.808   0.474  -0.587  0.00  0.00     0.256 C 
HETATM   34  N   UNK N   1       5.598   0.273   0.029  0.00  0.00    -0.350 N 
HETATM   35  C   UNK N   1       5.531  -0.361   1.330  0.00  0.00     0.153 C 
HETATM   36  O   UNK N   1       6.863   1.220  -1.560  0.00  0.00    -0.267 OA
BRANCH  34  37
HETATM   37  C   UNK N   1       4.392   0.867  -0.525  0.00  0.00     0.159 C 
BRANCH  37  38
HETATM   38  C   UNK N   1       3.161  -0.055  -0.491  0.00  0.00     0.159 C 
BRANCH  38  39
HETATM   39  C   UNK N   1       2.507  -0.019   0.882  0.00  0.00     0.197 C 
BRANCH  39  40
HETATM   40  O   UNK N   1       1.314  -0.742   0.871  0.00  0.00    -0.398 OA
HETATM   41  H   UNK N   1       0.464  -0.276   0.864  0.00  0.00     0.209 HD
ENDBRANCH  39  40
ENDBRANCH  38  39
BRANCH  38  42
HETATM   42  O   UNK N   1       3.485  -1.366  -0.849  0.00  0.00    -0.392 OA
HETATM   43  H   UNK N   1       2.809  -2.016  -1.098  0.00  0.00     0.210 HD
ENDBRANCH  38  42
ENDBRANCH  37  38
ENDBRANCH  34  37
ENDBRANCH   2  33
TORSDOF 19
