REMARK  19 active torsions:
REMARK  status: ('A' for Active; 'I' for Inactive)
REMARK    1  A    between atoms: S_2  and  C_3 
REMARK    2  A    between atoms: C_3  and  C_4 
REMARK    3  A    between atoms: C_4  and  C_5 
REMARK    4  A    between atoms: C_5  and  C_6 
REMARK    5  A    between atoms: C_5  and  N_9 
REMARK    6  A    between atoms: C_6  and  O_8 
REMARK       I    between atoms: N_9  and  C_10 
REMARK    7  A    between atoms: C_10  and  C_12 
REMARK    8  A    between atoms: C_12  and  C_13 
REMARK    9  A    between atoms: C_12  and  N_20 
REMARK   10  A    between atoms: C_13  and  C_14 
REMARK       I    between atoms: N_20  and  C_21 
REMARK   11  A    between atoms: C_21  and  C_23 
REMARK   12  A    between atoms: C_23  and  N_24 
REMARK       I    between atoms: N_24  and  C_25 
REMARK   13  A    between atoms: C_25  and  C_27 
REMARK   14  A    between atoms: C_27  and  N_28 
REMARK       I    between atoms: N_28  and  C_29 
REMARK   15  A    between atoms: C_29  and  C_31 
REMARK   16  A    between atoms: C_31  and  C_32 
REMARK   17  A    between atoms: C_31  and  N_40 
REMARK   18  A    between atoms: C_32  and  C_33 
REMARK   19  A    between atoms: C_36  and  O_39 
ROOT
HETATM    1  N   UNK N   1      11.174 -10.122   0.564  0.00  0.00    -0.346 N 
HETATM    2  C   UNK N   1      12.496 -10.027   0.296  0.00  0.00     0.236 C 
HETATM    3  O   UNK N   1      13.228  -9.418   1.060  0.00  0.00    -0.272 OA
HETATM    4  H   UNK N   1      10.807  -9.724   1.386  0.00  0.00     0.163 HD
ENDROOT
BRANCH   2   5
HETATM    5  C   UNK N   1      13.064 -10.639  -0.949  0.00  0.00     0.225 C 
BRANCH   5   6
HETATM    6  N   UNK N   1      13.257 -12.053  -0.734  0.00  0.00    -0.351 N 
HETATM    7  C   UNK N   1      14.484 -12.629  -0.791  0.00  0.00     0.235 C 
HETATM    8  O   UNK N   1      14.597 -13.817  -0.542  0.00  0.00    -0.272 OA
HETATM    9  H   UNK N   1      12.474 -12.617  -0.540  0.00  0.00     0.163 HD
BRANCH   7  10
HETATM   10  C   UNK N   1      15.711 -11.837  -1.159  0.00  0.00     0.225 C 
BRANCH  10  11
HETATM   11  N   UNK N   1      15.745 -10.587  -0.432  0.00  0.00    -0.351 N 
HETATM   12  C   UNK N   1      16.721 -10.223   0.431  0.00  0.00     0.240 C 
HETATM   13  O   UNK N   1      16.642  -9.143   0.991  0.00  0.00    -0.271 OA
HETATM   14  H   UNK N   1      15.004  -9.956  -0.576  0.00  0.00     0.163 HD
BRANCH  12  15
HETATM   15  C   UNK N   1      17.901 -11.097   0.710  0.00  0.00     0.171 C 
BRANCH  15  16
HETATM   16  C   UNK N   1      18.686 -11.315  -0.576  0.00  0.00     0.072 C 
BRANCH  16  17
HETATM   17  C   UNK N   1      19.988 -11.976  -0.310  0.00  0.00    -0.056 A 
HETATM   18  C   UNK N   1      21.143 -11.200  -0.190  0.00  0.00     0.010 A 
HETATM   19  C   UNK N   1      22.375 -11.814   0.047  0.00  0.00     0.037 A 
HETATM   20  C   UNK N   1      22.451 -13.205   0.157  0.00  0.00     0.065 A 
HETATM   21  C   UNK N   1      21.296 -13.983   0.031  0.00  0.00     0.037 A 
HETATM   22  C   UNK N   1      20.063 -13.369  -0.203  0.00  0.00     0.010 A 
BRANCH  20  23
HETATM   23  O   UNK N   1      23.635 -13.795   0.381  0.00  0.00    -0.361 OA
HETATM   24  H   UNK N   1      23.692 -14.717   0.538  0.00  0.00     0.217 HD
ENDBRANCH  20  23
ENDBRANCH  16  17
ENDBRANCH  15  16
BRANCH  15  25
HETATM   25  N   UNK N   1      17.466 -12.361   1.285  0.00  0.00    -0.418 N 
HETATM   26  H   UNK N   1      16.547 -12.540   1.688  0.00  0.00     0.150 HD
HETATM   27  H   UNK N   1      18.136 -13.131   1.285  0.00  0.00     0.150 HD
ENDBRANCH  15  25
ENDBRANCH  12  15
ENDBRANCH  10  11
ENDBRANCH   7  10
ENDBRANCH   5   6
ENDBRANCH   2   5
BRANCH   1  28
HETATM   28  C   UNK N   1      10.305 -10.810  -0.359  0.00  0.00     0.180 C 
BRANCH  28  29
HETATM   29  C   UNK N   1       9.435 -11.837   0.306  0.00  0.00     0.241 C 
HETATM   30  N   UNK N   1       8.115 -11.899  -0.004  0.00  0.00    -0.345 N 
HETATM   31  H   UNK N   1       7.752 -11.217  -0.614  0.00  0.00     0.163 HD
HETATM   32  O   UNK N   1       9.934 -12.652   1.066  0.00  0.00    -0.271 OA
BRANCH  30  33
HETATM   33  C   UNK N   1       7.210 -12.906   0.506  0.00  0.00     0.183 C 
BRANCH  33  34
HETATM   34  C   UNK N   1       5.803 -12.556   0.049  0.00  0.00     0.046 C 
BRANCH  34  35
HETATM   35  C   UNK N   1       5.281 -11.343   0.797  0.00  0.00     0.076 C 
BRANCH  35  36
HETATM   36  S   UNK N   1       4.251 -10.338  -0.310  0.00  0.00    -0.173 SA
HETATM   37  C   UNK N   1       2.791 -11.388  -0.065  0.00  0.00     0.089 C 
ENDBRANCH  35  36
ENDBRANCH  34  35
ENDBRANCH  33  34
BRANCH  33  38
HETATM   38  C   UNK N   1       7.559 -14.281  -0.010  0.00  0.00     0.163 C 
HETATM   39  O   UNK N   1       6.893 -15.243   0.338  0.00  0.00    -0.648 OA
BRANCH  38  40
HETATM   40  O   UNK N   1       8.598 -14.464  -0.850  0.00  0.00    -0.775 OA
HETATM   41  H   UNK N   1       8.849 -15.153  -1.433  0.00  0.00     0.167 HD
ENDBRANCH  38  40
ENDBRANCH  33  38
ENDBRANCH  30  33
ENDBRANCH  28  29
BRANCH  28  42
HETATM   42  C   UNK N   1       9.617  -9.824  -1.310  0.00  0.00     0.073 C 
BRANCH  42  43
HETATM   43  C   UNK N   1       8.891  -8.710  -0.623  0.00  0.00    -0.056 A 
HETATM   44  C   UNK N   1       7.699  -8.952   0.068  0.00  0.00     0.007 A 
HETATM   45  C   UNK N   1       7.010  -7.897   0.671  0.00  0.00     0.001 A 
HETATM   46  C   UNK N   1       7.510  -6.595   0.583  0.00  0.00     0.000 A 
HETATM   47  C   UNK N   1       8.700  -6.349  -0.108  0.00  0.00     0.001 A 
HETATM   48  C   UNK N   1       9.387  -7.405  -0.715  0.00  0.00     0.007 A 
ENDBRANCH  42  43
ENDBRANCH  28  42
ENDBRANCH   1  28
TORSDOF 19
