REMARK  7 active torsions:
REMARK  status: ('A' for Active; 'I' for Inactive)
REMARK    1  A    between atoms: C_2  and  C_3 
REMARK    2  A    between atoms: C_3  and  C_26 
REMARK    3  A    between atoms: C_4  and  C_5 
REMARK    4  A    between atoms: C_4  and  C_16 
REMARK    5  A    between atoms: C_8  and  C_11 
REMARK    6  A    between atoms: C_12  and  C_13 
REMARK    7  A    between atoms: C_13  and  O_15 
ROOT
HETATM    1  C   UNK N   1       5.204   0.986  -0.069  0.00  0.00    -0.035 C 
HETATM    2  C   UNK N   1       3.974   1.659  -0.068  0.00  0.00    -0.009 C 
ENDROOT
BRANCH   2   3
HETATM    3  C   UNK N   1       3.928   3.153   0.006  0.00  0.00    -0.025 A 
HETATM    4  C   UNK N   1       3.156   3.881  -0.914  0.00  0.00     0.013 A 
HETATM    5  C   UNK N   1       3.221   5.276  -0.942  0.00  0.00     0.012 A 
HETATM    6  C   UNK N   1       4.052   5.953  -0.047  0.00  0.00    -0.036 A 
HETATM    7  C   UNK N   1       4.764   5.234   0.923  0.00  0.00     0.012 A 
HETATM    8  C   UNK N   1       4.687   3.845   0.962  0.00  0.00     0.013 A 
BRANCH   6   9
HETATM    9  C   UNK N   1       4.273   7.394  -0.224  0.00  0.00     0.018 C 
HETATM   10  C   UNK N   1       5.346   7.981   0.312  0.00  0.00     0.082 C 
BRANCH  10  11
HETATM   11  C   UNK N   1       5.648   9.399   0.098  0.00  0.00     0.165 C 
HETATM   12  O   UNK N   1       6.706   9.854   0.499  0.00  0.00    -0.647 OA
BRANCH  11  13
HETATM   13  O   UNK N   1       4.786  10.194  -0.564  0.00  0.00    -0.773 OA
HETATM   14  H   UNK N   1       4.965  10.990  -1.025  0.00  0.00     0.167 HD
ENDBRANCH  11  13
ENDBRANCH  10  11
ENDBRANCH   6   9
ENDBRANCH   2   3
BRANCH   2  15
HETATM   15  C   UNK N   1       2.617   0.970  -0.112  0.00  0.00    -0.024 A 
HETATM   16  C   UNK N   1       2.447  -0.420  -0.368  0.00  0.00     0.014 A 
HETATM   17  C   UNK N   1       1.167  -1.013  -0.386  0.00  0.00     0.033 A 
HETATM   18  C   UNK N   1       0.073  -0.187  -0.147  0.00  0.00     0.059 A 
HETATM   19  C   UNK N   1       0.216   1.137   0.094  0.00  0.00     0.010 A 
HETATM   20  N   UNK N   1      -1.223  -0.516  -0.114  0.00  0.00    -0.300 N 
HETATM   21  C   UNK N   1       1.455   1.751   0.122  0.00  0.00     0.027 A 
HETATM   22  C   UNK N   1      -1.053   1.634   0.281  0.00  0.00     0.120 A 
HETATM   23  N   UNK N   1      -1.913   0.596   0.147  0.00  0.00    -0.311 N 
ATOM     24  HN  UNK N   1      -2.928   0.655   0.233  1.00  0.00     0.186 HD
HETATM   25  H   UNK N   1      -1.600  -1.415  -0.256  0.00  0.00     0.187 HD
ENDBRANCH   2  15
BRANCH   1  26
HETATM   26  C   UNK N   1       5.239  -0.519  -0.033  0.00  0.00     0.036 C 
HETATM   27  C   UNK N   1       4.849  -1.046   1.340  0.00  0.00     0.010 C 
ENDBRANCH   1  26
BRANCH   1  28
HETATM   28  C   UNK N   1       6.559   1.706  -0.166  0.00  0.00    -0.007 A 
HETATM   29  C   UNK N   1       6.622   2.977  -0.776  0.00  0.00     0.017 A 
HETATM   30  C   UNK N   1       7.798   3.718  -0.846  0.00  0.00     0.043 A 
HETATM   31  C   UNK N   1       8.973   3.194  -0.330  0.00  0.00     0.118 A 
HETATM   32  C   UNK N   1       8.975   1.915   0.220  0.00  0.00     0.066 A 
HETATM   33  F   UNK N   1      10.113   3.927  -0.361  0.00  0.00    -0.206 F 
HETATM   34  C   UNK N   1       7.798   1.156   0.300  0.00  0.00     0.047 A 
HETATM   35 Cl   UNK N   1       7.969  -0.422   1.050  0.00  0.00    -0.083 Cl
ENDBRANCH   1  28
TORSDOF 7
