REMARK  5 active torsions:
REMARK  status: ('A' for Active; 'I' for Inactive)
REMARK    1  A    between atoms: C_2  and  N_3 
REMARK       I    between atoms: N_3  and  C_4 
REMARK    2  A    between atoms: C_6  and  C_4 
REMARK    3  A    between atoms: C_8  and  C_11 
REMARK    4  A    between atoms: C_14  and  C_17 
REMARK    5  A    between atoms: C_17  and  N_18 
ROOT
HETATM    1  C   UNK N   1       0.546  -0.028   0.032  0.00  0.00    -0.016 A 
HETATM    2  C   UNK N   1       0.303   1.331  -0.227  0.00  0.00     0.053 A 
HETATM    3  C   UNK N   1       1.346   2.269  -0.102  0.00  0.00     0.125 A 
HETATM    4  C   UNK N   1       2.630   1.844   0.294  0.00  0.00     0.009 A 
HETATM    5  C   UNK N   1       2.851   0.498   0.570  0.00  0.00     0.012 A 
HETATM    6  C   UNK N   1       1.832  -0.422   0.430  0.00  0.00     0.011 A 
HETATM    7  F   UNK N   1       1.106   3.578  -0.363  0.00  0.00    -0.205 F 
ENDROOT
BRANCH   1   8
HETATM    8  C   UNK N   1      -0.525  -1.094  -0.141  0.00  0.00     0.132 C 
HETATM    9  C   UNK N   1      -0.479  -2.137   0.981  0.00  0.00     0.062 C 
HETATM   10  C   UNK N   1       0.412  -2.951   0.058  0.00  0.00     0.084 C 
HETATM   11  C   UNK N   1      -0.060  -2.152  -1.138  0.00  0.00     0.062 C 
HETATM   12  F   UNK N   1      -1.791  -0.608  -0.423  0.00  0.00    -0.238 F 
BRANCH  10  13
HETATM   13  C   UNK N   1       0.343  -4.434   0.020  0.00  0.00     0.222 C 
HETATM   14  N   UNK N   1       1.507  -5.117   0.113  0.00  0.00    -0.361 N 
HETATM   15  H   UNK N   1       2.339  -4.605   0.234  0.00  0.00     0.162 HD
HETATM   16  O   UNK N   1      -0.724  -5.015  -0.125  0.00  0.00    -0.273 OA
BRANCH  14  17
HETATM   17  C   UNK N   1       1.592  -6.550   0.044  0.00  0.00     0.118 C 
HETATM   18  C   UNK N   1       3.055  -6.946  -0.012  0.00  0.00     0.026 C 
ENDBRANCH  14  17
ENDBRANCH  10  13
ENDBRANCH   1   8
BRANCH   4  19
HETATM   19  C   UNK N   1       3.780   2.801   0.422  0.00  0.00     0.314 C 
BRANCH  19  20
HETATM   20  N   UNK N   1       4.953   2.275  -0.276  0.00  0.00     0.092 N 
HETATM   21  C   UNK N   1       5.872   3.363  -0.552  0.00  0.00     0.273 C 
HETATM   22  C   UNK N   1       7.263   2.757  -0.570  0.00  0.00     0.032 C 
HETATM   23  C   UNK N   1       7.143   1.468   0.211  0.00  0.00     0.032 C 
HETATM   24  C   UNK N   1       5.695   1.416   0.638  0.00  0.00     0.273 C 
ENDBRANCH  19  20
ENDBRANCH   4  19
TORSDOF 5
