REMARK  5 active torsions:
REMARK  status: ('A' for Active; 'I' for Inactive)
REMARK    1  A    between atoms: C_3  and  N_9 
REMARK       I    between atoms: N_9  and  C_10 
REMARK       I    between atoms: C_10  and  N_12 
REMARK    2  A    between atoms: N_12  and  C_13 
REMARK    3  A    between atoms: C_17  and  S_20 
REMARK    4  A    between atoms: C_18  and  O_19 
REMARK    5  A    between atoms: S_20  and  N_23 
ROOT
HETATM    1  C   UNK N   1       1.287  -9.661   0.322  0.00  0.00     0.071 A 
HETATM    2  C   UNK N   1       2.320 -10.608   0.335  0.00  0.00     0.034 A 
HETATM    3  C   UNK N   1       2.020 -11.968   0.191  0.00  0.00     0.028 A 
HETATM    4  C   UNK N   1       0.694 -12.394   0.020  0.00  0.00     0.059 A 
HETATM    5  C   UNK N   1      -0.350 -11.445   0.008  0.00  0.00     0.131 A 
HETATM    6  C   UNK N   1      -0.031 -10.080   0.164  0.00  0.00     0.117 A 
HETATM    7 Cl   UNK N   1       0.385 -14.108  -0.188  0.00  0.00    -0.083 Cl
ENDROOT
BRANCH   1   8
HETATM    8  N   UNK N   1       1.516  -8.263   0.443  0.00  0.00    -0.306 N 
HETATM    9  C   UNK N   1       2.665  -7.591   0.204  0.00  0.00     0.325 C 
HETATM   10  N   UNK N   1       2.645  -6.238   0.330  0.00  0.00    -0.307 N 
HETATM   11  O   UNK N   1       3.663  -8.176  -0.190  0.00  0.00    -0.247 OA
HETATM   12  H   UNK N   1       1.798  -5.840   0.637  0.00  0.00     0.170 HD
HETATM   13  H   UNK N   1       0.748  -7.721   0.735  0.00  0.00     0.171 HD
BRANCH  10  14
HETATM   14  C   UNK N   1       3.711  -5.335   0.069  0.00  0.00     0.061 A 
HETATM   15  C   UNK N   1       5.011  -5.786  -0.208  0.00  0.00     0.031 A 
HETATM   16  C   UNK N   1       6.035  -4.875  -0.472  0.00  0.00     0.005 A 
HETATM   17  C   UNK N   1       5.768  -3.504  -0.469  0.00  0.00     0.044 A 
HETATM   18  C   UNK N   1       4.478  -3.042  -0.197  0.00  0.00     0.140 A 
HETATM   19  C   UNK N   1       3.449  -3.952   0.075  0.00  0.00     0.099 A 
HETATM   20  F   UNK N   1       4.230  -1.709  -0.203  0.00  0.00    -0.204 F 
HETATM   21 Cl   UNK N   1       1.826  -3.354   0.408  0.00  0.00    -0.079 Cl
ENDBRANCH  10  14
ENDBRANCH   1   8
BRANCH   6  22
HETATM   22  O   UNK N   1      -1.004  -9.149   0.145  0.00  0.00    -0.357 OA
HETATM   23  H   UNK N   1      -0.781  -8.239   0.131  0.00  0.00     0.217 HD
ENDBRANCH   6  22
BRANCH   5  24
HETATM   24  S   UNK N   1      -2.094 -11.896  -0.254  0.00  0.00     0.248 S 
HETATM   25  O   UNK N   1      -2.937 -10.704  -0.741  0.00  0.00    -0.206 OA
HETATM   26  O   UNK N   1      -2.255 -11.409   1.195  0.00  0.00    -0.206 OA
BRANCH  24  27
HETATM   27  N   UNK N   1      -3.219 -13.184   0.235  0.00  0.00    -0.203 NA
HETATM   28  C   UNK N   1      -2.938 -14.402  -0.518  0.00  0.00     0.127 C 
HETATM   29  C   UNK N   1      -3.947 -15.482  -0.114  0.00  0.00     0.129 C 
HETATM   30  N   UNK N   1      -5.306 -15.040  -0.434  0.00  0.00    -0.419 N 
HETATM   31  C   UNK N   1      -5.592 -13.810   0.300  0.00  0.00     0.129 C 
HETATM   32  H   UNK N   1      -5.950 -15.516  -1.066  0.00  0.00     0.153 HD
HETATM   33  C   UNK N   1      -4.581 -12.739  -0.088  0.00  0.00     0.127 C 
ENDBRANCH  24  27
ENDBRANCH   5  24
TORSDOF 5
