REMARK  9 active torsions:
REMARK  status: ('A' for Active; 'I' for Inactive)
REMARK    1  A    between atoms: C_5  and  O_9 
REMARK    2  A    between atoms: O_9  and  C_10 
REMARK    3  A    between atoms: C_13  and  N_17 
REMARK    4  A    between atoms: N_17  and  C_18 
REMARK    5  A    between atoms: C_21  and  C_30 
REMARK    6  A    between atoms: C_31  and  C_32 
REMARK    7  A    between atoms: C_32  and  N_33 
REMARK       I    between atoms: N_33  and  C_34 
REMARK    8  A    between atoms: C_34  and  C_36 
REMARK    9  A    between atoms: C_36  and  O_37 
ROOT
HETATM    1  C   UNK N   1      -4.234   5.363  -0.026  0.00  0.00     0.119 A 
HETATM    2  C   UNK N   1      -4.335   3.976  -0.013  0.00  0.00     0.035 A 
HETATM    3  C   UNK N   1      -3.202   3.188  -0.011  0.00  0.00     0.029 A 
HETATM    4  C   UNK N   1      -3.303   1.806  -0.001  0.00  0.00    -0.035 A 
HETATM    5  C   UNK N   1      -4.555   1.179   0.008  0.00  0.00     0.013 A 
HETATM    6  C   UNK N   1      -5.715   1.969   0.007  0.00  0.00     0.031 A 
HETATM    7  C   UNK N   1      -5.604   3.366  -0.003  0.00  0.00     0.047 A 
HETATM    8  N   UNK N   1      -6.722   4.140  -0.005  0.00  0.00    -0.352 N 
ATOM      9  HN  UNK N   1      -7.643   3.701   0.003  1.00  0.00     0.166 HD
HETATM   10  C   UNK N   1      -6.619   5.491  -0.019  0.00  0.00     0.182 A 
HETATM   11  N   UNK N   1      -5.400   6.082  -0.031  0.00  0.00    -0.338 N 
ATOM     12  HN  UNK N   1      -5.349   7.100  -0.044  1.00  0.00     0.168 HD
ENDROOT
BRANCH   1  13
HETATM   13  N   UNK N   1      -2.952   6.026  -0.041  0.00  0.00    -0.342 N 
HETATM   14  H   UNK N   1      -2.137   5.474  -0.076  0.00  0.00     0.167 HD
BRANCH  13  15
HETATM   15  C   UNK N   1      -2.813   7.448  -0.010  0.00  0.00     0.034 A 
HETATM   16  C   UNK N   1      -1.579   8.102  -0.111  0.00  0.00     0.032 A 
HETATM   17  C   UNK N   1      -1.542   9.517  -0.100  0.00  0.00     0.040 A 
HETATM   18  C   UNK N   1      -2.728  10.289   0.014  0.00  0.00     0.082 A 
HETATM   19  C   UNK N   1      -3.958   9.571   0.146  0.00  0.00    -0.026 A 
HETATM   20  C   UNK N   1      -3.944   8.212   0.125  0.00  0.00     0.039 A 
HETATM   21  C   UNK N   1      -5.324  10.093   0.346  0.00  0.00     0.051 C 
BRANCH  18  22
HETATM   22  O   UNK N   1      -2.584  11.660   0.013  0.00  0.00    -0.309 OA
BRANCH  22  23
HETATM   23  C   UNK N   1      -3.456  12.718  -0.030  0.00  0.00     0.091 A 
HETATM   24  C   UNK N   1      -2.966  14.017   0.145  0.00  0.00     0.040 A 
HETATM   25  C   UNK N   1      -3.845  15.110   0.139  0.00  0.00     0.027 A 
HETATM   26  C   UNK N   1      -5.214  14.887  -0.039  0.00  0.00     0.005 A 
HETATM   27  C   UNK N   1      -6.177  16.018  -0.018  0.00  0.00     0.068 C 
HETATM   28  N   UNK N   1      -5.670  13.630  -0.237  0.00  0.00    -0.367 N 
HETATM   29  C   UNK N   1      -4.823  12.573  -0.252  0.00  0.00     0.125 A 
ATOM     30  HN  UNK N   1      -6.669  13.474  -0.377  1.00  0.00     0.165 HD
ENDBRANCH  22  23
ENDBRANCH  18  22
ENDBRANCH  13  15
ENDBRANCH   1  13
BRANCH   4  31
HETATM   31  C   UNK N   1      -2.033   1.126  -0.001  0.00  0.00     0.009 C 
HETATM   32  C   UNK N   1      -1.654  -0.151   0.004  0.00  0.00    -0.007 C 
BRANCH  32  33
HETATM   33  C   UNK N   1      -0.155  -0.392   0.003  0.00  0.00     0.149 C 
BRANCH  33  34
HETATM   34  N   UNK N   1       0.508   0.901   0.001  0.00  0.00    -0.356 N 
HETATM   35  C   UNK N   1       1.826   1.154   0.000  0.00  0.00     0.241 C 
HETATM   36  O   UNK N   1       2.642   0.246   0.001  0.00  0.00    -0.271 OA
HETATM   37  H   UNK N   1      -0.083   1.689   0.001  0.00  0.00     0.162 HD
BRANCH  35  38
HETATM   38  C   UNK N   1       2.248   2.593  -0.001  0.00  0.00     0.269 C 
BRANCH  38  39
HETATM   39  O   UNK N   1       3.630   2.750  -0.000  0.00  0.00    -0.387 OA
HETATM   40  C   UNK N   1       3.807   4.134   0.000  0.00  0.00     0.202 C 
ENDBRANCH  38  39
ENDBRANCH  35  38
ENDBRANCH  33  34
ENDBRANCH  32  33
ENDBRANCH   4  31
TORSDOF 9
