REMARK  9 active torsions:
REMARK  status: ('A' for Active; 'I' for Inactive)
REMARK    1  A    between atoms: C_2  and  C_3 
REMARK    2  A    between atoms: C_3  and  C_4 
REMARK    3  A    between atoms: C_4  and  O_5 
REMARK    4  A    between atoms: O_5  and  C_6 
REMARK    5  A    between atoms: C_9  and  N_32 
REMARK    6  A    between atoms: N_14  and  C_19 
REMARK    7  A    between atoms: C_19  and  C_20 
REMARK    8  A    between atoms: C_24  and  C_26 
REMARK    9  A    between atoms: C_26  and  N_27 
ROOT
HETATM    1  C   UNK N   1      -2.526  -0.063   0.359  0.00  0.00     0.226 A 
HETATM    2  N   UNK N   1      -2.826  -1.377   0.152  0.00  0.00    -0.306 N 
ATOM      3  HN  UNK N   1      -3.798  -1.684   0.194  1.00  0.00     0.171 HD
HETATM    4  C   UNK N   1      -1.846  -2.283  -0.108  0.00  0.00     0.133 A 
HETATM    5  C   UNK N   1      -0.511  -1.866  -0.158  0.00  0.00     0.123 A 
HETATM    6  C   UNK N   1      -0.223  -0.520   0.069  0.00  0.00     0.138 A 
HETATM    7  N   UNK N   1      -1.239   0.349   0.316  0.00  0.00    -0.306 N 
ATOM      8  HN  UNK N   1      -1.025   1.334   0.471  1.00  0.00     0.171 HD
HETATM    9  N   UNK N   1       1.119  -0.054   0.082  0.00  0.00    -0.352 N 
HETATM   10  C   UNK N   1       2.231  -0.977  -0.131  0.00  0.00     0.227 A 
HETATM   11  C   UNK N   1       1.829  -2.406  -0.413  0.00  0.00     0.240 A 
HETATM   12  O   UNK N   1       2.697  -3.234  -0.635  0.00  0.00    -0.271 OA
HETATM   13  N   UNK N   1       0.531  -2.788  -0.411  0.00  0.00    -0.320 N 
HETATM   14  H   UNK N   1       0.307  -3.730  -0.591  0.00  0.00     0.169 HD
ENDROOT
BRANCH   9  15
HETATM   15  C   UNK N   1       1.328   1.324   0.527  0.00  0.00     0.163 C 
BRANCH  15  16
HETATM   16  C   UNK N   1       2.606   2.029   0.173  0.00  0.00    -0.040 A 
HETATM   17  C   UNK N   1       2.634   3.429   0.211  0.00  0.00     0.009 A 
HETATM   18  C   UNK N   1       3.827   4.117  -0.041  0.00  0.00     0.001 A 
HETATM   19  C   UNK N   1       5.003   3.405  -0.308  0.00  0.00     0.009 A 
HETATM   20  C   UNK N   1       4.978   2.007  -0.322  0.00  0.00    -0.030 A 
HETATM   21  C   UNK N   1       3.780   1.338  -0.093  0.00  0.00     0.017 A 
BRANCH  20  22
HETATM   22  C   UNK N   1       6.212   1.207  -0.611  0.00  0.00     0.311 C 
BRANCH  22  23
HETATM   23  N   UNK N   1       6.735   0.451   0.542  0.00  0.00     0.092 N 
HETATM   24  C   UNK N   1       7.599  -0.587  -0.000  0.00  0.00     0.273 C 
HETATM   25  C   UNK N   1       6.753  -1.827  -0.195  0.00  0.00     0.032 C 
HETATM   26  C   UNK N   1       5.701  -1.727   0.873  0.00  0.00     0.032 C 
HETATM   27  C   UNK N   1       5.701  -0.270   1.294  0.00  0.00     0.273 C 
ENDBRANCH  22  23
ENDBRANCH  20  22
ENDBRANCH  15  16
ENDBRANCH   9  15
BRANCH   4  28
HETATM   28  N   UNK N   1      -2.181  -3.638  -0.309  0.00  0.00    -0.383 N 
HETATM   29  H   UNK N   1      -3.118  -3.908  -0.449  0.00  0.00     0.157 HD
HETATM   30  H   UNK N   1      -1.472  -4.320  -0.309  0.00  0.00     0.157 HD
ENDBRANCH   4  28
BRANCH   1  31
HETATM   31  O   UNK N   1      -3.493   0.844   0.616  0.00  0.00    -0.322 OA
BRANCH  31  32
HETATM   32  C   UNK N   1      -4.803   0.492   0.826  0.00  0.00     0.178 C 
BRANCH  32  33
HETATM   33  C   UNK N   1      -5.649   0.958  -0.342  0.00  0.00     0.026 C 
BRANCH  33  34
HETATM   34  C   UNK N   1      -6.008  -0.226  -1.219  0.00  0.00    -0.002 C 
HETATM   35  C   UNK N   1      -7.090  -1.056  -0.553  0.00  0.00     0.005 C 
ENDBRANCH  33  34
ENDBRANCH  32  33
ENDBRANCH  31  32
ENDBRANCH   1  31
TORSDOF 9
