REMARK  9 active torsions:
REMARK  status: ('A' for Active; 'I' for Inactive)
REMARK    1  A    between atoms: C_2  and  N_5 
REMARK       I    between atoms: N_5  and  C_6 
REMARK       I    between atoms: C_6  and  N_30 
REMARK    2  A    between atoms: N_7  and  C_9 
REMARK    3  A    between atoms: C_13  and  C_15 
REMARK    4  A    between atoms: C_15  and  C_23 
REMARK    5  A    between atoms: C_16  and  C_17 
REMARK    6  A    between atoms: C_17  and  C_18 
REMARK    7  A    between atoms: C_18  and  C_19 
REMARK    8  A    between atoms: C_19  and  C_20 
REMARK    9  A    between atoms: C_20  and  O_22 
ROOT
HETATM    1  N   UNK N   1      -6.203   2.445  -0.011  0.00  0.00    -0.217 N 
HETATM    2  C   UNK N   1      -5.059   1.663  -0.308  0.00  0.00     0.688 C 
HETATM    3  N   UNK N   1      -4.942   0.502   0.228  0.00  0.00    -0.191 N 
ATOM      4  HN  UNK N   1      -5.769   0.086   0.657  1.00  0.00     0.184 HD
HETATM    5  N   UNK N   1      -4.056   2.216  -1.152  0.00  0.00    -0.126 N 
HETATM    6  C   UNK N   1      -2.721   2.335  -0.808  0.00  0.00     0.196 C 
HETATM    7  N   UNK N   1      -1.601   2.441  -0.535  0.00  0.00    -0.171 NA
HETATM    8  H   UNK N   1      -7.074   1.991   0.062  0.00  0.00     0.178 HD
HETATM    9  H   UNK N   1      -4.330   2.536  -2.042  0.00  0.00     0.197 HD
ENDROOT
BRANCH   1  10
HETATM   10  C   UNK N   1      -6.154   3.886   0.192  0.00  0.00     0.036 C 
HETATM   11  C   UNK N   1      -6.851   4.227   1.494  0.00  0.00     0.038 C 
HETATM   12  C   UNK N   1      -6.867   4.563  -0.953  0.00  0.00     0.038 C 
HETATM   13  C   UNK N   1      -4.740   4.451   0.302  0.00  0.00     0.038 C 
ENDBRANCH   1  10
BRANCH   3  14
HETATM   14  C   UNK N   1      -3.736  -0.235   0.259  0.00  0.00     0.050 C 
HETATM   15  C   UNK N   1      -2.660   0.260   0.997  0.00  0.00     0.030 C 
HETATM   16  C   UNK N   1      -1.494  -0.480   1.136  0.00  0.00     0.003 C 
HETATM   17  C   UNK N   1      -1.452  -1.789   0.675  0.00  0.00     0.012 C 
HETATM   18  C   UNK N   1      -2.569  -2.346   0.051  0.00  0.00    -0.023 C 
HETATM   19  C   UNK N   1      -3.692  -1.533  -0.194  0.00  0.00     0.042 C 
BRANCH  18  20
HETATM   20  C   UNK N   1      -2.712  -3.826  -0.098  0.00  0.00    -0.018 C 
HETATM   21  C   UNK N   1      -1.668  -4.696  -0.040  0.00  0.00    -0.014 C 
BRANCH  21  22
HETATM   22  C   UNK N   1      -0.217  -4.313   0.132  0.00  0.00     0.028 C 
BRANCH  22  23
HETATM   23  C   UNK N   1       0.395  -3.758  -1.143  0.00  0.00     0.014 C 
BRANCH  23  24
HETATM   24  C   UNK N   1       1.321  -2.586  -0.820  0.00  0.00     0.110 C 
BRANCH  24  25
HETATM   25  C   UNK N   1       2.623  -2.983  -0.187  0.00  0.00     0.139 C 
HETATM   26  O   UNK N   1       3.407  -2.117   0.162  0.00  0.00    -0.650 OA
BRANCH  25  27
HETATM   27  O   UNK N   1       2.942  -4.281  -0.006  0.00  0.00    -0.776 OA
HETATM   28  H   UNK N   1       2.271  -4.923   0.120  0.00  0.00     0.167 HD
ENDBRANCH  25  27
ENDBRANCH  24  25
ENDBRANCH  23  24
ENDBRANCH  22  23
ENDBRANCH  21  22
BRANCH  20  29
HETATM   29  C   UNK N   1      -4.109  -4.362  -0.018  0.00  0.00    -0.010 A 
HETATM   30  C   UNK N   1      -4.488  -5.583  -0.571  0.00  0.00     0.015 A 
HETATM   31  C   UNK N   1      -5.818  -6.002  -0.454  0.00  0.00     0.018 A 
HETATM   32  C   UNK N   1      -6.746  -5.215   0.240  0.00  0.00     0.087 A 
HETATM   33  N   UNK N   1      -6.356  -4.056   0.818  0.00  0.00    -0.374 N 
HETATM   34  C   UNK N   1      -5.078  -3.632   0.707  0.00  0.00     0.099 A 
ATOM     35  HN  UNK N   1      -7.031  -3.498   1.340  1.00  0.00     0.164 HD
ENDBRANCH  20  29
ENDBRANCH  18  20
ENDBRANCH   3  14
TORSDOF 9
