REMARK  2 active torsions:
REMARK  status: ('A' for Active; 'I' for Inactive)
REMARK    1  A    between atoms: C_7  and  C_12 
REMARK    2  A    between atoms: C_10  and  N_11 
ROOT
HETATM    1  C   UNK N   1      -2.015  -1.160  -0.123  0.00  0.00     0.001 A 
HETATM    2  C   UNK N   1      -1.972  -2.546   0.011  0.00  0.00     0.001 A 
HETATM    3  C   UNK N   1      -0.744  -3.195   0.146  0.00  0.00     0.010 A 
HETATM    4  C   UNK N   1       0.456  -2.465   0.140  0.00  0.00    -0.029 A 
HETATM    5  C   UNK N   1       0.415  -1.057   0.008  0.00  0.00    -0.041 A 
HETATM    6  C   UNK N   1      -0.831  -0.424  -0.125  0.00  0.00     0.008 A 
HETATM    7  C   UNK N   1       1.711  -0.255  -0.014  0.00  0.00     0.052 C 
HETATM    8  C   UNK N   1       3.023  -1.024   0.184  0.00  0.00     0.016 C 
HETATM    9  C   UNK N   1       2.914  -2.437  -0.375  0.00  0.00     0.030 C 
HETATM   10  C   UNK N   1       1.777  -3.181   0.316  0.00  0.00     0.108 C 
ENDROOT
BRANCH   7  11
HETATM   11  C   UNK N   1       1.759   1.266  -0.004  0.00  0.00    -0.048 A 
HETATM   12  C   UNK N   1       0.581   2.025  -0.011  0.00  0.00     0.009 A 
HETATM   13  C   UNK N   1       0.624   3.417  -0.006  0.00  0.00     0.026 A 
HETATM   14  C   UNK N   1       1.850   4.080   0.002  0.00  0.00     0.055 A 
HETATM   15  C   UNK N   1       3.043   3.338   0.007  0.00  0.00     0.056 A 
HETATM   16 Cl   UNK N   1       1.858   5.836   0.005  0.00  0.00    -0.083 Cl
HETATM   17  C   UNK N   1       2.993   1.937   0.006  0.00  0.00     0.033 A 
HETATM   18 Cl   UNK N   1       4.607   4.137   0.011  0.00  0.00    -0.083 Cl
ENDBRANCH   7  11
BRANCH  10  19
HETATM   19  N   UNK N   1       1.715  -4.548  -0.177  0.00  0.00    -0.422 N 
HETATM   20  H   UNK N   1       0.864  -4.990  -0.523  0.00  0.00     0.150 HD
HETATM   21  H   UNK N   1       2.575  -5.097  -0.177  0.00  0.00     0.150 HD
ENDBRANCH  10  19
TORSDOF 2
