REMARK  11 active torsions:
REMARK  status: ('A' for Active; 'I' for Inactive)
REMARK    1  A    between atoms: C_2  and  O_3 
REMARK    2  A    between atoms: O_3  and  C_4 
REMARK    3  A    between atoms: C_9  and  O_10 
REMARK    4  A    between atoms: O_10  and  C_11 
REMARK    5  A    between atoms: C_14  and  N_15 
REMARK    6  A    between atoms: N_17  and  C_19 
REMARK    7  A    between atoms: C_19  and  C_20 
REMARK    8  A    between atoms: C_20  and  C_22 
REMARK    9  A    between atoms: C_24  and  C_36 
REMARK   10  A    between atoms: C_25  and  O_34 
REMARK   11  A    between atoms: C_26  and  N_28 
ROOT
HETATM    1  C   UNK N   1      -1.436   0.208  -0.515  0.00  0.00     0.208 C 
ENDROOT
BRANCH   1   2
HETATM    2  N   UNK N   1      -0.313   0.343   0.398  0.00  0.00    -0.355 N 
HETATM    3  C   UNK N   1       0.259   1.604   0.744  0.00  0.00     0.111 C 
HETATM    4  C   UNK N   1       1.669   1.528   0.523  0.00  0.00     0.057 A 
HETATM    5  C   UNK N   1       1.959   0.222   0.254  0.00  0.00    -0.020 A 
HETATM    6  C   UNK N   1       2.638   2.526   0.457  0.00  0.00     0.167 A 
HETATM    7  C   UNK N   1       3.232  -0.184  -0.071  0.00  0.00     0.049 A 
HETATM    8  C   UNK N   1       0.739  -0.640   0.262  0.00  0.00     0.164 C 
HETATM    9  C   UNK N   1       4.254   0.763  -0.149  0.00  0.00     0.105 A 
HETATM   10  C   UNK N   1       3.967   2.148   0.098  0.00  0.00     0.141 A 
HETATM   11  F   UNK N   1       2.285   3.818   0.678  0.00  0.00    -0.202 F 
BRANCH   3  12
HETATM   12  N   UNK N   1      -0.400   2.688   0.926  0.00  0.00    -0.385 N 
HETATM   13  H   UNK N   1       0.068   3.543   1.067  0.00  0.00     0.157 HD
ATOM     14  HN  UNK N   1      -1.420   2.665   0.926  1.00  0.00     0.157 HD
ENDBRANCH   3  12
BRANCH   9  15
HETATM   15  O   UNK N   1       5.476   0.296  -0.497  0.00  0.00    -0.349 OA
BRANCH  15  16
HETATM   16  C   UNK N   1       6.661   0.975  -0.381  0.00  0.00     0.171 C 
HETATM   17  C   UNK N   1       7.633   0.103   0.386  0.00  0.00     0.034 C 
ENDBRANCH  15  16
ENDBRANCH   9  15
BRANCH  10  18
HETATM   18  O   UNK N   1       4.957   3.069  -0.049  0.00  0.00    -0.346 OA
BRANCH  18  19
HETATM   19  C   UNK N   1       4.779   4.433   0.005  0.00  0.00     0.171 C 
HETATM   20  C   UNK N   1       6.106   5.124  -0.220  0.00  0.00     0.034 C 
ENDBRANCH  18  19
ENDBRANCH  10  18
ENDBRANCH   1   2
BRANCH   1  21
HETATM   21  C   UNK N   1      -1.977   1.504  -1.042  0.00  0.00     0.177 C 
HETATM   22  O   UNK N   1      -1.259   2.297  -1.637  0.00  0.00    -0.291 OA
BRANCH  21  23
HETATM   23  C   UNK N   1      -3.360   1.828  -0.721  0.00  0.00     0.014 A 
HETATM   24  C   UNK N   1      -4.222   0.790  -0.428  0.00  0.00     0.026 A 
HETATM   25  C   UNK N   1      -5.539   1.005  -0.050  0.00  0.00    -0.014 A 
HETATM   26  C   UNK N   1      -5.994   2.353   0.088  0.00  0.00     0.101 A 
HETATM   27  C   UNK N   1      -5.095   3.439  -0.182  0.00  0.00     0.065 A 
HETATM   28  C   UNK N   1      -3.791   3.140  -0.609  0.00  0.00     0.047 A 
BRANCH  25  29
HETATM   29  C   UNK N   1      -6.400  -0.225   0.244  0.00  0.00    -0.021 C 
HETATM   30  C   UNK N   1      -6.908  -0.177   1.672  0.00  0.00     0.019 C 
HETATM   31  C   UNK N   1      -7.569  -0.318  -0.715  0.00  0.00     0.019 C 
HETATM   32  C   UNK N   1      -5.631  -1.538   0.091  0.00  0.00     0.019 C 
ENDBRANCH  25  29
BRANCH  26  33
HETATM   33  O   UNK N   1      -7.248   2.608   0.521  0.00  0.00    -0.353 OA
HETATM   34  C   UNK N   1      -8.342   2.458  -0.294  0.00  0.00     0.210 C 
ENDBRANCH  26  33
BRANCH  27  35
HETATM   35  N   UNK N   1      -5.450   4.823   0.004  0.00  0.00    -0.374 N 
HETATM   36  C   UNK N   1      -6.816   5.210   0.346  0.00  0.00     0.149 C 
HETATM   37  C   UNK N   1      -6.965   6.703   0.637  0.00  0.00     0.187 C 
HETATM   38  O   UNK N   1      -6.170   7.442  -0.243  0.00  0.00    -0.388 OA
HETATM   39  C   UNK N   1      -4.870   7.238   0.225  0.00  0.00     0.187 C 
HETATM   40  C   UNK N   1      -4.407   5.838  -0.167  0.00  0.00     0.149 C 
ENDBRANCH  27  35
ENDBRANCH  21  23
ENDBRANCH   1  21
TORSDOF 11
