REMARK  3 active torsions:
REMARK  status: ('A' for Active; 'I' for Inactive)
REMARK    1  A    between atoms: C_6  and  C_7 
REMARK    2  A    between atoms: C_7  and  C_10 
REMARK    3  A    between atoms: C_13  and  N_17 
ROOT
HETATM    1  C   UNK N   1       0.740  -2.979   0.527  0.00  0.00     0.162 C 
HETATM    2  C   UNK N   1       1.984  -2.280   0.179  0.00  0.00     0.073 C 
HETATM    3  N   UNK N   1       2.958  -1.719  -0.101  0.00  0.00    -0.196 NA
ENDROOT
BRANCH   1   4
HETATM    4  C   UNK N   1       0.714  -4.400  -0.015  0.00  0.00    -0.036 A 
HETATM    5  C   UNK N   1      -0.313  -4.838  -0.883  0.00  0.00     0.012 A 
HETATM    6  C   UNK N   1      -0.612  -6.200  -0.991  0.00  0.00     0.043 A 
HETATM    7  C   UNK N   1       0.125  -7.132  -0.258  0.00  0.00     0.116 A 
HETATM    8  C   UNK N   1       1.212  -6.713   0.512  0.00  0.00     0.043 A 
HETATM    9  F   UNK N   1      -0.239  -8.437  -0.255  0.00  0.00    -0.206 F 
HETATM   10  C   UNK N   1       1.493  -5.352   0.647  0.00  0.00     0.012 A 
ENDBRANCH   1   4
BRANCH   1  11
HETATM   11  C   UNK N   1      -0.612  -2.253   0.397  0.00  0.00     0.007 C 
HETATM   12  C   UNK N   1      -1.782  -2.966   0.787  0.00  0.00     0.045 C 
HETATM   13  C   UNK N   1      -3.022  -2.442   0.551  0.00  0.00     0.056 C 
HETATM   14 Cl   UNK N   1      -1.787  -4.509   1.648  0.00  0.00    -0.084 Cl
HETATM   15  C   UNK N   1      -3.206  -1.191   0.000  0.00  0.00     0.064 C 
HETATM   16  C   UNK N   1      -2.082  -0.390  -0.241  0.00  0.00     0.056 C 
HETATM   17  C   UNK N   1      -0.786  -0.907  -0.071  0.00  0.00     0.045 C 
HETATM   18 Cl   UNK N   1       0.536   0.214  -0.373  0.00  0.00    -0.084 Cl
BRANCH  15  19
HETATM   19  N   UNK N   1      -4.549  -0.682  -0.103  0.00  0.00    -0.206 N 
HETATM   20  C   UNK N   1      -5.641  -1.543  -0.180  0.00  0.00     0.348 A 
HETATM   21  O   UNK N   1      -5.496  -2.743  -0.335  0.00  0.00    -0.245 OA
HETATM   22  N   UNK N   1      -6.902  -1.038  -0.069  0.00  0.00    -0.273 N 
HETATM   23  C   UNK N   1      -7.091   0.297   0.109  0.00  0.00     0.266 A 
HETATM   24  H   UNK N   1      -7.679  -1.641  -0.119  0.00  0.00     0.173 HD
HETATM   25  O   UNK N   1      -8.213   0.736   0.272  0.00  0.00    -0.267 OA
HETATM   26  C   UNK N   1      -5.995   1.153   0.111  0.00  0.00     0.182 A 
HETATM   27  N   UNK N   1      -4.747   0.632  -0.001  0.00  0.00    -0.296 N 
ATOM     28  HN  UNK N   1      -3.943   1.260  -0.007  1.00  0.00     0.187 HD
ENDBRANCH  15  19
ENDBRANCH   1  11
TORSDOF 3
