REMARK  10 active torsions:
REMARK  status: ('A' for Active; 'I' for Inactive)
REMARK    1  A    between atoms: C_2  and  C_4 
REMARK    2  A    between atoms: C_2  and  N_22 
REMARK    3  A    between atoms: C_4  and  C_5 
REMARK    4  A    between atoms: C_5  and  C_6 
REMARK    5  A    between atoms: C_6  and  C_7 
REMARK    6  A    between atoms: C_6  and  C_13 
REMARK    7  A    between atoms: C_6  and  C_19 
REMARK       I    between atoms: C_19  and  N_21 
REMARK    8  A    between atoms: C_24  and  O_26 
REMARK    9  A    between atoms: O_26  and  C_27 
REMARK   10  A    between atoms: C_31  and  O_33 
ROOT
HETATM    1  C   UNK N   1       2.086   1.310  -0.770  0.00  0.00     0.032 C 
ENDROOT
BRANCH   1   2
HETATM    2  C   UNK N   1       2.543  -0.021  -0.142  0.00  0.00     0.043 C 
BRANCH   2   3
HETATM    3  C   UNK N   1       3.000  -1.092  -1.142  0.00  0.00     0.153 C 
HETATM    4  C   UNK N   1       1.762  -1.630  -1.866  0.00  0.00     0.049 C 
HETATM    5  C   UNK N   1       3.919  -0.466  -2.185  0.00  0.00     0.049 C 
BRANCH   3   6
HETATM    6  N   UNK N   1       3.773  -2.129  -0.407  0.00  0.00     0.102 N 
HETATM    7  C   UNK N   1       2.943  -2.961   0.458  0.00  0.00     0.307 A 
HETATM    8  C   UNK N   1       3.153  -4.205  -0.393  0.00  0.00     0.185 A 
HETATM    9  C   UNK N   1       4.058  -3.313  -1.218  0.00  0.00     0.307 A 
BRANCH   8  10
HETATM   10  O   UNK N   1       2.012  -4.437  -1.128  0.00  0.00    -0.342 OA
BRANCH  10  11
HETATM   11  C   UNK N   1       0.824  -4.775  -0.579  0.00  0.00     0.072 A 
HETATM   12  C   UNK N   1       0.742  -5.410   0.672  0.00  0.00     0.037 A 
HETATM   13  C   UNK N   1      -0.508  -5.696   1.229  0.00  0.00     0.005 A 
HETATM   14  C   UNK N   1      -1.675  -5.328   0.552  0.00  0.00     0.037 A 
HETATM   15  C   UNK N   1      -1.592  -4.691  -0.689  0.00  0.00     0.068 A 
HETATM   16  C   UNK N   1      -0.346  -4.428  -1.257  0.00  0.00     0.073 A 
BRANCH  15  17
HETATM   17  O   UNK N   1      -2.710  -4.316  -1.330  0.00  0.00    -0.361 OA
HETATM   18  H   UNK N   1      -2.873  -3.509  -1.778  0.00  0.00     0.217 HD
ENDBRANCH  15  17
ENDBRANCH  10  11
ENDBRANCH   8  10
ENDBRANCH   3   6
ENDBRANCH   2   3
ENDBRANCH   1   2
BRANCH   1  19
HETATM   19  C   UNK N   1       1.408   2.279   0.236  0.00  0.00     0.095 C 
BRANCH  19  20
HETATM   20  C   UNK N   1       1.491   3.693  -0.365  0.00  0.00    -0.036 A 
HETATM   21  C   UNK N   1       0.338   4.464  -0.619  0.00  0.00     0.009 A 
HETATM   22  C   UNK N   1       0.439   5.754  -1.146  0.00  0.00     0.001 A 
HETATM   23  C   UNK N   1       1.693   6.295  -1.435  0.00  0.00     0.000 A 
HETATM   24  C   UNK N   1       2.846   5.543  -1.202  0.00  0.00     0.001 A 
HETATM   25  C   UNK N   1       2.746   4.253  -0.673  0.00  0.00     0.009 A 
ENDBRANCH  19  20
BRANCH  19  26
HETATM   26  C   UNK N   1      -0.062   1.872   0.468  0.00  0.00    -0.036 A 
HETATM   27  C   UNK N   1      -0.647   0.797  -0.229  0.00  0.00     0.009 A 
HETATM   28  C   UNK N   1      -1.992   0.468  -0.035  0.00  0.00     0.001 A 
HETATM   29  C   UNK N   1      -2.772   1.207   0.856  0.00  0.00     0.000 A 
HETATM   30  C   UNK N   1      -2.209   2.274   1.558  0.00  0.00     0.001 A 
HETATM   31  C   UNK N   1      -0.866   2.606   1.364  0.00  0.00     0.009 A 
ENDBRANCH  19  26
BRANCH  19  32
HETATM   32  C   UNK N   1       2.204   2.262   1.551  0.00  0.00     0.233 C 
HETATM   33  O   UNK N   1       3.390   2.544   1.550  0.00  0.00    -0.272 OA
HETATM   34  N   UNK N   1       1.620   1.896   2.714  0.00  0.00    -0.369 N 
HETATM   35  H   UNK N   1       1.177   2.130   3.561  0.00  0.00     0.159 HD
HETATM   36  H   UNK N   1       1.656   0.912   2.714  0.00  0.00     0.159 HD
ENDBRANCH  19  32
ENDBRANCH   1  19
TORSDOF 10
