REMARK  0 active torsions:
REMARK  status: ('A' for Active; 'I' for Inactive)
ROOT
HETATM    1  C   UNK N   1       6.559   1.260   0.388  0.00  0.00     0.018 A 
HETATM    2  C   UNK N   1       5.353   1.707   0.954  0.00  0.00     0.013 A 
HETATM    3  C   UNK N   1       4.171   1.125   0.508  0.00  0.00    -0.004 A 
HETATM    4  C   UNK N   1       4.186   0.168  -0.442  0.00  0.00     0.149 A 
HETATM    5  N   UNK N   1       5.340  -0.277  -1.005  0.00  0.00    -0.346 N 
ATOM      6  HN  UNK N   1       5.316  -1.002  -1.722  1.00  0.00     0.167 HD
HETATM    7  C   UNK N   1       6.530   0.256  -0.602  0.00  0.00     0.090 A 
HETATM    8  O   UNK N   1       2.975  -0.291  -0.722  0.00  0.00    -0.321 OA
HETATM    9  C   UNK N   1       2.014   0.307   0.088  0.00  0.00     0.103 A 
HETATM   10  C   UNK N   1       2.775   1.383   0.935  0.00  0.00     0.083 A 
HETATM   11  C   UNK N   1       1.419  -0.773   1.020  0.00  0.00     0.311 C 
HETATM   12  N   UNK N   1       0.004  -1.037   0.706  0.00  0.00     0.091 N 
HETATM   13  C   UNK N   1      -0.772   0.185   0.988  0.00  0.00     0.273 C 
HETATM   14  C   UNK N   1      -0.241   1.390   0.174  0.00  0.00     0.038 C 
HETATM   15  C   UNK N   1       0.883   0.921  -0.765  0.00  0.00     0.026 C 
HETATM   16  C   UNK N   1       0.291  -0.202  -1.630  0.00  0.00     0.038 C 
HETATM   17  C   UNK N   1      -0.133  -1.379  -0.723  0.00  0.00     0.273 C 
ENDROOT
TORSDOF 0
