REMARK  7 active torsions:
REMARK  status: ('A' for Active; 'I' for Inactive)
REMARK    1  A    between atoms: C_2  and  C_1 
REMARK    2  A    between atoms: C_13  and  C_1 
REMARK    3  A    between atoms: C_20  and  C_2 
REMARK    4  A    between atoms: N_24  and  C_13 
REMARK    5  A    between atoms: C_20  and  C_16 
REMARK    6  A    between atoms: C_21  and  C_17 
REMARK    7  A    between atoms: O_26  and  C_21 
ROOT
HETATM    1  C   UNK N   1       6.764  -0.848   1.466  0.00  0.00     0.073 C 
HETATM    2  C   UNK N   1       7.399  -1.434  -0.922  0.00  0.00     0.073 C 
HETATM    3  C   UNK N   1       5.398  -1.163   0.856  0.00  0.00     0.276 C 
HETATM    4  C   UNK N   1       6.636  -2.724  -0.596  0.00  0.00     0.276 C 
HETATM    5  C   UNK N   1       7.855  -0.759   0.381  0.00  0.00     0.088 C 
HETATM    6  N   UNK N   1       5.403  -2.476   0.178  0.00  0.00     0.088 N 
ENDROOT
BRANCH   6   7
HETATM    7  C   UNK N   1       4.295  -2.565  -0.775  0.00  0.00     0.272 C 
BRANCH   7   8
HETATM    8  C   UNK N   1       2.923  -2.429  -0.123  0.00  0.00     0.038 C 
BRANCH   8   9
HETATM    9  C   UNK N   1       2.560  -0.953  -0.081  0.00  0.00     0.085 C 
BRANCH   9  10
HETATM   10  C   UNK N   1       1.108  -0.546   0.008  0.00  0.00     0.159 C 
HETATM   11  O   UNK N   1       0.883   0.653   0.069  0.00  0.00    -0.292 OA
BRANCH  10  12
HETATM   12  C   UNK N   1      -0.055  -1.481   0.004  0.00  0.00     0.010 A 
HETATM   13  C   UNK N   1      -1.353  -0.945   0.058  0.00  0.00     0.018 A 
HETATM   14  C   UNK N   1      -2.472  -1.779   0.046  0.00  0.00     0.043 A 
HETATM   15  C   UNK N   1      -2.309  -3.163  -0.018  0.00  0.00     0.116 A 
HETATM   16  C   UNK N   1      -1.025  -3.712  -0.071  0.00  0.00     0.043 A 
HETATM   17  F   UNK N   1      -3.395  -3.972  -0.031  0.00  0.00    -0.206 F 
HETATM   18  C   UNK N   1       0.096  -2.875  -0.060  0.00  0.00     0.018 A 
ENDBRANCH  10  12
ENDBRANCH   9  10
ENDBRANCH   8   9
ENDBRANCH   7   8
ENDBRANCH   6   7
BRANCH   5  19
HETATM   19  C   UNK N   1       8.199   0.692   0.117  0.00  0.00    -0.024 A 
HETATM   20  C   UNK N   1       9.512   1.161   0.299  0.00  0.00     0.011 A 
HETATM   21  C   UNK N   1       9.823   2.505   0.076  0.00  0.00     0.020 A 
HETATM   22  C   UNK N   1       8.826   3.396  -0.324  0.00  0.00     0.011 A 
HETATM   23  C   UNK N   1       7.517   2.943  -0.512  0.00  0.00     0.020 A 
HETATM   24 Br   UNK N   1       9.251   5.233  -0.603  0.00  0.00    -0.051 Br
HETATM   25  C   UNK N   1       7.205   1.596  -0.297  0.00  0.00     0.011 A 
ENDBRANCH   5  19
BRANCH   5  26
HETATM   26  O   UNK N   1       8.978  -1.444   0.856  0.00  0.00    -0.385 OA
HETATM   27  H   UNK N   1       8.956  -2.356   1.185  0.00  0.00     0.211 HD
ENDBRANCH   5  26
TORSDOF 7
