REMARK  5 active torsions:
REMARK  status: ('A' for Active; 'I' for Inactive)
REMARK    1  A    between atoms: C_2  and  O_4 
REMARK    2  A    between atoms: O_4  and  C_5 
REMARK       I    between atoms: C_5  and  N_7 
REMARK    3  A    between atoms: C_8  and  N_7 
REMARK    4  A    between atoms: N_17  and  C_20 
REMARK    5  A    between atoms: C_20  and  C_21 
ROOT
HETATM    1  C   UNK N   1      -0.453  -1.652   1.181  0.00  0.00     0.096 A 
HETATM    2  C   UNK N   1       0.781  -0.708   1.322  0.00  0.00     0.067 A 
HETATM    3  C   UNK N   1       1.758  -1.414   0.482  0.00  0.00    -0.021 A 
HETATM    4  C   UNK N   1       3.058  -1.257   0.077  0.00  0.00     0.001 A 
HETATM    5  C   UNK N   1       3.962  -0.257   0.345  0.00  0.00     0.037 A 
HETATM    6  C   UNK N   1       5.258  -0.382  -0.160  0.00  0.00     0.045 A 
HETATM    7  C   UNK N   1       5.626  -1.528  -0.931  0.00  0.00     0.025 A 
HETATM    8  C   UNK N   1       4.679  -2.554  -1.175  0.00  0.00     0.032 A 
HETATM    9  C   UNK N   1       3.387  -2.375  -0.647  0.00  0.00     0.046 A 
HETATM   10  N   UNK N   1       2.328  -3.224  -0.666  0.00  0.00    -0.344 N 
HETATM   11  C   UNK N   1       1.339  -2.588   0.009  0.00  0.00     0.021 A 
HETATM   12  C   UNK N   1      -0.042  -2.939   0.387  0.00  0.00     0.083 A 
HETATM   13  C   UNK N   1       6.201   0.666   0.140  0.00  0.00     0.099 C 
HETATM   14  N   UNK N   1       6.986   1.489   0.359  0.00  0.00    -0.191 NA
ENDROOT
BRANCH  10  15
HETATM   15  C   UNK N   1       2.317  -4.588  -1.181  0.00  0.00     0.186 C 
BRANCH  15  16
HETATM   16  C   UNK N   1       3.346  -5.431  -0.445  0.00  0.00     0.027 A 
HETATM   17  C   UNK N   1       4.076  -4.912   0.646  0.00  0.00     0.027 A 
HETATM   18  C   UNK N   1       5.084  -5.667   1.245  0.00  0.00     0.003 A 
HETATM   19  C   UNK N   1       5.363  -6.939   0.755  0.00  0.00     0.017 A 
HETATM   20  C   UNK N   1       4.601  -7.444  -0.307  0.00  0.00     0.088 A 
HETATM   21  N   UNK N   1       3.618  -6.689  -0.881  0.00  0.00    -0.368 N 
ATOM     22  HN  UNK N   1       3.077  -7.079  -1.652  1.00  0.00     0.165 HD
ENDBRANCH  15  16
ENDBRANCH  10  15
BRANCH   1  23
HETATM   23  N   UNK N   1      -1.593  -0.948   0.608  0.00  0.00    -0.332 N 
HETATM   24  C   UNK N   1      -1.512   0.002  -0.369  0.00  0.00     0.361 C 
HETATM   25  O   UNK N   1      -0.439   0.296  -0.877  0.00  0.00    -0.238 OA
HETATM   26  H   UNK N   1      -2.487  -1.173   0.951  0.00  0.00     0.165 HD
BRANCH  24  27
HETATM   27  O   UNK N   1      -2.596   0.752  -0.649  0.00  0.00    -0.299 OA
BRANCH  27  28
HETATM   28  C   UNK N   1      -2.903   1.793   0.197  0.00  0.00     0.125 C 
HETATM   29  C   UNK N   1      -4.286   2.312  -0.088  0.00  0.00     0.040 C 
HETATM   30  C   UNK N   1      -1.953   2.936  -0.067  0.00  0.00     0.040 C 
ENDBRANCH  27  28
ENDBRANCH  24  27
ENDBRANCH   1  23
TORSDOF 5
