REMARK  3 active torsions:
REMARK  status: ('A' for Active; 'I' for Inactive)
REMARK    1  A    between atoms: C_4  and  S_19 
REMARK    2  A    between atoms: C_5  and  S_15 
REMARK    3  A    between atoms: C_7  and  C_8 
REMARK       I    between atoms: C_8  and  N_10 
REMARK       I    between atoms: N_10  and  C_11 
REMARK       I    between atoms: C_11  and  N_14 
ROOT
HETATM    1  C   UNK N   1       1.025   3.637   0.019  0.00  0.00     0.049 C 
HETATM    2  C   UNK N   1       0.975   2.147  -0.024  0.00  0.00    -0.045 A 
HETATM    3  C   UNK N   1       2.186   1.444   0.027  0.00  0.00     0.032 A 
HETATM    4  C   UNK N   1       2.214   0.043  -0.010  0.00  0.00     0.080 A 
HETATM    5  C   UNK N   1       0.999  -0.669  -0.116  0.00  0.00     0.081 A 
HETATM    6  C   UNK N   1      -0.199   0.037  -0.153  0.00  0.00     0.042 A 
HETATM    7  C   UNK N   1      -0.246   1.431  -0.100  0.00  0.00     0.040 A 
ENDROOT
BRANCH   7   8
HETATM    8  C   UNK N   1      -1.593   2.069  -0.109  0.00  0.00     0.270 C 
HETATM    9  O   UNK N   1      -1.712   3.282  -0.060  0.00  0.00    -0.267 OA
HETATM   10  N   UNK N   1      -2.692   1.263  -0.149  0.00  0.00    -0.156 N 
HETATM   11  C   UNK N   1      -4.048   1.692  -0.102  0.00  0.00     0.672 C 
HETATM   12  H   UNK N   1      -2.533   0.293  -0.217  0.00  0.00     0.187 HD
HETATM   13  N   UNK N   1      -4.982   0.818  -0.175  0.00  0.00    -0.235 N 
HETATM   14  N   UNK N   1      -4.383   3.048   0.109  0.00  0.00    -0.235 N 
HETATM   15  H   UNK N   1      -5.923   1.103  -0.231  0.00  0.00     0.174 HD
ATOM     16  HN  UNK N   1      -4.751  -0.176  -0.175  1.00  0.00     0.174 HD
HETATM   17  H   UNK N   1      -3.681   3.723   0.256  0.00  0.00     0.174 HD
HETATM   18  H   UNK N   1      -5.328   3.322   0.109  0.00  0.00     0.174 HD
ENDBRANCH   7   8
BRANCH   5  19
HETATM   19  S   UNK N   1       0.881  -2.464  -0.228  0.00  0.00     0.173 S 
HETATM   20  O   UNK N   1       0.254  -2.726  -1.606  0.00  0.00    -0.223 OA
HETATM   21  O   UNK N   1      -0.344  -2.846   0.617  0.00  0.00    -0.223 OA
HETATM   22  C   UNK N   1       2.068  -3.815   0.014  0.00  0.00     0.167 C 
ENDBRANCH   5  19
BRANCH   4  23
HETATM   23  S   UNK N   1       3.811  -0.777   0.100  0.00  0.00     0.173 S 
HETATM   24  O   UNK N   1       3.705  -1.797   1.244  0.00  0.00    -0.223 OA
HETATM   25  O   UNK N   1       3.947  -1.741  -1.088  0.00  0.00    -0.223 OA
HETATM   26  C   UNK N   1       5.413   0.043   0.327  0.00  0.00     0.167 C 
ENDBRANCH   4  23
TORSDOF 3
