REMARK  10 active torsions:
REMARK  status: ('A' for Active; 'I' for Inactive)
REMARK    1  A    between atoms: C_3  and  C_21 
REMARK    2  A    between atoms: C_7  and  N_10 
REMARK       I    between atoms: N_10  and  C_11 
REMARK    3  A    between atoms: C_11  and  C_13 
REMARK    4  A    between atoms: C_13  and  C_14 
REMARK    5  A    between atoms: C_13  and  N_20 
REMARK    6  A    between atoms: C_21  and  O_23 
REMARK    7  A    between atoms: O_23  and  C_24 
REMARK    8  A    between atoms: C_24  and  O_25 
REMARK    9  A    between atoms: O_25  and  C_26 
REMARK   10  A    between atoms: C_28  and  C_26 
ROOT
HETATM    1  C   UNK N   1       4.336   8.083  -1.049  0.00  0.00     0.029 C 
HETATM    2  C   UNK N   1       3.054   7.913  -0.258  0.00  0.00     0.028 C 
HETATM    3  C   UNK N   1       2.591   6.452  -0.313  0.00  0.00     0.184 C 
HETATM    4  N   UNK N   1       1.163   6.504  -0.159  0.00  0.00    -0.220 NA
HETATM    5  C   UNK N   1       0.492   7.765  -0.212  0.00  0.00     0.160 A 
HETATM    6  S   UNK N   1       1.698   8.881  -1.015  0.00  0.00    -0.135 SA
HETATM    7  C   UNK N   1      -0.554   7.083  -1.230  0.00  0.00     0.199 A 
HETATM    8  C   UNK N   1       0.328   5.912  -0.974  0.00  0.00     0.227 A 
HETATM    9  O   UNK N   1       0.627   5.006  -1.742  0.00  0.00    -0.277 OA
HETATM   10  C   UNK N   1       3.257   8.417   1.166  0.00  0.00     0.029 C 
ENDROOT
BRANCH   3  11
HETATM   11  C   UNK N   1       3.277   5.497   0.632  0.00  0.00     0.280 C 
HETATM   12  O   UNK N   1       4.498   5.493   0.703  0.00  0.00    -0.263 OA
BRANCH  11  13
HETATM   13  O   UNK N   1       2.548   4.553   1.280  0.00  0.00    -0.294 OA
BRANCH  13  14
HETATM   14  C   UNK N   1       3.106   3.515   2.008  0.00  0.00     0.358 C 
BRANCH  14  15
HETATM   15  O   UNK N   1       3.974   2.752   1.244  0.00  0.00    -0.294 OA
BRANCH  15  16
HETATM   16  C   UNK N   1       3.674   2.341  -0.011  0.00  0.00     0.281 C 
HETATM   17  O   UNK N   1       3.869   3.086  -0.958  0.00  0.00    -0.263 OA
BRANCH  16  18
HETATM   18  C   UNK N   1       3.096   0.986  -0.268  0.00  0.00     0.189 C 
HETATM   19  C   UNK N   1       4.003  -0.248  -0.073  0.00  0.00     0.084 C 
HETATM   20  S   UNK N   1       2.753  -1.535   0.097  0.00  0.00     0.172 S 
HETATM   21  C   UNK N   1       4.801  -0.179   1.221  0.00  0.00     0.034 C 
HETATM   22  C   UNK N   1       4.927  -0.466  -1.255  0.00  0.00     0.034 C 
HETATM   23  O   UNK N   1       3.205  -2.754   0.915  0.00  0.00    -0.225 OA
HETATM   24  O   UNK N   1       2.305  -2.088  -1.267  0.00  0.00    -0.225 OA
HETATM   25  C   UNK N   1       1.470  -0.554   0.888  0.00  0.00     0.198 A 
HETATM   26  N   UNK N   1       1.817   0.745   0.389  0.00  0.00    -0.219 NA
HETATM   27  C   UNK N   1       0.076  -0.413   0.103  0.00  0.00     0.132 A 
HETATM   28  C   UNK N   1       0.689   0.892  -0.252  0.00  0.00     0.204 A 
HETATM   29  O   UNK N   1       0.521   1.569  -1.255  0.00  0.00    -0.280 OA
ENDBRANCH  16  18
ENDBRANCH  15  16
ENDBRANCH  14  15
ENDBRANCH  13  14
ENDBRANCH  11  13
ENDBRANCH   3  11
BRANCH   7  30
HETATM   30  N   UNK N   1      -1.888   6.937  -0.654  0.00  0.00    -0.344 N 
HETATM   31  C   UNK N   1      -2.180   6.687   0.654  0.00  0.00     0.245 C 
HETATM   32  O   UNK N   1      -1.293   6.495   1.471  0.00  0.00    -0.271 OA
HETATM   33  H   UNK N   1      -2.651   7.029  -1.270  0.00  0.00     0.163 HD
BRANCH  31  34
HETATM   34  C   UNK N   1      -3.604   6.676   1.129  0.00  0.00     0.201 C 
BRANCH  34  35
HETATM   35  C   UNK N   1      -4.460   5.576   0.551  0.00  0.00    -0.027 A 
HETATM   36  C   UNK N   1      -3.946   4.276   0.433  0.00  0.00     0.010 A 
HETATM   37  C   UNK N   1      -4.751   3.238  -0.044  0.00  0.00     0.001 A 
HETATM   38  C   UNK N   1      -6.085   3.484  -0.379  0.00  0.00     0.000 A 
HETATM   39  C   UNK N   1      -6.613   4.770  -0.245  0.00  0.00     0.001 A 
HETATM   40  C   UNK N   1      -5.804   5.813   0.215  0.00  0.00     0.010 A 
ENDBRANCH  34  35
BRANCH  34  41
HETATM   41  N   UNK N   1      -4.207   7.990   0.939  0.00  0.00    -0.415 N 
HETATM   42  H   UNK N   1      -3.622   8.814   0.806  0.00  0.00     0.151 HD
HETATM   43  H   UNK N   1      -5.222   8.085   0.939  0.00  0.00     0.151 HD
ENDBRANCH  34  41
ENDBRANCH  31  34
ENDBRANCH   7  30
TORSDOF 10
