REMARK  14 active torsions:
REMARK  status: ('A' for Active; 'I' for Inactive)
REMARK    1  A    between atoms: C_2  and  C_1 
REMARK    2  A    between atoms: C_1  and  O_21 
REMARK    3  A    between atoms: C_3  and  O_20 
REMARK    4  A    between atoms: C_4  and  O_19 
REMARK    5  A    between atoms: C_5  and  O_18 
REMARK    6  A    between atoms: C_6  and  O_8 
REMARK    7  A    between atoms: C_9  and  O_8 
REMARK    8  A    between atoms: C_9  and  C_10 
REMARK    9  A    between atoms: C_9  and  C_12 
REMARK   10  A    between atoms: C_10  and  O_11 
REMARK   11  A    between atoms: C_12  and  C_13 
REMARK   12  A    between atoms: C_12  and  O_17 
REMARK   13  A    between atoms: C_13  and  C_14 
REMARK   14  A    between atoms: C_13  and  O_16 
ROOT
HETATM    1  C   UNK N   1      -0.266   0.816  -0.247  0.00  0.00     0.179 C 
HETATM    2  C   UNK N   1      -0.873   2.065   0.411  0.00  0.00     0.180 C 
HETATM    3  C   UNK N   1      -0.075   3.300  -0.027  0.00  0.00     0.183 C 
HETATM    4  C   UNK N   1       1.437   3.082   0.118  0.00  0.00     0.204 C 
HETATM    5  C   UNK N   1       1.747   1.758  -0.583  0.00  0.00     0.292 C 
HETATM    6  O   UNK N   1       1.089   0.721   0.112  0.00  0.00    -0.348 OA
ENDROOT
BRANCH   5   7
HETATM    7  O   UNK N   1       3.138   1.546  -0.809  0.00  0.00    -0.348 OA
BRANCH   7   8
HETATM    8  C   UNK N   1       3.632   0.389  -0.166  0.00  0.00     0.179 C 
BRANCH   8   9
HETATM    9  C   UNK N   1       3.170  -0.849  -0.934  0.00  0.00     0.198 C 
BRANCH   9  10
HETATM   10  O   UNK N   1       2.778  -1.839  -0.032  0.00  0.00    -0.398 OA
HETATM   11  H   UNK N   1       2.046  -1.948   0.595  0.00  0.00     0.209 HD
ENDBRANCH   9  10
ENDBRANCH   8   9
BRANCH   8  12
HETATM   12  C   UNK N   1       5.170   0.459  -0.132  0.00  0.00     0.184 C 
BRANCH  12  13
HETATM   13  C   UNK N   1       5.838  -0.678   0.664  0.00  0.00     0.210 C 
BRANCH  13  14
HETATM   14  C   UNK N   1       7.326  -0.490   0.694  0.00  0.00     0.265 C 
HETATM   15  O   UNK N   1       8.083  -1.351   0.255  0.00  0.00    -0.304 OA
ENDBRANCH  13  14
BRANCH  13  16
HETATM   16  O   UNK N   1       5.535  -1.926   0.113  0.00  0.00    -0.386 OA
HETATM   17  H   UNK N   1       4.679  -2.176  -0.270  0.00  0.00     0.210 HD
ENDBRANCH  13  16
ENDBRANCH  12  13
BRANCH  12  18
HETATM   18  O   UNK N   1       5.558   1.689   0.407  0.00  0.00    -0.390 OA
HETATM   19  H   UNK N   1       6.432   1.882   0.781  0.00  0.00     0.210 HD
ENDBRANCH  12  18
ENDBRANCH   8  12
ENDBRANCH   7   8
ENDBRANCH   5   7
BRANCH   4  20
HETATM   20  O   UNK N   1       2.118   4.133  -0.497  0.00  0.00    -0.388 OA
HETATM   21  H   UNK N   1       2.988   4.088  -0.925  0.00  0.00     0.210 HD
ENDBRANCH   4  20
BRANCH   3  22
HETATM   22  O   UNK N   1      -0.482   4.422   0.697  0.00  0.00    -0.390 OA
HETATM   23  H   UNK N   1       0.051   5.057   1.200  0.00  0.00     0.210 HD
ENDBRANCH   3  22
BRANCH   1  24
HETATM   24  C   UNK N   1      -0.992  -0.438   0.211  0.00  0.00     0.198 C 
BRANCH  24  25
HETATM   25  O   UNK N   1      -0.426  -1.563  -0.389  0.00  0.00    -0.398 OA
HETATM   26  H   UNK N   1      -0.906  -2.296  -0.806  0.00  0.00     0.209 HD
ENDBRANCH  24  25
ENDBRANCH   1  24
BRANCH   2  27
HETATM   27  O   UNK N   1      -2.205   2.212   0.017  0.00  0.00    -0.390 OA
HETATM   28  H   UNK N   1      -2.580   3.064  -0.256  0.00  0.00     0.210 HD
ENDBRANCH   2  27
TORSDOF 14
