REMARK  0 active torsions:
REMARK  status: ('A' for Active; 'I' for Inactive)
ROOT
HETATM    1  C   UNK N   1      -2.176  -0.022  -0.000  0.00  0.00     0.001 A 
HETATM    2  C   UNK N   1      -2.199  -1.411  -0.000  0.00  0.00     0.002 A 
HETATM    3  C   UNK N   1      -1.002  -2.122  -0.000  0.00  0.00     0.032 A 
HETATM    4  C   UNK N   1       0.238  -1.470   0.000  0.00  0.00     0.058 A 
HETATM    5  C   UNK N   1       0.257  -0.051   0.000  0.00  0.00    -0.008 A 
HETATM    6  C   UNK N   1      -0.957   0.648   0.000  0.00  0.00     0.014 A 
HETATM    7  C   UNK N   1       1.441   0.796   0.000  0.00  0.00     0.015 A 
HETATM    8  C   UNK N   1       2.715   0.447   0.000  0.00  0.00     0.019 A 
HETATM    9  C   UNK N   1       3.306  -0.890  -0.000  0.00  0.00     0.107 A 
HETATM   10  N   UNK N   1       2.724  -2.038  -0.000  0.00  0.00    -0.311 N 
ATOM     11  HN  UNK N   1       3.345  -2.847  -0.000  1.00  0.00     0.186 HD
HETATM   12  N   UNK N   1       1.376  -2.322   0.000  0.00  0.00    -0.300 N 
HETATM   13  H   UNK N   1       1.163  -3.283   0.000  0.00  0.00     0.187 HD
ENDROOT
TORSDOF 0
