REMARK  19 active torsions:
REMARK  status: ('A' for Active; 'I' for Inactive)
REMARK    1  A    between atoms: C_2  and  C_10 
REMARK    2  A    between atoms: N_3  and  N_5 
REMARK       I    between atoms: N_5  and  C_6 
REMARK       I    between atoms: C_6  and  N_9 
REMARK    3  A    between atoms: C_12  and  N_25 
REMARK    4  A    between atoms: C_14  and  C_16 
REMARK    5  A    between atoms: N_17  and  N_19 
REMARK       I    between atoms: N_19  and  C_20 
REMARK       I    between atoms: C_20  and  N_23 
REMARK       I    between atoms: N_25  and  C_26 
REMARK    6  A    between atoms: C_26  and  C_28 
REMARK    7  A    between atoms: C_28  and  C_29 
REMARK    8  A    between atoms: C_29  and  C_30 
REMARK    9  A    between atoms: C_30  and  C_31 
REMARK   10  A    between atoms: C_31  and  C_32 
REMARK   11  A    between atoms: C_32  and  C_33 
REMARK   12  A    between atoms: C_33  and  C_34 
REMARK   13  A    between atoms: C_34  and  C_35 
REMARK   14  A    between atoms: C_35  and  C_36 
REMARK       I    between atoms: C_36  and  N_38 
REMARK   15  A    between atoms: N_38  and  C_39 
REMARK   16  A    between atoms: C_41  and  C_54 
REMARK   17  A    between atoms: C_43  and  C_45 
REMARK   18  A    between atoms: N_46  and  N_48 
REMARK       I    between atoms: N_48  and  C_49 
REMARK       I    between atoms: C_49  and  N_52 
REMARK   19  A    between atoms: N_55  and  N_57 
REMARK       I    between atoms: N_57  and  C_58 
REMARK       I    between atoms: C_58  and  N_61 
ROOT
HETATM    1  C   UNK N   1      -0.120  -6.487   1.178  0.00  0.00     0.000 C 
ENDROOT
BRANCH   1   2
HETATM    2  C   UNK N   1       0.198  -5.502   0.064  0.00  0.00     0.000 C 
BRANCH   2   3
HETATM    3  C   UNK N   1      -1.005  -5.254  -0.828  0.00  0.00     0.009 C 
BRANCH   3   4
HETATM    4  C   UNK N   1      -1.297  -6.468  -1.693  0.00  0.00     0.103 C 
BRANCH   4   5
HETATM    5  C   UNK N   1      -2.393  -7.286  -1.098  0.00  0.00     0.222 C 
HETATM    6  N   UNK N   1      -3.627  -6.735  -0.937  0.00  0.00    -0.327 N 
HETATM    7  H   UNK N   1      -3.730  -5.780  -1.152  0.00  0.00     0.169 HD
HETATM    8  O   UNK N   1      -2.168  -8.443  -0.779  0.00  0.00    -0.273 OA
BRANCH   6   9
HETATM    9  C   UNK N   1      -4.779  -7.433  -0.484  0.00  0.00     0.036 A 
HETATM   10  C   UNK N   1      -5.949  -6.733  -0.247  0.00  0.00     0.043 A 
HETATM   11  C   UNK N   1      -7.122  -7.391   0.156  0.00  0.00    -0.009 A 
HETATM   12  C   UNK N   1      -7.111  -8.798   0.310  0.00  0.00     0.027 A 
HETATM   13  C   UNK N   1      -5.916  -9.510   0.072  0.00  0.00    -0.009 A 
HETATM   14  C   UNK N   1      -4.776  -8.809  -0.319  0.00  0.00     0.043 A 
BRANCH  11  15
HETATM   15  C   UNK N   1      -8.315  -6.555   0.422  0.00  0.00     0.033 C 
HETATM   16  C   UNK N   1      -9.620  -7.173   0.828  0.00  0.00     0.070 C 
HETATM   17  N   UNK N   1      -8.184  -5.274   0.320  0.00  0.00    -0.290 N 
ATOM     18  HN  UNK N   1      -7.277  -4.903   0.040  1.00  0.00     0.187 HD
BRANCH  17  19
HETATM   19  N   UNK N   1      -9.200  -4.386   0.569  0.00  0.00    -0.133 N 
HETATM   20  C   UNK N   1      -8.938  -2.995   0.483  0.00  0.00     0.684 C 
HETATM   21  N   UNK N   1      -9.868  -2.152   0.737  0.00  0.00    -0.234 N 
HETATM   22  N   UNK N   1      -7.647  -2.532   0.139  0.00  0.00    -0.234 N 
HETATM   23  H   UNK N   1      -9.664  -1.209   0.932  0.00  0.00     0.174 HD
ATOM     24  HN  UNK N   1     -10.839  -2.464   0.737  1.00  0.00     0.174 HD
HETATM   25  H   UNK N   1      -6.918  -3.149  -0.100  0.00  0.00     0.174 HD
HETATM   26  H   UNK N   1      -7.471  -1.563   0.139  0.00  0.00     0.174 HD
HETATM   27  H   UNK N   1     -10.100  -4.710   0.805  0.00  0.00     0.205 HD
ENDBRANCH  17  19
ENDBRANCH  11  15
BRANCH  13  28
HETATM   28  C   UNK N   1      -5.772 -10.977   0.224  0.00  0.00     0.033 C 
HETATM   29  N   UNK N   1      -4.589 -11.473   0.064  0.00  0.00    -0.290 N 
ATOM     30  HN  UNK N   1      -3.831 -10.832  -0.170  1.00  0.00     0.187 HD
HETATM   31  C   UNK N   1      -6.942 -11.847   0.571  0.00  0.00     0.070 C 
BRANCH  29  32
HETATM   32  N   UNK N   1      -4.287 -12.805   0.188  0.00  0.00    -0.133 N 
HETATM   33  C   UNK N   1      -2.929 -13.215   0.108  0.00  0.00     0.684 C 
HETATM   34  N   UNK N   1      -1.996 -12.344  -0.031  0.00  0.00    -0.234 N 
HETATM   35  N   UNK N   1      -2.598 -14.582   0.204  0.00  0.00    -0.234 N 
HETATM   36  H   UNK N   1      -1.060 -12.630  -0.137  0.00  0.00     0.174 HD
ATOM     37  HN  UNK N   1      -2.225 -11.350  -0.031  1.00  0.00     0.174 HD
HETATM   38  H   UNK N   1      -3.309 -15.260   0.271  0.00  0.00     0.174 HD
HETATM   39  H   UNK N   1      -1.653 -14.860   0.204  0.00  0.00     0.174 HD
HETATM   40  H   UNK N   1      -5.001 -13.468   0.331  0.00  0.00     0.205 HD
ENDBRANCH  29  32
ENDBRANCH  13  28
ENDBRANCH   6   9
ENDBRANCH   4   5
ENDBRANCH   3   4
ENDBRANCH   2   3
ENDBRANCH   1   2
BRANCH   1  41
HETATM   41  C   UNK N   1       0.920  -7.594   1.206  0.00  0.00     0.000 C 
BRANCH  41  42
HETATM   42  C   UNK N   1       0.544  -8.680   0.211  0.00  0.00     0.000 C 
BRANCH  42  43
HETATM   43  C   UNK N   1       1.702  -9.048  -0.701  0.00  0.00     0.009 C 
BRANCH  43  44
HETATM   44  C   UNK N   1       2.029  -7.914  -1.659  0.00  0.00     0.103 C 
BRANCH  44  45
HETATM   45  C   UNK N   1       3.142  -7.086  -1.116  0.00  0.00     0.222 C 
HETATM   46  O   UNK N   1       2.948  -5.902  -0.884  0.00  0.00    -0.273 OA
HETATM   47  N   UNK N   1       4.356  -7.661  -0.897  0.00  0.00    -0.327 N 
HETATM   48  H   UNK N   1       4.436  -8.627  -1.067  0.00  0.00     0.169 HD
BRANCH  47  49
HETATM   49  C   UNK N   1       5.516  -6.980  -0.441  0.00  0.00     0.036 A 
HETATM   50  C   UNK N   1       5.531  -5.607  -0.267  0.00  0.00     0.043 A 
HETATM   51  C   UNK N   1       6.676  -4.923   0.140  0.00  0.00    -0.009 A 
HETATM   52  C   UNK N   1       7.860  -5.653   0.385  0.00  0.00     0.027 A 
HETATM   53  C   UNK N   1       7.852  -7.060   0.220  0.00  0.00    -0.009 A 
HETATM   54  C   UNK N   1       6.673  -7.698  -0.196  0.00  0.00     0.043 A 
BRANCH  51  55
HETATM   55  C   UNK N   1       6.548  -3.455   0.295  0.00  0.00     0.033 C 
HETATM   56  N   UNK N   1       5.374  -2.947   0.113  0.00  0.00    -0.290 N 
ATOM     57  HN  UNK N   1       4.615  -3.581  -0.135  1.00  0.00     0.187 HD
HETATM   58  C   UNK N   1       7.721  -2.599   0.663  0.00  0.00     0.070 C 
BRANCH  56  59
HETATM   59  N   UNK N   1       5.080  -1.613   0.231  0.00  0.00    -0.133 N 
HETATM   60  C   UNK N   1       3.727  -1.195   0.114  0.00  0.00     0.684 C 
HETATM   61  N   UNK N   1       2.792  -2.061  -0.050  0.00  0.00    -0.234 N 
HETATM   62  N   UNK N   1       3.401   0.175   0.194  0.00  0.00    -0.234 N 
HETATM   63  H   UNK N   1       1.859  -1.772  -0.175  0.00  0.00     0.174 HD
ATOM     64  HN  UNK N   1       3.018  -3.055  -0.050  1.00  0.00     0.174 HD
HETATM   65  H   UNK N   1       4.116   0.850   0.250  0.00  0.00     0.174 HD
HETATM   66  H   UNK N   1       2.458   0.456   0.194  0.00  0.00     0.174 HD
HETATM   67  H   UNK N   1       5.794  -0.956   0.394  0.00  0.00     0.205 HD
ENDBRANCH  56  59
ENDBRANCH  51  55
BRANCH  53  68
HETATM   68  C   UNK N   1       9.033  -7.916   0.481  0.00  0.00     0.033 C 
HETATM   69  N   UNK N   1       8.891  -9.192   0.344  0.00  0.00    -0.290 N 
ATOM     70  HN  UNK N   1       7.981  -9.547   0.050  1.00  0.00     0.187 HD
HETATM   71  C   UNK N   1      10.342  -7.322   0.909  0.00  0.00     0.070 C 
BRANCH  69  72
HETATM   72  N   UNK N   1       9.896 -10.097   0.573  0.00  0.00    -0.133 N 
HETATM   73  C   UNK N   1       9.630 -11.481   0.419  0.00  0.00     0.684 C 
HETATM   74  N   UNK N   1      10.551 -12.339   0.648  0.00  0.00    -0.234 N 
HETATM   75  N   UNK N   1       8.344 -11.921   0.024  0.00  0.00    -0.234 N 
HETATM   76  H   UNK N   1      10.334 -13.283   0.824  0.00  0.00     0.174 HD
ATOM     77  HN  UNK N   1      11.527 -12.041   0.648  1.00  0.00     0.174 HD
HETATM   78  H   UNK N   1       7.632 -11.299  -0.251  0.00  0.00     0.174 HD
HETATM   79  H   UNK N   1       8.154 -12.887   0.024  0.00  0.00     0.174 HD
HETATM   80  H   UNK N   1      10.792  -9.788   0.842  0.00  0.00     0.205 HD
ENDBRANCH  69  72
ENDBRANCH  53  68
ENDBRANCH  47  49
ENDBRANCH  44  45
ENDBRANCH  43  44
ENDBRANCH  42  43
ENDBRANCH  41  42
ENDBRANCH   1  41
TORSDOF 19
