REMARK  11 active torsions:
REMARK  status: ('A' for Active; 'I' for Inactive)
REMARK    1  A    between atoms: C_2  and  C_5 
REMARK    2  A    between atoms: C_8  and  C_11 
REMARK    3  A    between atoms: C_11  and  N_12 
REMARK    4  A    between atoms: N_12  and  C_13 
REMARK    5  A    between atoms: N_12  and  S_25 
REMARK    6  A    between atoms: C_13  and  C_14 
REMARK    7  A    between atoms: C_18  and  O_20 
REMARK    8  A    between atoms: O_20  and  C_21 
REMARK    9  A    between atoms: C_21  and  C_22 
REMARK   10  A    between atoms: C_22  and  O_24 
REMARK   11  A    between atoms: S_25  and  C_28 
ROOT
HETATM    1  N   UNK N   1      -2.940  -3.048  -0.102  0.00  0.00    -0.198 NA
ENDROOT
BRANCH   1   2
HETATM    2  C   UNK N   1      -1.768  -2.293  -0.529  0.00  0.00     0.146 C 
BRANCH   2   3
HETATM    3  C   UNK N   1      -1.871  -0.831  -0.279  0.00  0.00    -0.044 A 
HETATM    4  C   UNK N   1      -1.118  -0.257   0.749  0.00  0.00     0.009 A 
HETATM    5  C   UNK N   1      -1.114   1.128   0.924  0.00  0.00     0.008 A 
HETATM    6  C   UNK N   1      -1.846   1.958   0.056  0.00  0.00    -0.051 A 
HETATM    7  C   UNK N   1      -2.597   1.368  -0.977  0.00  0.00     0.008 A 
HETATM    8  C   UNK N   1      -2.606  -0.019  -1.144  0.00  0.00     0.009 A 
BRANCH   6   9
HETATM    9  C   UNK N   1      -1.822   3.467   0.199  0.00  0.00    -0.024 C 
HETATM   10  C   UNK N   1      -0.973   3.936   1.374  0.00  0.00     0.019 C 
HETATM   11  C   UNK N   1      -3.232   3.991   0.405  0.00  0.00     0.019 C 
HETATM   12  C   UNK N   1      -1.248   4.090  -1.062  0.00  0.00     0.019 C 
ENDBRANCH   6   9
ENDBRANCH   2   3
ENDBRANCH   1   2
BRANCH   1  13
HETATM   13  C   UNK N   1      -3.884  -3.029  -1.224  0.00  0.00     0.146 C 
BRANCH  13  14
HETATM   14  C   UNK N   1      -5.282  -3.431  -0.844  0.00  0.00    -0.041 A 
HETATM   15  C   UNK N   1      -5.524  -4.693  -0.288  0.00  0.00     0.008 A 
HETATM   16  C   UNK N   1      -6.826  -5.126  -0.045  0.00  0.00     0.003 A 
HETATM   17  C   UNK N   1      -7.901  -4.313  -0.387  0.00  0.00     0.037 A 
HETATM   18  C   UNK N   1      -7.684  -3.048  -0.934  0.00  0.00     0.070 A 
HETATM   19  C   UNK N   1      -6.368  -2.597  -1.161  0.00  0.00     0.045 A 
BRANCH  18  20
HETATM   20  O   UNK N   1      -8.758  -2.299  -1.245  0.00  0.00    -0.341 OA
BRANCH  20  21
HETATM   21  C   UNK N   1      -8.938  -1.039  -0.739  0.00  0.00     0.285 C 
BRANCH  21  22
HETATM   22  C   UNK N   1      -9.883  -1.152   0.416  0.00  0.00     0.164 C 
HETATM   23  O   UNK N   1     -10.992  -1.642   0.255  0.00  0.00    -0.648 OA
BRANCH  22  24
HETATM   24  O   UNK N   1      -9.491  -0.777   1.645  0.00  0.00    -0.775 OA
HETATM   25  H   UNK N   1      -9.127  -0.883   2.502  0.00  0.00     0.167 HD
ENDBRANCH  22  24
ENDBRANCH  21  22
ENDBRANCH  20  21
ENDBRANCH  18  20
ENDBRANCH  13  14
ENDBRANCH   1  13
BRANCH   1  26
HETATM   26  S   UNK N   1      -2.296  -4.696   0.161  0.00  0.00     0.245 S 
HETATM   27  O   UNK N   1      -3.038  -5.247   1.388  0.00  0.00    -0.206 OA
HETATM   28  O   UNK N   1      -2.831  -5.583  -0.978  0.00  0.00    -0.206 OA
BRANCH  26  29
HETATM   29  C   UNK N   1      -0.516  -4.848   0.323  0.00  0.00     0.090 A 
HETATM   30  C   UNK N   1       0.144  -4.255   1.400  0.00  0.00     0.027 A 
HETATM   31  C   UNK N   1       1.535  -4.327   1.483  0.00  0.00     0.018 A 
HETATM   32  C   UNK N   1       2.246  -4.989   0.480  0.00  0.00     0.087 A 
HETATM   33  N   UNK N   1       1.586  -5.559  -0.565  0.00  0.00    -0.374 N 
HETATM   34  C   UNK N   1       0.230  -5.497  -0.664  0.00  0.00     0.112 A 
ATOM     35  HN  UNK N   1       2.118  -6.042  -1.288  1.00  0.00     0.164 HD
ENDBRANCH  26  29
ENDBRANCH   1  26
TORSDOF 11
