REMARK  4 active torsions:
REMARK  status: ('A' for Active; 'I' for Inactive)
REMARK    1  A    between atoms: C_8  and  C_13 
REMARK    2  A    between atoms: C_19  and  N_15 
REMARK    3  A    between atoms: C_16  and  C_22 
REMARK    4  A    between atoms: C_23  and  N_29 
ROOT
HETATM    1  C   UNK N   1       4.230   1.012   0.000  0.00  0.00     0.000 A 
HETATM    2  C   UNK N   1       3.285   2.361  -0.000  0.00  0.00    -0.002 A 
HETATM    3  C   UNK N   1       2.463   2.437   0.000  0.00  0.00    -0.002 A 
HETATM    4  C   UNK N   1       2.587   1.764   0.000  0.00  0.00     0.136 A 
HETATM    5  C   UNK N   1       2.332   1.014  -0.000  0.00  0.00    -0.031 A 
HETATM    6  C   UNK N   1       3.753   0.938  -0.000  0.00  0.00     0.007 A 
HETATM    7  C   UNK N   1       1.660  -0.339  -0.000  0.00  0.00     0.146 A 
HETATM    8  C   UNK N   1       2.332  -1.015   0.000  0.00  0.00    -0.010 A 
HETATM    9  C   UNK N   1       3.213  -0.692   0.000  0.00  0.00     0.011 A 
HETATM   10  C   UNK N   1       4.331  -1.302  -0.000  0.00  0.00     0.001 A 
HETATM   11  C   UNK N   1       4.165  -2.111   0.000  0.00  0.00     0.002 A 
HETATM   12  C   UNK N   1       3.382  -2.371  -0.000  0.00  0.00     0.024 A 
HETATM   13  C   UNK N   1       2.765  -1.823  -0.000  0.00  0.00     0.042 A 
HETATM   14 Cl   UNK N   1       2.028  -2.326  -0.000  0.00  0.00    -0.084 Cl
HETATM   15  N   UNK N   1       1.094  -0.300   0.000  0.00  0.00    -0.392 N 
HETATM   16  C   UNK N   1       0.862   0.627   0.000  0.00  0.00     0.083 A 
HETATM   17  C   UNK N   1       0.217   0.712   0.000  0.00  0.00     0.027 A 
HETATM   18  C   UNK N   1       0.217  -0.713  -0.000  0.00  0.00     0.027 A 
HETATM   19  C   UNK N   1       0.862  -0.627  -0.000  0.00  0.00     0.083 A 
HETATM   20  C   UNK N   1       1.667  -1.043   0.000  0.00  0.00     0.066 A 
HETATM   21  C   UNK N   1       2.625   0.300  -0.000  0.00  0.00     0.099 A 
HETATM   22  C   UNK N   1       1.667   1.043  -0.000  0.00  0.00     0.066 A 
HETATM   23  C   UNK N   1       2.760   0.074  -0.000  0.00  0.00     0.215 A 
HETATM   24  N   UNK N   1       2.803   1.498   0.000  0.00  0.00    -0.376 N 
ATOM     25  HN  UNK N   1       1.941   2.044   0.000  1.00  0.00     0.161 HD
HETATM   26  C   UNK N   1       3.538   1.873  -0.000  0.00  0.00     0.086 A 
HETATM   27  C   UNK N   1       4.830   0.823   0.000  0.00  0.00     0.033 A 
HETATM   28  C   UNK N   1       4.787  -0.000   0.000  0.00  0.00     0.086 A 
HETATM   29  N   UNK N   1       4.052   0.225  -0.000  0.00  0.00    -0.376 N 
ATOM     30  HN  UNK N   1       4.144   1.241  -0.000  1.00  0.00     0.161 HD
HETATM   31  O   UNK N   1       2.810  -0.881   0.000  0.00  0.00    -0.386 OA
HETATM   32 Cl   UNK N   1       1.755   2.172   0.000  0.00  0.00    -0.116 Cl
HETATM   33  H   UNK N   1       2.055  -1.490   0.000  0.00  0.00     0.210 HD
ENDROOT
TORSDOF 4
