REMARK  6 active torsions:
REMARK  status: ('A' for Active; 'I' for Inactive)
REMARK    1  A    between atoms: C_10  and  C_7 
REMARK       I    between atoms: N_15  and  C_16 
REMARK    2  A    between atoms: C_16  and  C_18 
REMARK    3  A    between atoms: C_23  and  N_24 
REMARK    4  A    between atoms: N_24  and  S_25 
REMARK    5  A    between atoms: C_32  and  N_33 
REMARK    6  A    between atoms: C_36  and  N_38 
ROOT
HETATM    1  C   UNK N   1      -2.296   0.469   0.301  0.00  0.00     0.139 C 
HETATM    2  C   UNK N   1      -3.041  -0.713  -0.325  0.00  0.00     0.032 C 
HETATM    3  C   UNK N   1      -4.523  -0.648   0.054  0.00  0.00     0.004 C 
HETATM    4  C   UNK N   1      -5.160   0.723  -0.233  0.00  0.00     0.020 C 
HETATM    5  C   UNK N   1      -4.157   1.723  -0.811  0.00  0.00     0.127 C 
HETATM    6  N   UNK N   1      -2.970   1.753   0.023  0.00  0.00    -0.338 N 
HETATM    7  C   UNK N   1      -2.489   2.943   0.541  0.00  0.00     0.256 C 
HETATM    8  O   UNK N   1      -1.488   2.929   1.244  0.00  0.00    -0.267 OA
ENDROOT
BRANCH   1   9
HETATM    9  C   UNK N   1      -0.832   0.445  -0.074  0.00  0.00     0.053 A 
HETATM   10  C   UNK N   1      -0.110   1.533  -0.563  0.00  0.00     0.079 A 
HETATM   11  C   UNK N   1       1.185   1.124  -0.440  0.00  0.00     0.130 A 
HETATM   12  N   UNK N   1       1.240  -0.119   0.028  0.00  0.00    -0.250 N 
HETATM   13  N   UNK N   1       2.290   1.875  -0.601  0.00  0.00    -0.327 N 
HETATM   14  C   UNK N   1       2.408  -0.739   0.304  0.00  0.00     0.128 A 
HETATM   15  N   UNK N   1       0.016  -0.559   0.263  0.00  0.00    -0.295 N 
HETATM   16  C   UNK N   1       3.601  -0.010   0.138  0.00  0.00    -0.000 A 
HETATM   17  C   UNK N   1       4.883  -0.684   0.490  0.00  0.00     0.054 C 
HETATM   18  C   UNK N   1       3.516   1.359  -0.294  0.00  0.00     0.112 A 
ATOM     19  HN  UNK N   1      -0.241  -1.476   0.627  1.00  0.00     0.187 HD
ATOM     20  HN  UNK N   1       2.212   2.829  -0.953  1.00  0.00     0.169 HD
BRANCH  18  21
HETATM   21  N   UNK N   1       4.639   2.245  -0.342  0.00  0.00    -0.365 N 
HETATM   22  C   UNK N   1       4.438   3.651  -0.564  0.00  0.00     0.126 C 
HETATM   23  C   UNK N   1       5.799   4.285  -0.369  0.00  0.00     0.046 C 
HETATM   24  C   UNK N   1       6.629   3.238   0.358  0.00  0.00     0.093 C 
HETATM   25  C   UNK N   1       5.972   1.902   0.062  0.00  0.00     0.149 C 
BRANCH  24  26
HETATM   26  N   UNK N   1       7.991   3.254  -0.139  0.00  0.00    -0.424 N 
HETATM   27  H   UNK N   1       8.480   2.430  -0.489  0.00  0.00     0.150 HD
HETATM   28  H   UNK N   1       8.491   4.144  -0.139  0.00  0.00     0.150 HD
ENDBRANCH  24  26
ENDBRANCH  18  21
ENDBRANCH   1   9
BRANCH   7  29
HETATM   29  C   UNK N   1      -3.132   4.279   0.290  0.00  0.00     0.061 A 
HETATM   30  C   UNK N   1      -4.519   4.371   0.095  0.00  0.00     0.043 A 
HETATM   31  C   UNK N   1      -5.143   5.608  -0.068  0.00  0.00     0.035 A 
HETATM   32  C   UNK N   1      -4.391   6.779  -0.038  0.00  0.00     0.026 A 
HETATM   33 Cl   UNK N   1      -6.877   5.689  -0.279  0.00  0.00    -0.084 Cl
HETATM   34  C   UNK N   1      -3.011   6.713   0.138  0.00  0.00     0.033 A 
HETATM   35  C   UNK N   1      -2.364   5.478   0.301  0.00  0.00     0.058 A 
BRANCH  35  36
HETATM   36  N   UNK N   1      -0.940   5.429   0.411  0.00  0.00    -0.284 N 
HETATM   37  H   UNK N   1      -0.510   4.543   0.399  0.00  0.00     0.178 HD
BRANCH  36  38
HETATM   38  S   UNK N   1       0.103   6.849   0.570  0.00  0.00     0.227 S 
HETATM   39  O   UNK N   1       1.412   6.639  -0.206  0.00  0.00    -0.206 OA
HETATM   40  O   UNK N   1      -0.414   7.183  -0.838  0.00  0.00    -0.206 OA
HETATM   41  C   UNK N   1       0.867   5.201   0.572  0.00  0.00     0.186 C 
ENDBRANCH  36  38
ENDBRANCH  35  36
ENDBRANCH   7  29
TORSDOF 6
