REMARK  4 active torsions:
REMARK  status: ('A' for Active; 'I' for Inactive)
REMARK    1  A    between atoms: C_4  and  N_18 
REMARK    2  A    between atoms: C_11  and  C_14 
REMARK    3  A    between atoms: N_18  and  C_19 
REMARK    4  A    between atoms: C_22  and  S_25 
ROOT
HETATM    1  C   UNK N   1       5.825   4.277   0.118  0.00  0.00     0.069 C 
HETATM    2  C   UNK N   1       4.634   3.393   0.049  0.00  0.00     0.026 A 
HETATM    3  C   UNK N   1       4.802   1.995   0.053  0.00  0.00     0.076 A 
HETATM    4  C   UNK N   1       3.671   1.172   0.019  0.00  0.00     0.147 A 
HETATM    5  N   UNK N   1       2.441   1.789  -0.032  0.00  0.00    -0.068 N 
HETATM    6  C   UNK N   1       2.314   3.118  -0.039  0.00  0.00     0.707 A 
HETATM    7  N   UNK N   1       3.385   3.942   0.003  0.00  0.00    -0.194 N 
ATOM      8  HN  UNK N   1       3.262   4.955   0.001  1.00  0.00     0.184 HD
HETATM    9  N   UNK N   1       1.024   3.503  -0.047  0.00  0.00    -0.171 N 
ATOM     10  HN  UNK N   1       0.640   4.448  -0.056  1.00  0.00     0.186 HD
HETATM   11  C   UNK N   1       0.366   2.318  -0.039  0.00  0.00     0.185 A 
HETATM   12  N   UNK N   1       1.225   1.272  -0.052  0.00  0.00    -0.261 N 
ATOM     13  HN  UNK N   1       0.983   0.282  -0.073  1.00  0.00     0.189 HD
ENDROOT
BRANCH   4  14
HETATM   14  N   UNK N   1       3.853  -0.249   0.015  0.00  0.00    -0.340 N 
HETATM   15  H   UNK N   1       4.763  -0.601  -0.114  0.00  0.00     0.167 HD
BRANCH  14  16
HETATM   16  C   UNK N   1       2.799  -1.171   0.186  0.00  0.00     0.033 A 
HETATM   17  C   UNK N   1       2.617  -2.179  -0.762  0.00  0.00     0.031 A 
HETATM   18  C   UNK N   1       1.413  -2.886  -0.794  0.00  0.00     0.029 A 
HETATM   19  C   UNK N   1       0.389  -2.584   0.124  0.00  0.00     0.099 A 
HETATM   20  C   UNK N   1       0.638  -1.654   1.138  0.00  0.00     0.029 A 
HETATM   21  C   UNK N   1       1.838  -0.963   1.178  0.00  0.00     0.031 A 
BRANCH  19  22
HETATM   22  S   UNK N   1      -1.276  -3.280  -0.071  0.00  0.00     0.311 SA
HETATM   23  F   UNK N   1      -2.847  -3.923  -0.266  0.00  0.00    -0.093 F 
HETATM   24  F   UNK N   1      -0.712  -4.364  -1.269  0.00  0.00    -0.093 F 
HETATM   25  F   UNK N   1      -0.937  -4.437   1.142  0.00  0.00    -0.093 F 
HETATM   26  F   UNK N   1      -1.614  -2.114  -1.278  0.00  0.00    -0.093 F 
HETATM   27  F   UNK N   1      -1.897  -2.208   1.122  0.00  0.00    -0.093 F 
ENDBRANCH  19  22
ENDBRANCH  14  16
ENDBRANCH   4  14
BRANCH  11  28
HETATM   28  C   UNK N   1      -1.124   2.189   0.106  0.00  0.00     0.299 C 
HETATM   29  C   UNK N   1      -1.838   2.741  -1.110  0.00  0.00     0.099 C 
HETATM   30  F   UNK N   1      -1.483   0.863   0.277  0.00  0.00    -0.198 F 
HETATM   31  F   UNK N   1      -1.523   2.899   1.225  0.00  0.00    -0.198 F 
ENDBRANCH  11  28
TORSDOF 4
