REMARK  7 active torsions:
REMARK  status: ('A' for Active; 'I' for Inactive)
REMARK    1  A    between atoms: C_2  and  C_3 
REMARK    2  A    between atoms: C_2  and  O_30 
REMARK    3  A    between atoms: C_15  and  O_28 
REMARK    4  A    between atoms: C_16  and  O_18 
REMARK    5  A    between atoms: O_18  and  C_19 
REMARK    6  A    between atoms: C_19  and  C_20 
REMARK    7  A    between atoms: C_23  and  O_26 
ROOT
HETATM    1  C   UNK N   1       6.308   0.477  -0.450  0.00  0.00    -0.029 A 
HETATM    2  C   UNK N   1       5.605  -0.731  -0.394  0.00  0.00     0.011 A 
HETATM    3  C   UNK N   1       4.219  -0.736  -0.249  0.00  0.00     0.014 A 
HETATM    4  C   UNK N   1       3.509   0.472  -0.168  0.00  0.00    -0.007 A 
HETATM    5  C   UNK N   1       4.204   1.695  -0.241  0.00  0.00     0.051 A 
HETATM    6  C   UNK N   1       5.601   1.691  -0.378  0.00  0.00     0.028 A 
HETATM    7  C   UNK N   1       3.474   2.895  -0.166  0.00  0.00     0.299 A 
HETATM    8  O   UNK N   1       4.049   3.970  -0.222  0.00  0.00    -0.259 OA
HETATM    9  O   UNK N   1       2.149   2.872  -0.033  0.00  0.00    -0.274 OA
HETATM   10  C   UNK N   1       1.456   1.736   0.048  0.00  0.00     0.093 A 
HETATM   11  C   UNK N   1       2.120   0.491  -0.009  0.00  0.00     0.012 A 
HETATM   12  C   UNK N   1       1.384  -0.694   0.104  0.00  0.00     0.054 A 
HETATM   13  C   UNK N   1      -0.003  -0.655   0.280  0.00  0.00     0.102 A 
HETATM   14  C   UNK N   1      -0.662   0.579   0.319  0.00  0.00     0.105 A 
HETATM   15  C   UNK N   1       0.065   1.776   0.197  0.00  0.00     0.078 A 
ENDROOT
BRANCH  14  16
HETATM   16  O   UNK N   1      -1.999   0.574   0.473  0.00  0.00    -0.344 OA
BRANCH  16  17
HETATM   17  C   UNK N   1      -2.862   1.421  -0.177  0.00  0.00     0.214 C 
BRANCH  17  18
HETATM   18  C   UNK N   1      -4.192   0.745  -0.186  0.00  0.00    -0.034 A 
HETATM   19  C   UNK N   1      -4.276  -0.613  -0.527  0.00  0.00     0.012 A 
HETATM   20  C   UNK N   1      -5.491  -1.288  -0.432  0.00  0.00     0.037 A 
HETATM   21  C   UNK N   1      -6.643  -0.609  -0.002  0.00  0.00     0.068 A 
HETATM   22  C   UNK N   1      -6.561   0.754   0.310  0.00  0.00     0.037 A 
HETATM   23  C   UNK N   1      -5.337   1.428   0.230  0.00  0.00     0.012 A 
BRANCH  21  24
HETATM   24  O   UNK N   1      -7.830  -1.246   0.134  0.00  0.00    -0.356 OA
HETATM   25  C   UNK N   1      -7.980  -2.603  -0.051  0.00  0.00     0.210 C 
ENDBRANCH  21  24
ENDBRANCH  17  18
ENDBRANCH  16  17
ENDBRANCH  14  16
BRANCH  13  26
HETATM   26  O   UNK N   1      -0.733  -1.793   0.388  0.00  0.00    -0.353 OA
HETATM   27  C   UNK N   1      -0.188  -3.054   0.306  0.00  0.00     0.210 C 
ENDBRANCH  13  26
BRANCH   1  28
HETATM   28  C   UNK N   1       7.807   0.435  -0.578  0.00  0.00     0.147 C 
HETATM   29  C   UNK N   1       8.455   1.810  -0.636  0.00  0.00     0.044 C 
BRANCH  28  30
HETATM   30  O   UNK N   1       8.352  -0.280   0.490  0.00  0.00    -0.391 OA
HETATM   31  H   UNK N   1       8.112  -0.856   1.232  0.00  0.00     0.210 HD
ENDBRANCH  28  30
ENDBRANCH   1  28
TORSDOF 7
