REMARK  11 active torsions:
REMARK  status: ('A' for Active; 'I' for Inactive)
REMARK    1  A    between atoms: C_2  and  C_4 
REMARK    2  A    between atoms: C_2  and  O_7 
REMARK    3  A    between atoms: C_4  and  O_6 
REMARK    4  A    between atoms: O_7  and  C_8 
REMARK    5  A    between atoms: C_10  and  O_19 
REMARK    6  A    between atoms: C_11  and  C_15 
REMARK       I    between atoms: C_15  and  N_17 
REMARK    7  A    between atoms: O_19  and  C_20 
REMARK    8  A    between atoms: C_20  and  C_21 
REMARK    9  A    between atoms: C_21  and  C_22 
REMARK   10  A    between atoms: C_21  and  O_38 
REMARK   11  A    between atoms: C_22  and  N_23 
ROOT
HETATM    1  O   UNK N   1       6.831   2.432   1.293  0.00  0.00    -0.347 OA
ENDROOT
BRANCH   1   2
HETATM    2  C   UNK N   1       8.005   2.575   0.636  0.00  0.00     0.087 A 
HETATM    3  C   UNK N   1       8.833   1.454   0.466  0.00  0.00     0.076 A 
HETATM    4  C   UNK N   1       9.998   1.540  -0.307  0.00  0.00     0.095 A 
HETATM    5  C   UNK N   1      10.336   2.758  -0.905  0.00  0.00     0.068 A 
HETATM    6  C   UNK N   1       9.533   3.881  -0.716  0.00  0.00     0.046 A 
HETATM    7 Cl   UNK N   1      11.776   2.891  -1.897  0.00  0.00    -0.081 Cl
HETATM    8  C   UNK N   1       8.360   3.812   0.044  0.00  0.00     0.067 A 
BRANCH   4   9
HETATM    9  O   UNK N   1      10.788   0.459  -0.535  0.00  0.00    -0.328 OA
BRANCH   9  10
HETATM   10  C   UNK N   1      11.151  -0.559   0.336  0.00  0.00     0.145 C 
HETATM   11  C   UNK N   1      10.797  -0.275   1.794  0.00  0.00     0.058 C 
HETATM   12  C   UNK N   1      10.458  -1.847  -0.085  0.00  0.00     0.058 C 
BRANCH  10  13
HETATM   13  C   UNK N   1      12.651  -0.680   0.238  0.00  0.00     0.175 C 
HETATM   14  O   UNK N   1      13.178  -1.717  -0.138  0.00  0.00    -0.648 OA
BRANCH  13  15
HETATM   15  O   UNK N   1      13.423   0.386   0.528  0.00  0.00    -0.774 OA
HETATM   16  H   UNK N   1      14.333   0.292   0.730  0.00  0.00     0.167 HD
ENDBRANCH  13  15
ENDBRANCH  10  13
ENDBRANCH   9  10
ENDBRANCH   4   9
BRANCH   8  17
HETATM   17  C   UNK N   1       7.503   5.026   0.140  0.00  0.00     0.254 C 
HETATM   18  O   UNK N   1       7.879   6.069  -0.386  0.00  0.00    -0.268 OA
HETATM   19  N   UNK N   1       6.306   4.988   0.773  0.00  0.00    -0.361 N 
HETATM   20  C   UNK N   1       5.438   6.136   0.842  0.00  0.00     0.149 C 
HETATM   21  H   UNK N   1       6.020   4.148   1.201  0.00  0.00     0.162 HD
ENDBRANCH   8  17
ENDBRANCH   1   2
BRANCH   1  22
HETATM   22  C   UNK N   1       5.699   1.896   0.689  0.00  0.00     0.209 C 
BRANCH  22  23
HETATM   23  C   UNK N   1       5.931   1.532  -0.780  0.00  0.00     0.160 C 
BRANCH  23  24
HETATM   24  C   UNK N   1       6.087   0.033  -1.051  0.00  0.00     0.150 C 
BRANCH  24  25
HETATM   25  N   UNK N   1       4.869  -0.771  -0.920  0.00  0.00    -0.410 N 
HETATM   26  C   UNK N   1       4.521  -1.197   0.448  0.00  0.00     0.120 C 
HETATM   27  C   UNK N   1       3.474  -0.300   1.127  0.00  0.00     0.058 C 
HETATM   28  C   UNK N   1       2.298  -0.013   0.197  0.00  0.00     0.075 C 
HETATM   29  C   UNK N   1       2.823   0.607  -1.087  0.00  0.00     0.058 C 
HETATM   30  C   UNK N   1       1.480  -1.295  -0.160  0.00  0.00     0.080 C 
HETATM   31  O   UNK N   1       1.393   0.872   0.769  0.00  0.00    -0.339 OA
HETATM   32  C   UNK N   1       3.762  -0.367  -1.790  0.00  0.00     0.120 C 
HETATM   33  C   UNK N   1       0.110  -0.792   0.038  0.00  0.00    -0.020 A 
HETATM   34  C   UNK N   1      -1.089  -1.409  -0.303  0.00  0.00     0.033 A 
HETATM   35  C   UNK N   1       0.146   0.438   0.603  0.00  0.00     0.076 A 
HETATM   36  C   UNK N   1      -2.284  -0.720  -0.048  0.00  0.00     0.034 A 
HETATM   37  C   UNK N   1      -2.251   0.554   0.559  0.00  0.00     0.026 A 
HETATM   38 Cl   UNK N   1      -3.811  -1.432  -0.514  0.00  0.00    -0.084 Cl
HETATM   39  C   UNK N   1      -1.020   1.145   0.893  0.00  0.00     0.039 A 
ENDBRANCH  24  25
ENDBRANCH  23  24
BRANCH  23  40
HETATM   40  O   UNK N   1       5.066   2.192  -1.653  0.00  0.00    -0.392 OA
HETATM   41  H   UNK N   1       5.163   2.943  -2.260  0.00  0.00     0.210 HD
ENDBRANCH  23  40
ENDBRANCH  22  23
ENDBRANCH   1  22
TORSDOF 11
