REMARK  3 active torsions:
REMARK  status: ('A' for Active; 'I' for Inactive)
REMARK    1  A    between atoms: C_5  and  N_8 
REMARK       I    between atoms: N_8  and  C_9 
REMARK    2  A    between atoms: C_17  and  N_23 
REMARK    3  A    between atoms: N_23  and  C_24 
ROOT
HETATM    1  N   UNK N   1      -2.513  -0.266  -0.028  0.00  0.00    -0.221 N 
HETATM    2  C   UNK N   1      -1.278  -0.960   0.019  0.00  0.00     0.678 A 
HETATM    3  N   UNK N   1      -1.240  -2.321   0.117  0.00  0.00    -0.200 N 
ATOM      4  HN  UNK N   1      -2.113  -2.844   0.178  1.00  0.00     0.183 HD
HETATM    5  C   UNK N   1      -0.056  -2.991   0.134  0.00  0.00     0.138 A 
HETATM    6  C   UNK N   1       1.138  -2.278   0.069  0.00  0.00     0.080 A 
HETATM    7  C   UNK N   1       1.083  -0.883  -0.011  0.00  0.00     0.121 A 
HETATM    8  N   UNK N   1      -0.120  -0.253  -0.043  0.00  0.00    -0.186 N 
ATOM      9  HN  UNK N   1      -0.154   0.764  -0.116  1.00  0.00     0.184 HD
HETATM   10  C   UNK N   1       2.276  -0.162  -0.044  0.00  0.00     0.136 A 
HETATM   11  N   UNK N   1       3.460  -0.837  -0.014  0.00  0.00    -0.337 N 
ATOM     12  HN  UNK N   1       4.335  -0.314  -0.037  1.00  0.00     0.168 HD
HETATM   13  C   UNK N   1       3.494  -2.197   0.047  0.00  0.00     0.182 A 
HETATM   14  N   UNK N   1       2.338  -2.912   0.093  0.00  0.00    -0.349 N 
ATOM     15  HN  UNK N   1       2.373  -3.930   0.147  1.00  0.00     0.166 HD
HETATM   16  H   UNK N   1      -2.504   0.678  -0.309  0.00  0.00     0.178 HD
ENDROOT
BRANCH  10  17
HETATM   17  N   UNK N   1       2.229   1.260  -0.085  0.00  0.00    -0.340 N 
HETATM   18  H   UNK N   1       1.336   1.671  -0.135  0.00  0.00     0.167 HD
BRANCH  17  19
HETATM   19  C   UNK N   1       3.338   2.148  -0.060  0.00  0.00     0.035 A 
HETATM   20  C   UNK N   1       3.092   3.525  -0.053  0.00  0.00     0.032 A 
HETATM   21  C   UNK N   1       4.152   4.434  -0.022  0.00  0.00     0.046 A 
HETATM   22  C   UNK N   1       5.470   3.971   0.000  0.00  0.00     0.138 A 
HETATM   23  C   UNK N   1       5.726   2.594  -0.007  0.00  0.00     0.074 A 
HETATM   24  F   UNK N   1       6.492   4.861   0.027  0.00  0.00    -0.204 F 
HETATM   25  C   UNK N   1       4.663   1.688  -0.035  0.00  0.00     0.056 A 
HETATM   26 Cl   UNK N   1       7.372   1.992   0.019  0.00  0.00    -0.081 Cl
ENDBRANCH  17  19
ENDBRANCH  10  17
BRANCH   1  27
HETATM   27  C   UNK N   1      -3.785  -0.860   0.311  0.00  0.00     0.102 C 
HETATM   28  C   UNK N   1      -4.890   0.165   0.081  0.00  0.00     0.056 C 
HETATM   29  C   UNK N   1      -6.241  -0.459   0.427  0.00  0.00     0.274 C 
HETATM   30  N   UNK N   1      -6.477  -1.654  -0.383  0.00  0.00     0.084 N 
HETATM   31  C   UNK N   1      -7.742  -2.217   0.050  0.00  0.00     0.309 C 
HETATM   32  C   UNK N   1      -5.444  -2.650  -0.098  0.00  0.00     0.274 C 
HETATM   33  C   UNK N   1      -4.078  -2.112  -0.512  0.00  0.00     0.056 C 
ENDBRANCH   1  27
TORSDOF 3
