REMARK  12 active torsions:
REMARK  status: ('A' for Active; 'I' for Inactive)
REMARK    1  A    between atoms: C_2  and  C_3 
REMARK    2  A    between atoms: C_3  and  C_4 
REMARK    3  A    between atoms: C_4  and  C_5 
REMARK    4  A    between atoms: N_15  and  C_16 
REMARK    5  A    between atoms: C_16  and  C_17 
REMARK    6  A    between atoms: C_20  and  C_27 
REMARK    7  A    between atoms: C_21  and  C_23 
REMARK    8  A    between atoms: C_23  and  O_24 
REMARK    9  A    between atoms: O_24  and  C_25 
REMARK   10  A    between atoms: C_32  and  S_33 
REMARK   11  A    between atoms: S_33  and  N_36 
REMARK   12  A    between atoms: N_36  and  C_37 
ROOT
HETATM    1  C   UNK N   1      -1.425  -0.670   0.155  0.00  0.00    -0.039 A 
HETATM    2  C   UNK N   1      -0.374  -1.221  -0.589  0.00  0.00     0.010 A 
HETATM    3  C   UNK N   1      -0.261  -2.585  -0.758  0.00  0.00     0.013 A 
HETATM    4  C   UNK N   1      -1.219  -3.445  -0.235  0.00  0.00    -0.016 A 
HETATM    5  C   UNK N   1      -2.363  -2.903   0.413  0.00  0.00    -0.023 A 
HETATM    6  C   UNK N   1      -2.437  -1.514   0.630  0.00  0.00     0.019 A 
ENDROOT
BRANCH   4   7
HETATM    7  C   UNK N   1      -0.910  -4.895  -0.227  0.00  0.00    -0.002 A 
HETATM    8  C   UNK N   1      -1.812  -5.774  -0.841  0.00  0.00     0.014 A 
HETATM    9  C   UNK N   1      -1.588  -7.148  -0.837  0.00  0.00     0.001 A 
HETATM   10  C   UNK N   1      -0.464  -7.671  -0.208  0.00  0.00     0.002 A 
HETATM   11  C   UNK N   1       0.432  -6.826   0.440  0.00  0.00     0.026 A 
HETATM   12  C   UNK N   1       0.258  -5.435   0.460  0.00  0.00     0.090 A 
BRANCH  12  13
HETATM   13  S   UNK N   1       1.512  -4.556   1.542  0.00  0.00     0.265 S 
HETATM   14  O   UNK N   1       1.784  -3.046   1.427  0.00  0.00    -0.200 OA
HETATM   15  O   UNK N   1       0.175  -3.916   1.915  0.00  0.00    -0.200 OA
BRANCH  13  16
HETATM   16  N   UNK N   1       1.991  -4.261  -0.125  0.00  0.00    -0.264 N 
HETATM   17  H   UNK N   1       1.334  -3.997  -0.808  0.00  0.00     0.180 HD
BRANCH  16  18
HETATM   18  C   UNK N   1       3.367  -4.422  -0.443  0.00  0.00     0.143 A 
HETATM   19  C   UNK N   1       4.163  -5.500  -0.125  0.00  0.00     0.016 A 
HETATM   20  C   UNK N   1       5.430  -5.108  -0.484  0.00  0.00     0.082 A 
HETATM   21  C   UNK N   1       3.757  -6.796   0.488  0.00  0.00     0.055 C 
HETATM   22  O   UNK N   1       5.364  -3.890  -0.978  0.00  0.00    -0.240 OA
HETATM   23  C   UNK N   1       6.686  -5.892  -0.322  0.00  0.00     0.079 C 
HETATM   24  N   UNK N   1       4.135  -3.447  -0.967  0.00  0.00    -0.244 N 
ATOM     25  HN  UNK N   1       3.816  -2.535  -1.294  1.00  0.00     0.196 HD
ENDBRANCH  16  18
ENDBRANCH  13  16
ENDBRANCH  12  13
ENDBRANCH   4   7
BRANCH   5  26
HETATM   26  C   UNK N   1      -3.416  -3.774   1.027  0.00  0.00     0.207 C 
BRANCH  26  27
HETATM   27  O   UNK N   1      -4.234  -4.323   0.034  0.00  0.00    -0.387 OA
BRANCH  27  28
HETATM   28  C   UNK N   1      -5.532  -3.939   0.380  0.00  0.00     0.163 C 
HETATM   29  C   UNK N   1      -5.977  -2.772  -0.480  0.00  0.00     0.033 C 
ENDBRANCH  27  28
ENDBRANCH  26  27
ENDBRANCH   5  26
BRANCH   1  30
HETATM   30  C   UNK N   1      -1.342   0.777   0.608  0.00  0.00     0.172 C 
BRANCH  30  31
HETATM   31  N   UNK N   1      -0.002   1.296   0.378  0.00  0.00    -0.301 N 
HETATM   32  C   UNK N   1       1.139   0.753   0.840  0.00  0.00     0.254 A 
HETATM   33  C   UNK N   1       2.323   1.369   0.168  0.00  0.00     0.113 A 
HETATM   34  O   UNK N   1       1.178  -0.184   1.630  0.00  0.00    -0.270 OA
HETATM   35  N   UNK N   1       1.656   2.396  -0.632  0.00  0.00    -0.362 N 
HETATM   36  C   UNK N   1       3.363   1.963   1.079  0.00  0.00     0.041 C 
HETATM   37  C   UNK N   1       3.074   0.392  -0.707  0.00  0.00     0.041 C 
HETATM   38  C   UNK N   1       0.381   2.327  -0.498  0.00  0.00     0.083 A 
ATOM     39  HN  UNK N   1       2.139   3.076  -1.219  1.00  0.00     0.162 HD
HETATM   40  C   UNK N   1       4.597   2.067   0.193  0.00  0.00     0.003 C 
HETATM   41  C   UNK N   1       4.423   1.047  -0.931  0.00  0.00     0.003 C 
BRANCH  38  42
HETATM   42  C   UNK N   1      -0.525   3.347  -1.129  0.00  0.00     0.076 C 
BRANCH  42  43
HETATM   43  C   UNK N   1      -1.901   2.843  -1.532  0.00  0.00     0.007 C 
BRANCH  43  44
HETATM   44  C   UNK N   1      -2.952   3.310  -0.531  0.00  0.00    -0.004 C 
HETATM   45  C   UNK N   1      -3.060   4.826  -0.508  0.00  0.00     0.005 C 
ENDBRANCH  43  44
ENDBRANCH  42  43
ENDBRANCH  38  42
ENDBRANCH  30  31
ENDBRANCH   1  30
TORSDOF 12
