REMARK  7 active torsions:
REMARK  status: ('A' for Active; 'I' for Inactive)
REMARK    1  A    between atoms: N_5  and  C_8 
REMARK    2  A    between atoms: N_11  and  C_14 
REMARK    3  A    between atoms: C_17  and  N_22 
REMARK    4  A    between atoms: C_18  and  O_20 
REMARK       I    between atoms: N_22  and  C_23 
REMARK    5  A    between atoms: C_28  and  N_31 
REMARK    6  A    between atoms: N_31  and  C_32 
REMARK    7  A    between atoms: C_37  and  P_38 
ROOT
HETATM    1  N   UNK N   1      -8.180 -11.600   2.117  0.00  0.00    -0.189 N 
HETATM    2  C   UNK N   1      -9.212 -12.407   1.624  0.00  0.00     0.684 A 
HETATM    3  N   UNK N   1     -10.503 -12.184   2.002  0.00  0.00    -0.200 N 
ATOM      4  HN  UNK N   1     -10.698 -11.644   2.844  1.00  0.00     0.183 HD
HETATM    5  C   UNK N   1     -11.533 -12.679   1.261  0.00  0.00     0.133 A 
HETATM    6  C   UNK N   1     -11.276 -13.392   0.082  0.00  0.00     0.094 A 
HETATM    7  C   UNK N   1      -9.942 -13.621  -0.265  0.00  0.00     0.144 A 
HETATM    8  N   UNK N   1      -8.964 -13.114   0.507  0.00  0.00    -0.175 N 
ATOM      9  HN  UNK N   1      -7.994 -13.271   0.234  1.00  0.00     0.186 HD
HETATM   10 Cl   UNK N   1     -12.600 -13.998  -0.892  0.00  0.00    -0.079 Cl
HETATM   11  H   UNK N   1      -7.822 -11.736   3.024  0.00  0.00     0.184 HD
ENDROOT
BRANCH   1  12
HETATM   12  C   UNK N   1      -7.661 -10.574   1.270  0.00  0.00     0.082 A 
HETATM   13  C   UNK N   1      -6.376 -10.074   1.507  0.00  0.00     0.035 A 
HETATM   14  C   UNK N   1      -5.892  -8.993   0.763  0.00  0.00     0.032 A 
HETATM   15  C   UNK N   1      -6.685  -8.413  -0.241  0.00  0.00     0.033 A 
HETATM   16  C   UNK N   1      -7.935  -8.956  -0.514  0.00  0.00     0.068 A 
HETATM   17  C   UNK N   1      -8.446 -10.010   0.220  0.00  0.00     0.097 A 
BRANCH  15  18
HETATM   18  N   UNK N   1      -6.363  -7.136  -0.795  0.00  0.00    -0.381 N 
HETATM   19  C   UNK N   1      -5.448  -6.299  -0.060  0.00  0.00     0.125 C 
HETATM   20  C   UNK N   1      -6.226  -5.720   1.135  0.00  0.00     0.055 C 
HETATM   21  C   UNK N   1      -7.584  -5.101   0.714  0.00  0.00     0.226 C 
HETATM   22  C   UNK N   1      -8.366  -5.930  -0.338  0.00  0.00     0.055 C 
HETATM   23  C   UNK N   1      -7.432  -6.418  -1.451  0.00  0.00     0.125 C 
BRANCH  21  24
HETATM   24  N   UNK N   1      -7.461  -3.689   0.345  0.00  0.00     0.096 N 
HETATM   25  C   UNK N   1      -6.713  -3.541  -0.905  0.00  0.00     0.303 C 
HETATM   26  C   UNK N   1      -6.501  -2.063  -1.230  0.00  0.00     0.302 C 
HETATM   27  N   UNK N   1      -7.607  -1.202  -0.787  0.00  0.00     0.087 N 
HETATM   28  C   UNK N   1      -7.276  -0.634   0.512  0.00  0.00     0.310 C 
HETATM   29  C   UNK N   1      -8.886  -1.916  -0.710  0.00  0.00     0.302 C 
HETATM   30  C   UNK N   1      -8.819  -3.137   0.221  0.00  0.00     0.303 C 
ENDBRANCH  21  24
ENDBRANCH  15  18
BRANCH  17  31
HETATM   31  O   UNK N   1      -9.711 -10.432  -0.025  0.00  0.00    -0.354 OA
HETATM   32  C   UNK N   1     -10.556  -9.850  -0.945  0.00  0.00     0.210 C 
ENDBRANCH  17  31
ENDBRANCH   1  12
BRANCH   7  33
HETATM   33  N   UNK N   1      -9.571 -14.390  -1.389  0.00  0.00    -0.340 N 
HETATM   34  H   UNK N   1     -10.185 -14.542  -2.143  0.00  0.00     0.167 HD
BRANCH  33  35
HETATM   35  C   UNK N   1      -8.262 -14.931  -1.368  0.00  0.00     0.047 A 
HETATM   36  C   UNK N   1      -7.197 -14.216  -1.931  0.00  0.00     0.030 A 
HETATM   37  C   UNK N   1      -5.886 -14.677  -1.776  0.00  0.00     0.002 A 
HETATM   38  C   UNK N   1      -5.636 -15.848  -1.054  0.00  0.00     0.001 A 
HETATM   39  C   UNK N   1      -6.697 -16.564  -0.492  0.00  0.00     0.017 A 
HETATM   40  C   UNK N   1      -8.010 -16.105  -0.634  0.00  0.00     0.030 A 
BRANCH  40  41
HETATM   41  P   UNK N   1      -9.389 -17.033   0.174  0.00  0.00     0.103 P 
HETATM   42  O   UNK N   1     -10.435 -17.170  -0.964  0.00  0.00    -0.318 OA
HETATM   43  C   UNK N   1     -10.329 -16.151   1.516  0.00  0.00     0.091 C 
HETATM   44  C   UNK N   1      -9.008 -18.802   0.582  0.00  0.00     0.091 C 
ENDBRANCH  40  41
ENDBRANCH  33  35
ENDBRANCH   7  33
TORSDOF 7
