REMARK  6 active torsions:
REMARK  status: ('A' for Active; 'I' for Inactive)
REMARK    1  A    between atoms: C_2  and  N_3 
REMARK    2  A    between atoms: N_6  and  C_9 
REMARK    3  A    between atoms: C_9  and  C_10 
REMARK    4  A    between atoms: C_13  and  N_17 
REMARK       I    between atoms: N_17  and  C_18 
REMARK    5  A    between atoms: C_23  and  C_26 
REMARK    6  A    between atoms: N_36  and  C_37 
ROOT
HETATM    1  N   UNK N   1       5.831   1.149  -0.006  0.00  0.00    -0.176 N 
HETATM    2  C   UNK N   1       4.581   0.483   0.003  0.00  0.00     0.684 A 
HETATM    3  N   UNK N   1       4.537  -0.876  -0.073  0.00  0.00    -0.199 N 
ATOM      4  HN  UNK N   1       5.410  -1.404  -0.071  1.00  0.00     0.183 HD
HETATM    5  C   UNK N   1       3.364  -1.540  -0.152  0.00  0.00     0.150 A 
HETATM    6  C   UNK N   1       2.173  -0.834  -0.161  0.00  0.00     0.160 A 
HETATM    7  C   UNK N   1       2.216   0.575  -0.082  0.00  0.00     0.099 A 
HETATM    8  N   UNK N   1       3.428   1.197  -0.010  0.00  0.00    -0.188 N 
ATOM      9  HN  UNK N   1       3.467   2.215   0.036  1.00  0.00     0.184 HD
HETATM   10  F   UNK N   1       1.010  -1.523  -0.260  0.00  0.00    -0.202 F 
HETATM   11  H   UNK N   1       5.869   2.132  -0.047  0.00  0.00     0.186 HD
ENDROOT
BRANCH   1  12
HETATM   12  C   UNK N   1       7.024   0.393   0.043  0.00  0.00     0.120 A 
HETATM   13  C   UNK N   1       7.169  -0.621   0.999  0.00  0.00     0.050 A 
HETATM   14  C   UNK N   1       8.264  -1.470   0.934  0.00  0.00     0.014 A 
HETATM   15  C   UNK N   1       9.195  -1.317  -0.088  0.00  0.00    -0.015 A 
HETATM   16  C   UNK N   1       9.031  -0.287  -1.023  0.00  0.00     0.098 A 
HETATM   17  N   UNK N   1       7.954   0.541  -0.939  0.00  0.00    -0.351 N 
ATOM     18  HN  UNK N   1       7.842   1.287  -1.626  1.00  0.00     0.166 HD
BRANCH  15  19
HETATM   19  C   UNK N   1      10.368  -2.243  -0.134  0.00  0.00     0.312 C 
BRANCH  19  20
HETATM   20  N   UNK N   1      11.629  -1.624   0.287  0.00  0.00     0.096 N 
HETATM   21  C   UNK N   1      12.370  -1.111  -0.870  0.00  0.00     0.303 C 
HETATM   22  C   UNK N   1      13.032   0.226  -0.569  0.00  0.00     0.302 C 
HETATM   23  N   UNK N   1      11.995   1.181  -0.194  0.00  0.00     0.091 N 
HETATM   24  C   UNK N   1      11.250   0.760   1.006  0.00  0.00     0.302 C 
HETATM   25  C   UNK N   1      11.505  -0.701   1.434  0.00  0.00     0.303 C 
BRANCH  23  26
HETATM   26  C   UNK N   1      12.655   2.439   0.108  0.00  0.00     0.268 C 
HETATM   27  C   UNK N   1      11.781   3.597  -0.333  0.00  0.00     0.037 C 
ENDBRANCH  23  26
ENDBRANCH  19  20
ENDBRANCH  15  19
ENDBRANCH   1  12
BRANCH   7  28
HETATM   28  C   UNK N   1       0.987   1.398  -0.068  0.00  0.00    -0.001 A 
HETATM   29  C   UNK N   1      -0.284   0.790  -0.007  0.00  0.00     0.046 A 
HETATM   30  C   UNK N   1      -1.407   1.604   0.052  0.00  0.00     0.067 A 
HETATM   31  C   UNK N   1      -1.305   2.962   0.039  0.00  0.00     0.099 A 
HETATM   32  N   UNK N   1      -2.709   1.260   0.138  0.00  0.00    -0.331 N 
HETATM   33  C   UNK N   1      -0.076   3.609  -0.031  0.00  0.00     0.146 A 
HETATM   34  N   UNK N   1      -2.529   3.514   0.116  0.00  0.00    -0.342 N 
HETATM   35  C   UNK N   1       1.083   2.813  -0.078  0.00  0.00     0.058 A 
HETATM   36  F   UNK N   1       0.010   4.961  -0.041  0.00  0.00    -0.204 F 
HETATM   37  C   UNK N   1      -3.368   2.449   0.178  0.00  0.00     0.080 A 
ATOM     38  HN  UNK N   1      -2.771   4.505   0.125  1.00  0.00     0.167 HD
HETATM   39  C   UNK N   1      -4.847   2.588   0.299  0.00  0.00     0.089 C 
BRANCH  32  40
HETATM   40  C   UNK N   1      -3.335  -0.074   0.202  0.00  0.00     0.083 C 
HETATM   41  C   UNK N   1      -2.343  -1.225   0.265  0.00  0.00     0.032 C 
HETATM   42  C   UNK N   1      -4.252  -0.290  -0.988  0.00  0.00     0.032 C 
ENDBRANCH  32  40
ENDBRANCH   7  28
TORSDOF 6
