REMARK  12 active torsions:
REMARK  status: ('A' for Active; 'I' for Inactive)
REMARK    1  A    between atoms: C_2  and  C_1 
REMARK    2  A    between atoms: C_5  and  C_1 
REMARK    3  A    between atoms: C_6  and  C_2 
REMARK    4  A    between atoms: N_25  and  C_5 
REMARK    5  A    between atoms: N_30  and  C_6 
REMARK    6  A    between atoms: C_13  and  C_11 
REMARK    7  A    between atoms: O_33  and  C_11 
REMARK    8  A    between atoms: C_17  and  C_16 
REMARK       I    between atoms: N_24  and  C_17 
REMARK    9  A    between atoms: O_33  and  C_18 
REMARK   10  A    between atoms: N_27  and  C_19 
REMARK   11  A    between atoms: N_27  and  C_20 
REMARK   12  A    between atoms: O_32  and  C_20 
ROOT
HETATM    1  C   UNK N   1       7.711   8.731  -0.070  0.00  0.00     0.118 A 
HETATM    2  C   UNK N   1       7.413  10.175  -0.191  0.00  0.00     0.167 A 
HETATM    3  C   UNK N   1       6.537   7.953  -0.198  0.00  0.00     0.114 A 
HETATM    4  N   UNK N   1       6.099  10.468  -0.397  0.00  0.00    -0.304 N 
ATOM      5  HN  UNK N   1       5.682  11.393  -0.505  1.00  0.00     0.176 HD
HETATM    6  S   UNK N   1       5.331   9.031  -0.437  0.00  0.00     0.007 SA
ENDROOT
BRANCH   3   7
HETATM    7  N   UNK N   1       6.492   6.526  -0.071  0.00  0.00    -0.315 N 
HETATM    8  H   UNK N   1       7.403   6.158  -0.015  0.00  0.00     0.170 HD
BRANCH   7   9
HETATM    9  C   UNK N   1       5.519   5.469  -0.000  0.00  0.00     0.217 C 
HETATM   10  N   UNK N   1       4.239   5.613  -0.126  0.00  0.00    -0.356 N 
ATOM     11  HN  UNK N   1       3.675   4.770  -0.015  1.00  0.00     0.163 HD
BRANCH  10  12
HETATM   12  C   UNK N   1       3.527   6.821  -0.402  0.00  0.00     0.123 C 
BRANCH  12  13
HETATM   13  C   UNK N   1       2.860   7.323   0.866  0.00  0.00     0.021 C 
BRANCH  13  14
HETATM   14  C   UNK N   1       2.142   8.641   0.605  0.00  0.00     0.032 C 
BRANCH  14  15
HETATM   15  C   UNK N   1       0.907   8.451  -0.267  0.00  0.00     0.272 C 
BRANCH  15  16
HETATM   16  N   UNK N   1      -0.020   7.532   0.375  0.00  0.00     0.088 N 
HETATM   17  C   UNK N   1      -1.370   7.914   0.008  0.00  0.00     0.272 C 
HETATM   18  C   UNK N   1      -2.190   6.641   0.002  0.00  0.00     0.032 C 
HETATM   19  C   UNK N   1      -1.182   5.523  -0.147  0.00  0.00     0.032 C 
HETATM   20  C   UNK N   1       0.157   6.219  -0.225  0.00  0.00     0.272 C 
ENDBRANCH  15  16
ENDBRANCH  14  15
ENDBRANCH  13  14
ENDBRANCH  12  13
ENDBRANCH  10  12
BRANCH   9  21
HETATM   21  O   UNK N   1       5.981   4.228   0.238  0.00  0.00    -0.333 OA
HETATM   22  H   UNK N   1       5.394   3.517   0.404  0.00  0.00     0.220 HD
ENDBRANCH   9  21
ENDBRANCH   7   9
ENDBRANCH   3   7
BRANCH   1  23
HETATM   23  C   UNK N   1       9.041   8.067   0.184  0.00  0.00     0.256 C 
HETATM   24  N   UNK N   1       9.148   6.723   0.132  0.00  0.00    -0.366 N 
HETATM   25  H   UNK N   1       8.338   6.165   0.094  0.00  0.00     0.159 HD
HETATM   26  H   UNK N   1      10.037   6.300   0.132  0.00  0.00     0.159 HD
HETATM   27  O   UNK N   1      10.032   8.708   0.462  0.00  0.00    -0.268 OA
ENDBRANCH   1  23
BRANCH   2  28
HETATM   28  O   UNK N   1       8.280  11.215  -0.127  0.00  0.00    -0.330 OA
BRANCH  28  29
HETATM   29  C   UNK N   1       9.645  11.159  -0.115  0.00  0.00     0.222 C 
BRANCH  29  30
HETATM   30  C   UNK N   1      10.307  12.507  -0.057  0.00  0.00     0.043 A 
HETATM   31  C   UNK N   1      11.710  12.540  -0.040  0.00  0.00     0.129 A 
HETATM   32  C   UNK N   1      12.387  13.759   0.002  0.00  0.00     0.062 A 
HETATM   33  F   UNK N   1      12.422  11.385  -0.068  0.00  0.00    -0.205 F 
HETATM   34  C   UNK N   1      11.674  14.956   0.029  0.00  0.00     0.016 A 
HETATM   35  C   UNK N   1      10.278  14.940   0.019  0.00  0.00     0.062 A 
HETATM   36 Br   UNK N   1      12.609  16.615   0.074  0.00  0.00    -0.051 Br
HETATM   37  C   UNK N   1       9.588  13.725  -0.023  0.00  0.00     0.129 A 
HETATM   38  F   UNK N   1       8.231  13.749  -0.034  0.00  0.00    -0.205 F 
ENDBRANCH  29  30
ENDBRANCH  28  29
ENDBRANCH   2  28
TORSDOF 12
