REMARK  4 active torsions:
REMARK  status: ('A' for Active; 'I' for Inactive)
REMARK    1  A    between atoms: N_5  and  C_9 
REMARK    2  A    between atoms: C_12  and  N_16 
REMARK    3  A    between atoms: C_18  and  C_22 
REMARK    4  A    between atoms: C_22  and  O_23 
ROOT
HETATM    1  C   UNK N   1       0.700   6.467   0.022  0.00  0.00     0.074 A 
HETATM    2  C   UNK N   1       1.866   5.691  -0.030  0.00  0.00     0.035 A 
HETATM    3  C   UNK N   1       1.811   4.308  -0.066  0.00  0.00     0.032 A 
HETATM    4  C   UNK N   1       0.587   3.638  -0.035  0.00  0.00     0.042 A 
HETATM    5  C   UNK N   1      -0.598   4.390   0.033  0.00  0.00     0.074 A 
HETATM    6  C   UNK N   1      -0.553   5.795   0.056  0.00  0.00     0.145 A 
HETATM    7  F   UNK N   1      -1.725   6.477   0.099  0.00  0.00    -0.204 F 
ENDROOT
BRANCH   4   8
HETATM    8  N   UNK N   1       0.587   2.211  -0.123  0.00  0.00    -0.291 N 
HETATM    9  C   UNK N   1       1.775   1.454  -0.394  0.00  0.00     0.169 A 
HETATM   10  C   UNK N   1       1.243  -0.000  -0.465  0.00  0.00     0.175 A 
HETATM   11  O   UNK N   1      -0.107   0.099  -0.161  0.00  0.00    -0.294 OA
HETATM   12  C   UNK N   1      -0.452   1.380   0.001  0.00  0.00     0.368 A 
HETATM   13  O   UNK N   1      -1.593   1.738   0.239  0.00  0.00    -0.238 OA
BRANCH  10  14
HETATM   14  C   UNK N   1       1.975  -0.866   0.545  0.00  0.00     0.198 C 
BRANCH  14  15
HETATM   15  O   UNK N   1       3.332  -0.923   0.219  0.00  0.00    -0.398 OA
HETATM   16  H   UNK N   1       3.769  -1.759  -0.008  0.00  0.00     0.209 HD
ENDBRANCH  14  15
ENDBRANCH  10  14
ENDBRANCH   4   8
BRANCH   1  17
HETATM   17  N   UNK N   1       0.829   7.899   0.026  0.00  0.00    -0.338 N 
HETATM   18  C   UNK N   1       2.167   8.468  -0.000  0.00  0.00     0.151 A 
HETATM   19  C   UNK N   1       2.255   9.990   0.003  0.00  0.00     0.162 A 
HETATM   20  N   UNK N   1       0.987  10.681  -0.001  0.00  0.00    -0.330 N 
HETATM   21  C   UNK N   1       0.996  12.116  -0.008  0.00  0.00     0.171 C 
HETATM   22  N   UNK N   1      -0.222  10.021   0.013  0.00  0.00    -0.298 N 
HETATM   23  C   UNK N   1      -0.317   8.739   0.028  0.00  0.00     0.200 A 
ATOM     24  HN  UNK N   1      -1.079  10.573   0.011  1.00  0.00     0.187 HD
ENDBRANCH   1  17
TORSDOF 4
