REMARK  17 active torsions:
REMARK  status: ('A' for Active; 'I' for Inactive)
REMARK    1  A    between atoms: C_2  and  N_3 
REMARK    2  A    between atoms: N_3  and  C_4 
REMARK    3  A    between atoms: C_4  and  C_5 
REMARK    4  A    between atoms: C_5  and  C_6 
REMARK    5  A    between atoms: C_6  and  C_7 
REMARK    6  A    between atoms: C_7  and  N_8 
REMARK    7  A    between atoms: N_8  and  C_9 
REMARK    8  A    between atoms: C_9  and  C_10 
REMARK    9  A    between atoms: C_10  and  C_11 
REMARK   10  A    between atoms: C_11  and  C_12 
REMARK   11  A    between atoms: C_12  and  N_13 
REMARK   12  A    between atoms: N_13  and  C_14 
REMARK   13  A    between atoms: C_14  and  C_15 
REMARK   14  A    between atoms: C_15  and  C_16 
REMARK   15  A    between atoms: C_16  and  C_17 
REMARK   16  A    between atoms: C_17  and  N_18 
REMARK   17  A    between atoms: N_18  and  C_19 
ROOT
HETATM    1  C   UNK N   1      14.416   5.612   1.209  0.00  0.00     0.021 C 
ENDROOT
BRANCH   1   2
HETATM    2  C   UNK N   1      14.304   4.480   0.199  0.00  0.00     0.113 C 
BRANCH   2   3
HETATM    3  N   UNK N   1      13.280   4.801  -0.783  0.00  0.00    -0.421 N 
HETATM    4  H   UNK N   1      13.427   5.276  -1.674  0.00  0.00     0.153 HD
BRANCH   3   5
HETATM    5  C   UNK N   1      12.005   4.321  -0.265  0.00  0.00     0.113 C 
BRANCH   5   6
HETATM    6  C   UNK N   1      11.261   5.438   0.450  0.00  0.00     0.021 C 
BRANCH   6   7
HETATM    7  C   UNK N   1      10.683   6.419  -0.555  0.00  0.00     0.021 C 
BRANCH   7   8
HETATM    8  C   UNK N   1       9.682   7.338   0.125  0.00  0.00     0.113 C 
BRANCH   8   9
HETATM    9  N   UNK N   1       8.505   6.587   0.539  0.00  0.00    -0.421 N 
HETATM   10  H   UNK N   1       8.407   6.043   1.396  0.00  0.00     0.153 HD
BRANCH   9  11
HETATM   11  C   UNK N   1       7.498   6.756  -0.494  0.00  0.00     0.109 C 
HETATM   12  C   UNK N   1       6.212   6.086  -0.057  0.00  0.00     0.026 C 
ENDBRANCH   9  11
ENDBRANCH   8   9
ENDBRANCH   7   8
ENDBRANCH   6   7
ENDBRANCH   5   6
ENDBRANCH   3   5
ENDBRANCH   2   3
ENDBRANCH   1   2
BRANCH   1  13
HETATM   13  C   UNK N   1      15.764   6.309   1.134  0.00  0.00     0.021 C 
BRANCH  13  14
HETATM   14  C   UNK N   1      15.978   6.992  -0.211  0.00  0.00     0.113 C 
BRANCH  14  15
HETATM   15  N   UNK N   1      16.762   6.133  -1.088  0.00  0.00    -0.421 N 
HETATM   16  H   UNK N   1      16.394   5.432  -1.730  0.00  0.00     0.153 HD
BRANCH  15  17
HETATM   17  C   UNK N   1      18.168   6.457  -0.882  0.00  0.00     0.113 C 
BRANCH  17  18
HETATM   18  C   UNK N   1      18.722   5.648   0.280  0.00  0.00     0.021 C 
BRANCH  18  19
HETATM   19  C   UNK N   1      20.093   6.158   0.675  0.00  0.00     0.021 C 
BRANCH  19  20
HETATM   20  C   UNK N   1      21.140   5.609  -0.270  0.00  0.00     0.113 C 
BRANCH  20  21
HETATM   21  N   UNK N   1      22.460   5.983   0.201  0.00  0.00    -0.421 N 
HETATM   22  H   UNK N   1      22.705   6.814   0.738  0.00  0.00     0.153 HD
BRANCH  21  23
HETATM   23  C   UNK N   1      23.362   4.938  -0.244  0.00  0.00     0.109 C 
HETATM   24  C   UNK N   1      24.789   5.336   0.065  0.00  0.00     0.026 C 
ENDBRANCH  21  23
ENDBRANCH  20  21
ENDBRANCH  19  20
ENDBRANCH  18  19
ENDBRANCH  17  18
ENDBRANCH  15  17
ENDBRANCH  14  15
ENDBRANCH  13  14
ENDBRANCH   1  13
TORSDOF 17
