REMARK  8 active torsions:
REMARK  status: ('A' for Active; 'I' for Inactive)
REMARK    1  A    between atoms: C_2  and  O_4 
REMARK    2  A    between atoms: O_4  and  C_5 
REMARK    3  A    between atoms: C_7  and  O_29 
REMARK    4  A    between atoms: C_11  and  N_17 
REMARK    5  A    between atoms: N_17  and  C_18 
REMARK    6  A    between atoms: O_29  and  C_30 
REMARK    7  A    between atoms: C_30  and  C_31 
REMARK    8  A    between atoms: C_31  and  N_32 
REMARK       I    between atoms: N_35  and  C_38 
ROOT
HETATM    1  C   UNK N   1       1.416   6.656   0.057  0.00  0.00     0.088 A 
HETATM    2  C   UNK N   1       1.235   8.054   0.135  0.00  0.00     0.074 A 
HETATM    3  C   UNK N   1      -0.057   8.615   0.222  0.00  0.00     0.073 A 
HETATM    4  C   UNK N   1      -1.164   7.776   0.237  0.00  0.00     0.067 A 
HETATM    5  C   UNK N   1      -1.014   6.396   0.171  0.00  0.00     0.052 A 
HETATM    6  C   UNK N   1       0.273   5.814   0.070  0.00  0.00     0.068 A 
HETATM    7  C   UNK N   1       0.350   4.396   0.021  0.00  0.00     0.122 A 
HETATM    8  N   UNK N   1      -0.796   3.678   0.098  0.00  0.00    -0.338 N 
ATOM      9  HN  UNK N   1      -0.741   2.660   0.080  1.00  0.00     0.168 HD
HETATM   10  C   UNK N   1      -2.013   4.264   0.198  0.00  0.00     0.182 A 
HETATM   11  N   UNK N   1      -2.117   5.613   0.229  0.00  0.00    -0.351 N 
ATOM     12  HN  UNK N   1      -3.038   6.045   0.298  1.00  0.00     0.166 HD
ENDROOT
BRANCH   7  13
HETATM   13  N   UNK N   1       1.617   3.739  -0.062  0.00  0.00    -0.338 N 
HETATM   14  H   UNK N   1       2.388   4.346  -0.138  0.00  0.00     0.167 HD
BRANCH  13  15
HETATM   15  C   UNK N   1       1.955   2.346  -0.054  0.00  0.00     0.095 A 
HETATM   16  C   UNK N   1       3.318   1.981   0.088  0.00  0.00     0.079 A 
HETATM   17  C   UNK N   1       3.684   0.619   0.129  0.00  0.00     0.116 A 
HETATM   18 Cl   UNK N   1       4.578   3.193   0.229  0.00  0.00    -0.080 Cl
HETATM   19  N   UNK N   1       2.737  -0.356   0.027  0.00  0.00    -0.343 N 
HETATM   20  C   UNK N   1       1.441   0.006  -0.123  0.00  0.00     0.181 A 
ATOM     21  HN  UNK N   1       2.999  -1.341   0.064  1.00  0.00     0.167 HD
HETATM   22  C   UNK N   1       1.035   1.282  -0.170  0.00  0.00     0.151 A 
HETATM   23  O   UNK N   1       0.401  -0.811  -0.247  0.00  0.00    -0.307 OA
HETATM   24  O   UNK N   1      -0.287   1.287  -0.338  0.00  0.00    -0.319 OA
HETATM   25  C   UNK N   1      -0.748  -0.032  -0.390  0.00  0.00     0.354 A 
ENDBRANCH  13  15
ENDBRANCH   7  13
BRANCH   1  26
HETATM   26  O   UNK N   1       2.656   6.090  -0.005  0.00  0.00    -0.345 OA
BRANCH  26  27
HETATM   27  C   UNK N   1       3.894   6.565   0.411  0.00  0.00     0.120 C 
HETATM   28  C   UNK N   1       4.893   6.585  -0.727  0.00  0.00     0.040 C 
HETATM   29  C   UNK N   1       3.897   7.865   1.193  0.00  0.00     0.040 C 
ENDBRANCH  26  27
ENDBRANCH   1  26
BRANCH   3  30
HETATM   30  O   UNK N   1      -0.267   9.951   0.313  0.00  0.00    -0.349 OA
BRANCH  30  31
HETATM   31  C   UNK N   1       0.736  10.874   0.482  0.00  0.00     0.206 C 
BRANCH  31  32
HETATM   32  C   UNK N   1       1.267  11.342  -0.876  0.00  0.00     0.299 C 
BRANCH  32  33
HETATM   33  N   UNK N   1       2.695  11.672  -0.842  0.00  0.00     0.093 N 
HETATM   34  C   UNK N   1       2.923  12.758   0.099  0.00  0.00     0.292 C 
HETATM   35  C   UNK N   1       4.384  13.199   0.070  0.00  0.00     0.156 C 
HETATM   36  N   UNK N   1       5.341  12.104  -0.079  0.00  0.00    -0.349 N 
HETATM   37  C   UNK N   1       4.928  10.742  -0.398  0.00  0.00     0.156 C 
HETATM   38  C   UNK N   1       6.674  12.375   0.034  0.00  0.00     0.215 C 
HETATM   39  C   UNK N   1       3.426  10.514  -0.352  0.00  0.00     0.292 C 
HETATM   40  O   UNK N   1       7.055  13.511   0.271  0.00  0.00    -0.274 OA
HETATM   41  C   UNK N   1       7.700  11.293  -0.122  0.00  0.00     0.117 C 
ENDBRANCH  32  33
ENDBRANCH  31  32
ENDBRANCH  30  31
ENDBRANCH   3  30
TORSDOF 8
