REMARK  6 active torsions:
REMARK  status: ('A' for Active; 'I' for Inactive)
REMARK    1  A    between atoms: C_2  and  C_5 
REMARK    2  A    between atoms: C_7  and  C_12 
REMARK    3  A    between atoms: C_10  and  O_11 
REMARK    4  A    between atoms: C_12  and  C_15 
REMARK    5  A    between atoms: C_18  and  O_25 
REMARK    6  A    between atoms: C_19  and  C_21 
ROOT
HETATM    1  C   UNK N   1       2.255  -3.636  -1.603  0.00  0.00     0.007 C 
HETATM    2  C   UNK N   1       1.551  -4.582  -2.575  0.00  0.00     0.025 C 
HETATM    3  C   UNK N   1       3.003  -2.631  -2.480  0.00  0.00     0.025 C 
ENDROOT
BRANCH   1   4
HETATM    4  C   UNK N   1       1.191  -2.970  -0.740  0.00  0.00    -0.045 A 
HETATM    5  C   UNK N   1       1.072  -1.573  -0.652  0.00  0.00     0.019 A 
HETATM    6  C   UNK N   1       0.047  -0.963   0.100  0.00  0.00    -0.017 A 
HETATM    7  C   UNK N   1      -0.895  -1.802   0.758  0.00  0.00     0.072 A 
HETATM    8  C   UNK N   1      -0.765  -3.190   0.681  0.00  0.00     0.037 A 
HETATM    9  C   UNK N   1       0.270  -3.769  -0.049  0.00  0.00     0.011 A 
BRANCH   6  10
HETATM   10  C   UNK N   1       0.026   0.567   0.161  0.00  0.00    -0.021 C 
HETATM   11  C   UNK N   1      -0.028   1.139  -1.245  0.00  0.00     0.019 C 
HETATM   12  C   UNK N   1      -1.133   1.178   0.932  0.00  0.00     0.019 C 
HETATM   13  C   UNK N   1       1.302   1.052   0.826  0.00  0.00     0.019 C 
ENDBRANCH   6  10
BRANCH   7  14
HETATM   14  O   UNK N   1      -1.914  -1.299   1.474  0.00  0.00    -0.360 OA
HETATM   15  H   UNK N   1      -1.966  -0.508   1.974  0.00  0.00     0.217 HD
ENDBRANCH   7  14
ENDBRANCH   1   4
BRANCH   1  16
HETATM   16  C   UNK N   1       3.270  -4.368  -0.733  0.00  0.00    -0.045 A 
HETATM   17  C   UNK N   1       4.217  -3.634  -0.006  0.00  0.00     0.011 A 
HETATM   18  C   UNK N   1       5.191  -4.284   0.749  0.00  0.00     0.037 A 
HETATM   19  C   UNK N   1       5.221  -5.678   0.826  0.00  0.00     0.072 A 
HETATM   20  C   UNK N   1       4.247  -6.450   0.135  0.00  0.00    -0.017 A 
HETATM   21  C   UNK N   1       3.296  -5.769  -0.653  0.00  0.00     0.019 A 
BRANCH  19  22
HETATM   22  O   UNK N   1       6.182  -6.251   1.571  0.00  0.00    -0.360 OA
HETATM   23  H   UNK N   1       6.170  -7.031   2.090  0.00  0.00     0.217 HD
ENDBRANCH  19  22
BRANCH  20  24
HETATM   24  C   UNK N   1       4.149  -7.976   0.204  0.00  0.00    -0.021 C 
HETATM   25  C   UNK N   1       4.271  -8.564  -1.190  0.00  0.00     0.019 C 
HETATM   26  C   UNK N   1       2.791  -8.359   0.768  0.00  0.00     0.019 C 
HETATM   27  C   UNK N   1       5.191  -8.662   1.072  0.00  0.00     0.019 C 
ENDBRANCH  20  24
ENDBRANCH   1  16
TORSDOF 6
