REMARK  6 active torsions:
REMARK  status: ('A' for Active; 'I' for Inactive)
REMARK    1  A    between atoms: C_2  and  C_3 
REMARK    2  A    between atoms: C_2  and  O_13 
REMARK    3  A    between atoms: C_4  and  C_3 
REMARK    4  A    between atoms: C_5  and  O_12 
REMARK    5  A    between atoms: C_6  and  O_11 
REMARK    6  A    between atoms: C_7  and  O_10 
ROOT
HETATM    1  C   UNK N   1       0.756   1.455  -0.133  0.00  0.00     0.155 C 
HETATM    2  C   UNK N   1       2.083   0.793   0.270  0.00  0.00     0.178 C 
HETATM    3  C   UNK N   1       2.043  -0.662  -0.210  0.00  0.00     0.180 C 
HETATM    4  C   UNK N   1       0.759  -1.348   0.252  0.00  0.00     0.173 C 
HETATM    5  C   UNK N   1      -0.423  -0.469  -0.147  0.00  0.00     0.202 C 
HETATM    6  O   UNK N   1      -0.303   0.776   0.495  0.00  0.00    -0.381 OA
ENDROOT
BRANCH   1   7
HETATM    7  C   UNK N   1       0.720   2.926   0.270  0.00  0.00     0.066 C 
BRANCH   7   8
HETATM    8  C   UNK N   1      -0.451   3.654  -0.383  0.00  0.00     0.116 C 
HETATM    9  C   UNK N   1      -0.426   5.111   0.025  0.00  0.00     0.039 C 
BRANCH   8  10
HETATM   10  O   UNK N   1      -1.666   3.094   0.012  0.00  0.00    -0.396 OA
HETATM   11  H   UNK N   1      -2.426   3.631   0.286  0.00  0.00     0.210 HD
ENDBRANCH   8  10
ENDBRANCH   7   8
ENDBRANCH   1   7
BRANCH   2  12
HETATM   12  O   UNK N   1       3.159   1.449  -0.327  0.00  0.00    -0.390 OA
HETATM   13  H   UNK N   1       3.929   1.029  -0.742  0.00  0.00     0.210 HD
ENDBRANCH   2  12
BRANCH   3  14
HETATM   14  O   UNK N   1       3.158  -1.358   0.261  0.00  0.00    -0.390 OA
HETATM   15  H   UNK N   1       3.127  -2.271   0.588  0.00  0.00     0.210 HD
ENDBRANCH   3  14
BRANCH   4  16
HETATM   16  O   UNK N   1       0.639  -2.596  -0.360  0.00  0.00    -0.391 OA
HETATM   17  H   UNK N   1      -0.155  -2.958  -0.785  0.00  0.00     0.210 HD
ENDBRANCH   4  16
TORSDOF 6
