REMARK  3 active torsions:
REMARK  status: ('A' for Active; 'I' for Inactive)
REMARK    1  A    between atoms: C_11  and  C_9 
REMARK    2  A    between atoms: N_12  and  C_9 
REMARK    3  A    between atoms: C_11  and  C_10 
ROOT
HETATM    1  C   UNK N   1       1.269  -3.034   0.000  0.00  0.00     0.048 C 
HETATM    2  C   UNK N   1       2.397  -0.800   0.000  0.00  0.00     0.007 A 
HETATM    3  C   UNK N   1      -0.018  -0.902  -0.000  0.00  0.00     0.007 A 
HETATM    4  C   UNK N   1       2.340   0.599   0.000  0.00  0.00     0.016 A 
HETATM    5  C   UNK N   1      -0.073   0.491  -0.000  0.00  0.00     0.016 A 
HETATM    6  C   UNK N   1       1.216  -1.549   0.000  0.00  0.00    -0.062 A 
HETATM    7  C   UNK N   1       1.098   1.260  -0.000  0.00  0.00     0.012 A 
ENDROOT
BRANCH   7   8
HETATM    8  C   UNK N   1       1.044   2.750  -0.000  0.00  0.00     0.181 C 
HETATM    9  O   UNK N   1       2.092   3.379   0.000  0.00  0.00    -0.290 OA
BRANCH   8  10
HETATM   10  C   UNK N   1      -0.263   3.524  -0.000  0.00  0.00     0.147 C 
HETATM   11  C   UNK N   1      -1.644   2.862   0.000  0.00  0.00     0.040 C 
BRANCH  10  12
HETATM   12  N   UNK N   1      -0.154   4.990   0.000  0.00  0.00    -0.415 N 
HETATM   13  C   UNK N   1      -1.460   5.638  -0.000  0.00  0.00     0.140 C 
HETATM   14  H   UNK N   1       0.733   5.495   0.000  0.00  0.00     0.153 HD
ENDBRANCH  10  12
ENDBRANCH   8  10
ENDBRANCH   7   8
TORSDOF 3
