REMARK  3 active torsions:
REMARK  status: ('A' for Active; 'I' for Inactive)
REMARK    1  A    between atoms: C_3  and  N_30 
REMARK    2  A    between atoms: C_6  and  C_7 
REMARK       I    between atoms: C_10  and  N_24 
REMARK       I    between atoms: C_13  and  N_16 
REMARK       I    between atoms: N_30  and  C_31 
REMARK       I    between atoms: C_31  and  N_33 
REMARK    3  A    between atoms: N_33  and  C_34 
ROOT
HETATM    1  C   UNK N   1       3.228   0.673  -0.498  0.00  0.00     0.146 A 
HETATM    2  N   UNK N   1       4.009  -0.430  -0.377  0.00  0.00    -0.175 N 
ATOM      3  HN  UNK N   1       5.001  -0.330  -0.160  1.00  0.00     0.186 HD
HETATM    4  C   UNK N   1       3.475  -1.663  -0.544  0.00  0.00     0.696 A 
HETATM    5  N   UNK N   1       2.129  -1.786  -0.721  0.00  0.00    -0.022 N 
ATOM      6  HN  UNK N   1       1.702  -2.711  -0.773  1.00  0.00     0.203 HD
HETATM    7  C   UNK N   1       1.353  -0.666  -0.827  0.00  0.00     0.697 A 
HETATM    8  N   UNK N   1       1.926   0.546  -0.763  0.00  0.00    -0.175 N 
ATOM      9  HN  UNK N   1       1.360   1.380  -0.920  1.00  0.00     0.186 HD
HETATM   10  N   UNK N   1      -0.041  -0.732  -0.569  0.00  0.00    -0.204 N 
HETATM   11  C   UNK N   1      -0.721   0.480  -0.193  0.00  0.00     0.126 C 
HETATM   12  C   UNK N   1      -2.153   0.003  -0.050  0.00  0.00     0.030 C 
HETATM   13  C   UNK N   1      -2.031  -1.498   0.256  0.00  0.00     0.030 C 
HETATM   14  C   UNK N   1      -0.535  -1.787   0.255  0.00  0.00     0.126 C 
HETATM   15  C   UNK N   1      -0.045  -1.471   1.701  0.00  0.00     0.193 C 
HETATM   16  O   UNK N   1       0.577  -0.190   1.813  0.00  0.00    -0.387 OA
HETATM   17  C   UNK N   1      -0.250   0.826   1.250  0.00  0.00     0.193 C 
HETATM   18  N   UNK N   1       4.302  -2.815  -0.426  0.00  0.00    -0.213 N 
HETATM   19  C   UNK N   1       5.741  -2.660  -0.277  0.00  0.00     0.167 C 
HETATM   20  C   UNK N   1       6.298  -3.783   0.597  0.00  0.00     0.188 C 
HETATM   21  O   UNK N   1       5.876  -5.020   0.083  0.00  0.00    -0.388 OA
HETATM   22  C   UNK N   1       4.506  -5.105   0.379  0.00  0.00     0.188 C 
HETATM   23  C   UNK N   1       3.734  -4.145  -0.530  0.00  0.00     0.167 C 
ENDROOT
BRANCH   1  24
HETATM   24  C   UNK N   1       3.692   1.963  -0.053  0.00  0.00     0.009 C 
HETATM   25  C   UNK N   1       4.729   1.998   0.865  0.00  0.00     0.017 C 
HETATM   26  C   UNK N   1       5.185   3.207   1.328  0.00  0.00     0.030 C 
HETATM   27  C   UNK N   1       4.625   4.409   0.867  0.00  0.00     0.036 C 
HETATM   28  C   UNK N   1       3.533   4.379  -0.004  0.00  0.00     0.030 C 
HETATM   29  C   UNK N   1       3.030   3.147  -0.423  0.00  0.00     0.017 C 
BRANCH  27  30
HETATM   30  N   UNK N   1       5.507   5.505   0.828  0.00  0.00    -0.309 N 
HETATM   31  C   UNK N   1       6.646   5.296   0.110  0.00  0.00     0.325 C 
HETATM   32  O   UNK N   1       6.701   4.343  -0.665  0.00  0.00    -0.247 OA
HETATM   33  N   UNK N   1       7.759   6.022   0.365  0.00  0.00    -0.309 N 
HETATM   34  H   UNK N   1       7.666   6.885   0.828  0.00  0.00     0.170 HD
HETATM   35  H   UNK N   1       5.317   6.356   1.285  0.00  0.00     0.170 HD
BRANCH  33  36
HETATM   36  C   UNK N   1       9.064   5.579  -0.014  0.00  0.00     0.038 A 
HETATM   37  C   UNK N   1      10.167   6.355   0.326  0.00  0.00     0.046 A 
HETATM   38  C   UNK N   1      11.455   5.863   0.094  0.00  0.00     0.090 A 
HETATM   39  N   UNK N   1      11.633   4.627  -0.448  0.00  0.00    -0.375 N 
HETATM   40  C   UNK N   1      10.578   3.844  -0.787  0.00  0.00     0.090 A 
ATOM     41  HN  UNK N   1      12.581   4.282  -0.603  1.00  0.00     0.164 HD
HETATM   42  C   UNK N   1       9.284   4.301  -0.568  0.00  0.00     0.046 A 
ENDBRANCH  33  36
ENDBRANCH  27  30
ENDBRANCH   1  24
TORSDOF 3
