REMARK  2 active torsions:
REMARK  status: ('A' for Active; 'I' for Inactive)
REMARK    1  A    between atoms: C_7  and  C_8 
REMARK    2  A    between atoms: C_7  and  N_13 
ROOT
HETATM    1  C   UNK N   1      -0.942   3.352  -0.579  0.00  0.00     0.013 C 
HETATM    2  C   UNK N   1      -0.225   2.020  -0.790  0.00  0.00     0.026 C 
HETATM    3  C   UNK N   1       1.291   2.239  -0.706  0.00  0.00     0.007 C 
HETATM    4  C   UNK N   1       1.719   2.593   0.717  0.00  0.00     0.001 C 
HETATM    5  C   UNK N   1       1.270   1.510   1.692  0.00  0.00     0.003 C 
HETATM    6  C   UNK N   1      -0.246   1.319   1.616  0.00  0.00     0.048 C 
HETATM    7  C   UNK N   1      -0.713   0.911   0.199  0.00  0.00     0.196 C 
ENDROOT
BRANCH   7   8
HETATM    8  C   UNK N   1      -0.090  -0.447  -0.155  0.00  0.00     0.021 A 
HETATM    9  C   UNK N   1       0.713  -0.744  -1.260  0.00  0.00     0.018 A 
HETATM   10  C   UNK N   1       1.164  -2.095  -1.280  0.00  0.00     0.008 A 
HETATM   11  C   UNK N   1       0.725  -2.861  -0.193  0.00  0.00     0.050 A 
HETATM   12  S   UNK N   1      -0.197  -1.844   0.737  0.00  0.00    -0.104 SA
ENDBRANCH   7   8
BRANCH   7  13
HETATM   13  N   UNK N   1      -2.197   0.855   0.170  0.00  0.00     0.103 N 
HETATM   14  C   UNK N   1      -2.770  -0.126   1.107  0.00  0.00     0.274 C 
HETATM   15  C   UNK N   1      -4.291   0.013   1.163  0.00  0.00     0.030 C 
HETATM   16  C   UNK N   1      -4.886  -0.150  -0.233  0.00  0.00     0.003 C 
HETATM   17  C   UNK N   1      -4.223   0.818  -1.206  0.00  0.00     0.030 C 
HETATM   18  C   UNK N   1      -2.715   0.594  -1.181  0.00  0.00     0.274 C 
ENDBRANCH   7  13
TORSDOF 2
