REMARK  0 active torsions:
REMARK  status: ('A' for Active; 'I' for Inactive)
ROOT
HETATM    1  C   UNK N   1      -0.883   0.520  -0.000  0.00  0.00     0.056 A 
HETATM    2  C   UNK N   1      -1.720  -0.812   0.000  0.00  0.00     0.107 A 
HETATM    3  C   UNK N   1      -0.668  -1.889   0.000  0.00  0.00     0.222 A 
HETATM    4  O   UNK N   1      -0.897  -3.088  -0.000  0.00  0.00    -0.273 OA
HETATM    5  N   UNK N   1       0.556  -1.387   0.000  0.00  0.00    -0.322 N 
HETATM    6  C   UNK N   1       0.548   0.000   0.000  0.00  0.00     0.190 A 
HETATM    7  N   UNK N   1       1.904   0.431  -0.000  0.00  0.00    -0.338 N 
HETATM    8  C   UNK N   1       2.670  -0.684  -0.000  0.00  0.00     0.237 A 
HETATM    9  O   UNK N   1       3.889  -0.642  -0.000  0.00  0.00    -0.272 OA
HETATM   10  C   UNK N   1       1.871  -1.971   0.000  0.00  0.00     0.230 A 
HETATM   11  H   UNK N   1       2.223   1.362  -0.000  0.00  0.00     0.164 HD
ENDROOT
TORSDOF 0
