REMARK  11 active torsions:
REMARK  status: ('A' for Active; 'I' for Inactive)
REMARK    1  A    between atoms: C_6  and  C_12 
REMARK    2  A    between atoms: C_8  and  O_9 
REMARK    3  A    between atoms: C_12  and  S_13 
REMARK    4  A    between atoms: S_13  and  C_14 
REMARK    5  A    between atoms: C_19  and  O_38 
REMARK    6  A    between atoms: N_23  and  S_24 
REMARK    7  A    between atoms: S_24  and  C_27 
REMARK    8  A    between atoms: C_30  and  O_33 
REMARK    9  A    between atoms: O_33  and  C_34 
REMARK   10  A    between atoms: C_34  and  C_35 
REMARK   11  A    between atoms: C_35  and  O_37 
ROOT
HETATM    1  C   UNK N   1       0.715  -0.503   0.254  0.00  0.00     0.192 A 
HETATM    2  N   UNK N   1       1.565   0.246   1.001  0.00  0.00    -0.332 N 
ATOM      3  HN  UNK N   1       1.344   0.835   1.805  1.00  0.00     0.168 HD
HETATM    4  C   UNK N   1       2.767   0.032   0.435  0.00  0.00     0.065 A 
HETATM    5  C   UNK N   1       3.995   0.561   0.811  0.00  0.00     0.068 A 
HETATM    6  C   UNK N   1       5.127   0.197   0.054  0.00  0.00     0.070 A 
HETATM    7  C   UNK N   1       4.984  -0.693  -1.048  0.00  0.00     0.039 A 
HETATM    8  C   UNK N   1       3.724  -1.213  -1.395  0.00  0.00     0.036 A 
HETATM    9  C   UNK N   1       2.636  -0.815  -0.624  0.00  0.00     0.080 A 
HETATM   10  N   UNK N   1       1.348  -1.151  -0.749  0.00  0.00    -0.210 N 
ENDROOT
BRANCH  10  11
HETATM   11  S   UNK N   1       0.604  -2.267  -1.894  0.00  0.00     0.271 S 
HETATM   12  O   UNK N   1      -0.597  -1.516  -2.491  0.00  0.00    -0.200 OA
HETATM   13  O   UNK N   1       1.589  -2.406  -3.064  0.00  0.00    -0.200 OA
BRANCH  11  14
HETATM   14  C   UNK N   1       0.233  -3.755  -1.010  0.00  0.00     0.080 A 
HETATM   15  C   UNK N   1       1.244  -4.694  -0.814  0.00  0.00     0.028 A 
HETATM   16  C   UNK N   1       1.034  -5.769   0.045  0.00  0.00     0.038 A 
HETATM   17  C   UNK N   1      -0.184  -5.895   0.738  0.00  0.00     0.069 A 
HETATM   18  C   UNK N   1      -1.188  -4.941   0.546  0.00  0.00     0.038 A 
HETATM   19  C   UNK N   1      -0.977  -3.868  -0.319  0.00  0.00     0.028 A 
BRANCH  17  20
HETATM   20  O   UNK N   1      -0.409  -6.928   1.584  0.00  0.00    -0.341 OA
BRANCH  20  21
HETATM   21  C   UNK N   1       0.439  -8.009   1.699  0.00  0.00     0.285 C 
BRANCH  21  22
HETATM   22  C   UNK N   1       0.353  -8.844   0.462  0.00  0.00     0.164 C 
HETATM   23  O   UNK N   1       1.339  -9.007  -0.236  0.00  0.00    -0.648 OA
BRANCH  22  24
HETATM   24  O   UNK N   1      -0.826  -9.383   0.097  0.00  0.00    -0.775 OA
HETATM   25  H   UNK N   1      -1.560  -8.860  -0.157  0.00  0.00     0.167 HD
ENDBRANCH  22  24
ENDBRANCH  21  22
ENDBRANCH  20  21
ENDBRANCH  17  20
ENDBRANCH  11  14
ENDBRANCH  10  11
BRANCH   1  26
HETATM   26  S   UNK N   1      -1.069  -0.523   0.498  0.00  0.00     0.091 S 
HETATM   27  O   UNK N   1      -1.743  -1.182   1.936  0.00  0.00    -0.249 OA
BRANCH  26  28
HETATM   28  C   UNK N   1      -1.999   0.706  -0.482  0.00  0.00     0.175 C 
BRANCH  28  29
HETATM   29  C   UNK N   1      -1.150   1.933  -0.529  0.00  0.00     0.029 A 
HETATM   30  N   UNK N   1       0.015   1.896  -1.229  0.00  0.00    -0.367 N 
HETATM   31  C   UNK N   1       0.882   2.936  -1.236  0.00  0.00     0.097 A 
ATOM     32  HN  UNK N   1       0.243   1.059  -1.765  1.00  0.00     0.165 HD
HETATM   33  C   UNK N   1       0.603   4.095  -0.516  0.00  0.00    -0.013 A 
HETATM   34  C   UNK N   1       1.625   5.180  -0.553  0.00  0.00     0.052 C 
HETATM   35  C   UNK N   1      -0.618   4.184   0.212  0.00  0.00     0.083 A 
HETATM   36  C   UNK N   1      -1.496   3.084   0.192  0.00  0.00    -0.005 A 
HETATM   37  C   UNK N   1      -2.776   3.133   0.966  0.00  0.00     0.053 C 
BRANCH  35  38
HETATM   38  O   UNK N   1      -0.984   5.273   0.945  0.00  0.00    -0.355 OA
HETATM   39  C   UNK N   1      -0.255   6.425   1.119  0.00  0.00     0.210 C 
ENDBRANCH  35  38
ENDBRANCH  28  29
ENDBRANCH  26  28
ENDBRANCH   1  26
BRANCH   6  40
HETATM   40  O   UNK N   1       6.332   0.711   0.392  0.00  0.00    -0.356 OA
HETATM   41  C   UNK N   1       7.486   0.445  -0.308  0.00  0.00     0.210 C 
ENDBRANCH   6  40
TORSDOF 11
