REMARK  9 active torsions:
REMARK  status: ('A' for Active; 'I' for Inactive)
REMARK       I    between atoms: N_2  and  C_3 
REMARK    1  A    between atoms: C_3  and  C_5 
REMARK    2  A    between atoms: C_10  and  N_11 
REMARK    3  A    between atoms: N_11  and  C_12 
REMARK       I    between atoms: C_17  and  N_20 
REMARK    4  A    between atoms: N_20  and  C_21 
REMARK    5  A    between atoms: C_26  and  O_27 
REMARK    6  A    between atoms: C_32  and  N_34 
REMARK    7  A    between atoms: N_37  and  C_40 
REMARK    8  A    between atoms: C_40  and  C_41 
REMARK    9  A    between atoms: C_41  and  O_42 
ROOT
HETATM    1  C   UNK N   1      -4.505  -0.986   0.314  0.00  0.00     0.144 A 
HETATM    2  C   UNK N   1      -5.684  -0.380  -0.205  0.00  0.00     0.094 A 
HETATM    3  C   UNK N   1      -5.684   1.008  -0.403  0.00  0.00     0.133 A 
HETATM    4  N   UNK N   1      -4.557   1.744  -0.214  0.00  0.00    -0.200 N 
ATOM      5  HN  UNK N   1      -4.568   2.750  -0.387  1.00  0.00     0.183 HD
HETATM    6  C   UNK N   1      -3.427   1.143   0.202  0.00  0.00     0.684 A 
HETATM    7  N   UNK N   1      -3.437  -0.180   0.504  0.00  0.00    -0.175 N 
ATOM      8  HN  UNK N   1      -2.589  -0.589   0.897  1.00  0.00     0.186 HD
HETATM    9  N   UNK N   1      -2.169   1.804   0.032  0.00  0.00    -0.189 N 
HETATM   10 Cl   UNK N   1      -7.136  -1.191  -0.743  0.00  0.00    -0.079 Cl
HETATM   11  H   UNK N   1      -2.099   2.776   0.167  0.00  0.00     0.184 HD
ENDROOT
BRANCH   9  12
HETATM   12  C   UNK N   1      -1.014   1.043  -0.336  0.00  0.00     0.083 A 
HETATM   13  C   UNK N   1      -1.192  -0.283  -0.773  0.00  0.00     0.033 A 
HETATM   14  C   UNK N   1      -0.143  -1.142  -0.958  0.00  0.00     0.010 A 
HETATM   15  C   UNK N   1       1.138  -0.684  -0.757  0.00  0.00    -0.047 A 
HETATM   16  C   UNK N   1       1.386   0.669  -0.446  0.00  0.00    -0.016 A 
HETATM   17  C   UNK N   1       2.204  -1.688  -0.612  0.00  0.00     0.075 C 
HETATM   18  C   UNK N   1       0.310   1.553  -0.231  0.00  0.00     0.102 A 
HETATM   19  C   UNK N   1       2.802   1.147  -0.233  0.00  0.00     0.042 C 
HETATM   20  C   UNK N   1       3.588   0.388   0.852  0.00  0.00     0.007 C 
HETATM   21  C   UNK N   1       2.734  -0.569   1.691  0.00  0.00     0.036 C 
HETATM   22  C   UNK N   1       2.369  -1.861   0.928  0.00  0.00     0.227 C 
BRANCH  18  23
HETATM   23  O   UNK N   1       0.599   2.832   0.130  0.00  0.00    -0.353 OA
HETATM   24  C   UNK N   1      -0.318   3.829   0.359  0.00  0.00     0.210 C 
ENDBRANCH  18  23
BRANCH  22  25
HETATM   25  N   UNK N   1       3.234  -2.973   1.304  0.00  0.00     0.096 N 
HETATM   26  C   UNK N   1       4.562  -2.706   0.727  0.00  0.00     0.303 C 
HETATM   27  C   UNK N   1       5.379  -3.965   0.588  0.00  0.00     0.302 C 
HETATM   28  N   UNK N   1       4.611  -4.883  -0.233  0.00  0.00     0.093 N 
HETATM   29  C   UNK N   1       3.530  -5.359   0.611  0.00  0.00     0.302 C 
HETATM   30  C   UNK N   1       2.564  -4.199   0.823  0.00  0.00     0.303 C 
BRANCH  28  31
HETATM   31  C   UNK N   1       5.464  -5.991  -0.615  0.00  0.00     0.298 C 
BRANCH  31  32
HETATM   32  C   UNK N   1       6.252  -5.619  -1.865  0.00  0.00     0.194 C 
BRANCH  32  33
HETATM   33  O   UNK N   1       7.169  -4.604  -1.580  0.00  0.00    -0.399 OA
HETATM   34  H   UNK N   1       8.097  -4.803  -1.382  0.00  0.00     0.209 HD
ENDBRANCH  32  33
ENDBRANCH  31  32
ENDBRANCH  28  31
ENDBRANCH  22  25
ENDBRANCH   9  12
BRANCH   1  35
HETATM   35  N   UNK N   1      -4.246  -2.389   0.492  0.00  0.00    -0.340 N 
HETATM   36  H   UNK N   1      -3.325  -2.562   0.793  0.00  0.00     0.167 HD
BRANCH  35  37
HETATM   37  C   UNK N   1      -4.997  -3.589   0.339  0.00  0.00     0.049 A 
HETATM   38  C   UNK N   1      -6.382  -3.603   0.494  0.00  0.00     0.030 A 
HETATM   39  C   UNK N   1      -7.120  -4.768   0.299  0.00  0.00     0.002 A 
HETATM   40  C   UNK N   1      -6.474  -5.951  -0.044  0.00  0.00     0.001 A 
HETATM   41  C   UNK N   1      -5.086  -5.975  -0.159  0.00  0.00     0.019 A 
HETATM   42  C   UNK N   1      -4.324  -4.812   0.039  0.00  0.00     0.058 A 
BRANCH  42  43
HETATM   43  C   UNK N   1      -2.839  -4.924  -0.084  0.00  0.00     0.253 C 
HETATM   44  N   UNK N   1      -2.283  -6.123  -0.400  0.00  0.00    -0.361 N 
HETATM   45  C   UNK N   1      -0.858  -6.305  -0.514  0.00  0.00     0.149 C 
HETATM   46  H   UNK N   1      -2.875  -6.894  -0.557  0.00  0.00     0.162 HD
HETATM   47  O   UNK N   1      -2.121  -3.954   0.117  0.00  0.00    -0.268 OA
ENDBRANCH  42  43
ENDBRANCH  35  37
ENDBRANCH   1  35
TORSDOF 9
