REMARK  11 active torsions:
REMARK  status: ('A' for Active; 'I' for Inactive)
REMARK    1  A    between atoms: C_3  and  O_40 
REMARK    2  A    between atoms: C_4  and  N_39 
REMARK    3  A    between atoms: C_6  and  O_8 
REMARK    4  A    between atoms: C_9  and  O_8 
REMARK    5  A    between atoms: C_11  and  C_34 
REMARK    6  A    between atoms: C_11  and  O_38 
REMARK    7  A    between atoms: C_15  and  O_33 
REMARK    8  A    between atoms: C_18  and  O_19 
REMARK    9  A    between atoms: C_26  and  O_31 
REMARK   10  A    between atoms: C_34  and  C_36 
REMARK   11  A    between atoms: C_36  and  O_37 
ROOT
HETATM    1  C   UNK N   1       6.102   1.239   0.457  0.00  0.00     0.164 C 
HETATM    2  C   UNK N   1       6.742   0.262   1.448  0.00  0.00     0.083 C 
HETATM    3  C   UNK N   1       6.879  -1.156   0.825  0.00  0.00     0.127 C 
HETATM    4  C   UNK N   1       6.055  -1.323  -0.479  0.00  0.00     0.088 C 
HETATM    5  C   UNK N   1       4.721  -0.635  -0.330  0.00  0.00    -0.009 A 
HETATM    6  C   UNK N   1       4.736   0.683   0.127  0.00  0.00     0.014 A 
HETATM    7  C   UNK N   1       3.534   1.385   0.301  0.00  0.00     0.088 A 
HETATM    8  C   UNK N   1       2.298   0.750   0.024  0.00  0.00     0.042 A 
HETATM    9  C   UNK N   1       2.285  -0.603  -0.397  0.00  0.00     0.064 A 
HETATM   10  C   UNK N   1       3.512  -1.289  -0.588  0.00  0.00     0.088 A 
HETATM   11  C   UNK N   1       0.977  -1.291  -0.612  0.00  0.00     0.197 A 
HETATM   12  O   UNK N   1       0.943  -2.469  -0.934  0.00  0.00    -0.286 OA
HETATM   13  C   UNK N   1      -0.295  -0.551  -0.437  0.00  0.00     0.030 A 
HETATM   14  C   UNK N   1      -1.512  -1.213  -0.653  0.00  0.00     0.016 A 
HETATM   15  C   UNK N   1      -2.720  -0.531  -0.541  0.00  0.00     0.004 A 
HETATM   16  C   UNK N   1      -2.727   0.829  -0.247  0.00  0.00     0.038 A 
HETATM   17  C   UNK N   1      -1.524   1.518  -0.020  0.00  0.00     0.081 A 
HETATM   18  C   UNK N   1      -0.292   0.814  -0.087  0.00  0.00     0.039 A 
HETATM   19  C   UNK N   1       1.008   1.494   0.182  0.00  0.00     0.054 A 
HETATM   20  N   UNK N   1       1.018   2.720   0.559  0.00  0.00    -0.398 N 
ATOM     21  HN  UNK N   1       0.138   3.237   0.559  1.00  0.00     0.156 HD
HETATM   22  H   UNK N   1       1.836   3.185   0.848  0.00  0.00     0.156 HD
ENDROOT
BRANCH   1  23
HETATM   23  O   UNK N   1       6.150   2.561   0.929  0.00  0.00    -0.351 OA
BRANCH  23  24
HETATM   24  C   UNK N   1       6.139   3.405  -0.207  0.00  0.00     0.263 C 
HETATM   25  C   UNK N   1       7.300   3.179  -1.191  0.00  0.00     0.088 C 
HETATM   26  C   UNK N   1       8.593   3.627  -0.546  0.00  0.00     0.110 C 
HETATM   27  C   UNK N   1       8.442   5.074  -0.094  0.00  0.00     0.169 C 
HETATM   28  C   UNK N   1       7.220   5.169   0.833  0.00  0.00     0.151 C 
HETATM   29  C   UNK N   1       7.044   6.601   1.306  0.00  0.00     0.042 C 
HETATM   30  O   UNK N   1       6.041   4.768   0.161  0.00  0.00    -0.354 OA
BRANCH  26  31
HETATM   31  N   UNK N   1       9.677   3.501  -1.503  0.00  0.00    -0.423 N 
HETATM   32  H   UNK N   1       9.981   2.797  -2.175  0.00  0.00     0.150 HD
HETATM   33  H   UNK N   1      10.285   4.319  -1.503  0.00  0.00     0.150 HD
ENDBRANCH  26  31
BRANCH  27  34
HETATM   34  O   UNK N   1       9.597   5.472   0.582  0.00  0.00    -0.391 OA
HETATM   35  H   UNK N   1      10.237   4.915   1.051  0.00  0.00     0.210 HD
ENDBRANCH  27  34
ENDBRANCH  23  24
ENDBRANCH   1  23
BRANCH   3  36
HETATM   36  C   UNK N   1       8.348  -1.400   0.560  0.00  0.00     0.184 C 
HETATM   37  O   UNK N   1       8.896  -2.391   1.018  0.00  0.00    -0.292 OA
BRANCH  36  38
HETATM   38  C   UNK N   1       9.182  -0.385  -0.170  0.00  0.00     0.245 C 
BRANCH  38  39
HETATM   39  O   UNK N   1       8.671  -0.132  -1.440  0.00  0.00    -0.393 OA
HETATM   40  H   UNK N   1       8.645   0.265  -2.325  0.00  0.00     0.209 HD
ENDBRANCH  38  39
ENDBRANCH  36  38
ENDBRANCH   3  36
BRANCH   3  41
HETATM   41  O   UNK N   1       6.401  -2.094   1.744  0.00  0.00    -0.382 OA
HETATM   42  H   UNK N   1       5.671  -2.133   2.382  0.00  0.00     0.211 HD
ENDBRANCH   3  41
BRANCH   7  43
HETATM   43  O   UNK N   1       3.563   2.651   0.749  0.00  0.00    -0.359 OA
HETATM   44  H   UNK N   1       4.337   3.076   1.062  0.00  0.00     0.217 HD
ENDBRANCH   7  43
BRANCH  10  45
HETATM   45  O   UNK N   1       3.533  -2.568  -1.006  0.00  0.00    -0.359 OA
HETATM   46  H   UNK N   1       2.769  -3.026  -1.297  0.00  0.00     0.217 HD
ENDBRANCH  10  45
BRANCH  17  47
HETATM   47  O   UNK N   1      -1.535   2.852   0.230  0.00  0.00    -0.355 OA
HETATM   48  C   UNK N   1      -2.652   3.644   0.093  0.00  0.00     0.210 C 
ENDBRANCH  17  47
TORSDOF 11
