REMARK  5 active torsions:
REMARK  status: ('A' for Active; 'I' for Inactive)
REMARK    1  A    between atoms: C_6  and  C_8 
REMARK    2  A    between atoms: C_8  and  C_9 
REMARK    3  A    between atoms: C_10  and  C_9 
REMARK    4  A    between atoms: C_10  and  O_23 
REMARK       I    between atoms: N_18  and  C_19 
REMARK    5  A    between atoms: C_19  and  O_21 
ROOT
HETATM    1  C   UNK N   1       4.568   1.207  -0.261  0.00  0.00     0.073 C 
HETATM    2  C   UNK N   1       5.449   0.547   0.826  0.00  0.00     0.039 C 
HETATM    3  C   UNK N   1       5.452  -1.003   0.686  0.00  0.00     0.005 C 
HETATM    4  C   UNK N   1       4.025  -1.633   0.682  0.00  0.00     0.026 C 
HETATM    5  C   UNK N   1       2.976  -0.546   0.425  0.00  0.00     0.096 C 
HETATM    6  C   UNK N   1       3.428   0.285  -0.734  0.00  0.00     0.045 C 
HETATM    7  C   UNK N   1       2.146   0.945  -1.292  0.00  0.00     0.029 C 
HETATM    8  C   UNK N   1       0.990   0.271  -0.548  0.00  0.00     0.129 C 
HETATM    9  N   UNK N   1       1.617  -0.849   0.081  0.00  0.00    -0.323 N 
HETATM   10  C   UNK N   1       1.002  -2.061   0.108  0.00  0.00     0.362 C 
HETATM   11  O   UNK N   1       1.591  -3.053   0.514  0.00  0.00    -0.238 OA
ENDROOT
BRANCH   1  12
HETATM   12  C   UNK N   1       4.002   2.505   0.143  0.00  0.00     0.123 C 
BRANCH  12  13
HETATM   13  C   UNK N   1       3.196   3.392   0.287  0.00  0.00    -0.141 C 
BRANCH  13  14
HETATM   14  C   UNK N   1       1.985   4.161   0.340  0.00  0.00     0.005 A 
HETATM   15  C   UNK N   1       1.994   5.547   0.515  0.00  0.00     0.020 A 
HETATM   16  C   UNK N   1       0.792   6.263   0.424  0.00  0.00     0.002 A 
HETATM   17  C   UNK N   1      -0.413   5.594   0.170  0.00  0.00     0.007 A 
HETATM   18  C   UNK N   1      -0.419   4.206   0.013  0.00  0.00    -0.061 A 
HETATM   19  C   UNK N   1      -1.692   3.479  -0.241  0.00  0.00     0.048 C 
HETATM   20  C   UNK N   1       0.779   3.499   0.084  0.00  0.00     0.026 A 
ENDBRANCH  13  14
ENDBRANCH  12  13
ENDBRANCH   1  12
BRANCH   1  21
HETATM   21  O   UNK N   1       5.414   1.463  -1.339  0.00  0.00    -0.389 OA
HETATM   22  H   UNK N   1       5.862   1.042  -2.089  0.00  0.00     0.210 HD
ENDBRANCH   1  21
BRANCH  10  23
HETATM   23  O   UNK N   1      -0.284  -2.152  -0.324  0.00  0.00    -0.309 OA
HETATM   24  C   UNK N   1      -0.995  -3.327  -0.329  0.00  0.00     0.215 C 
ENDBRANCH  10  23
TORSDOF 5
