REMARK WARNING: 32 MAX_TORS EXCEEDED!!!
REMARK  53 active torsions:
REMARK  status: ('A' for Active; 'I' for Inactive)
REMARK    1  A    between atoms: O_1  and  C_55 
REMARK    2  A    between atoms: O_1  and  C_58 
REMARK    3  A    between atoms: O_2  and  C_56 
REMARK    4  A    between atoms: O_2  and  C_59 
REMARK    5  A    between atoms: O_3  and  C_57 
REMARK    6  A    between atoms: O_3  and  C_60 
REMARK    7  A    between atoms: C_7  and  C_8 
REMARK    8  A    between atoms: C_7  and  C_11 
REMARK    9  A    between atoms: C_8  and  C_16 
REMARK   10  A    between atoms: C_9  and  C_12 
REMARK   11  A    between atoms: C_9  and  C_21 
REMARK   12  A    between atoms: C_10  and  C_13 
REMARK   13  A    between atoms: C_10  and  C_22 
REMARK   14  A    between atoms: C_11  and  C_31 
REMARK   15  A    between atoms: C_12  and  C_23 
REMARK   16  A    between atoms: C_13  and  C_24 
REMARK   17  A    between atoms: C_14  and  C_15 
REMARK   18  A    between atoms: C_14  and  C_25 
REMARK   19  A    between atoms: C_15  and  C_26 
REMARK   20  A    between atoms: C_16  and  C_34 
REMARK   21  A    between atoms: C_17  and  C_19 
REMARK   22  A    between atoms: C_17  and  C_27 
REMARK   23  A    between atoms: C_18  and  C_20 
REMARK   24  A    between atoms: C_18  and  C_28 
REMARK   25  A    between atoms: C_19  and  C_29 
REMARK   26  A    between atoms: C_20  and  C_30 
REMARK   27  A    between atoms: C_21  and  C_32 
REMARK   28  A    between atoms: C_22  and  C_33 
REMARK   29  A    between atoms: C_23  and  C_35 
REMARK   30  A    between atoms: C_24  and  C_36 
REMARK   31  A    between atoms: C_25  and  C_37 
REMARK   32  A    between atoms: C_26  and  C_38 
REMARK   33  A    between atoms: C_27  and  C_39 
REMARK   34  A    between atoms: C_28  and  C_40 
REMARK   35  A    between atoms: C_29  and  C_41 
REMARK   36  A    between atoms: C_30  and  C_42 
REMARK   37  A    between atoms: C_31  and  C_43 
REMARK   38  A    between atoms: C_32  and  C_44 
REMARK   39  A    between atoms: C_33  and  C_45 
REMARK   40  A    between atoms: C_34  and  C_46 
REMARK   41  A    between atoms: C_35  and  C_51 
REMARK   42  A    between atoms: C_36  and  C_52 
REMARK   43  A    between atoms: C_37  and  C_47 
REMARK   44  A    between atoms: C_38  and  C_48 
REMARK   45  A    between atoms: C_39  and  C_49 
REMARK   46  A    between atoms: C_40  and  C_50 
REMARK   47  A    between atoms: C_41  and  C_53 
REMARK   48  A    between atoms: C_42  and  C_54 
REMARK   49  A    between atoms: C_43  and  C_58 
REMARK   50  A    between atoms: C_44  and  C_59 
REMARK   51  A    between atoms: C_45  and  C_60 
REMARK   52  A    between atoms: C_55  and  C_56 
REMARK   53  A    between atoms: C_55  and  C_57 
ROOT
HETATM    1  C   UNK N   1      18.337  -8.093   0.585  0.00  0.00     0.180 C 
ENDROOT
BRANCH   1   2
HETATM    2  O   UNK N   1      19.621  -7.660   0.344  0.00  0.00    -0.312 OA
BRANCH   2   3
HETATM    3  C   UNK N   1      20.201  -7.743  -0.879  0.00  0.00     0.259 C 
HETATM    4  O   UNK N   1      19.730  -8.469  -1.741  0.00  0.00    -0.265 OA
BRANCH   3   5
HETATM    5  C   UNK N   1      21.421  -6.931  -1.196  0.00  0.00     0.111 C 
BRANCH   5   6
HETATM    6  C   UNK N   1      21.941  -6.186   0.026  0.00  0.00     0.010 C 
BRANCH   6   7
HETATM    7  C   UNK N   1      23.349  -6.643   0.385  0.00  0.00     0.000 C 
BRANCH   7   8
HETATM    8  C   UNK N   1      23.393  -8.125   0.735  0.00  0.00     0.000 C 
BRANCH   8   9
HETATM    9  C   UNK N   1      23.607  -8.941  -0.528  0.00  0.00     0.000 C 
BRANCH   9  10
HETATM   10  C   UNK N   1      23.893 -10.383  -0.171  0.00  0.00     0.004 C 
BRANCH  10  11
HETATM   11  C   UNK N   1      25.144 -10.838  -0.904  0.00  0.00     0.027 C 
BRANCH  11  12
HETATM   12  C   UNK N   1      26.292 -11.028   0.046  0.00  0.00    -0.031 C 
HETATM   13  C   UNK N   1      26.928 -10.020   0.662  0.00  0.00    -0.031 C 
BRANCH  13  14
HETATM   14  C   UNK N   1      26.559  -8.588   0.456  0.00  0.00     0.027 C 
BRANCH  14  15
HETATM   15  C   UNK N   1      27.760  -7.769   0.039  0.00  0.00     0.004 C 
BRANCH  15  16
HETATM   16  C   UNK N   1      27.303  -6.340  -0.166  0.00  0.00     0.000 C 
BRANCH  16  17
HETATM   17  C   UNK N   1      28.484  -5.396  -0.139  0.00  0.00     0.000 C 
BRANCH  17  18
HETATM   18  C   UNK N   1      27.960  -3.975  -0.137  0.00  0.00     0.000 C 
BRANCH  18  19
HETATM   19  C   UNK N   1      29.108  -2.996  -0.023  0.00  0.00    -0.000 C 
BRANCH  19  20
HETATM   20  C   UNK N   1      28.554  -1.587   0.004  0.00  0.00    -0.005 C 
HETATM   21  C   UNK N   1      29.694  -0.593   0.061  0.00  0.00     0.005 C 
ENDBRANCH  19  20
ENDBRANCH  18  19
ENDBRANCH  17  18
ENDBRANCH  16  17
ENDBRANCH  15  16
ENDBRANCH  14  15
ENDBRANCH  13  14
ENDBRANCH  11  12
ENDBRANCH  10  11
ENDBRANCH   9  10
ENDBRANCH   8   9
ENDBRANCH   7   8
ENDBRANCH   6   7
ENDBRANCH   5   6
ENDBRANCH   3   5
ENDBRANCH   2   3
ENDBRANCH   1   2
BRANCH   1  22
HETATM   22  C   UNK N   1      18.338  -9.277   1.537  0.00  0.00     0.213 C 
BRANCH  22  23
HETATM   23  O   UNK N   1      18.784 -10.416   0.902  0.00  0.00    -0.319 OA
BRANCH  23  24
HETATM   24  C   UNK N   1      17.985 -11.204   0.137  0.00  0.00     0.258 C 
HETATM   25  O   UNK N   1      18.447 -12.222  -0.353  0.00  0.00    -0.265 OA
BRANCH  24  26
HETATM   26  C   UNK N   1      16.552 -10.846  -0.132  0.00  0.00     0.111 C 
BRANCH  26  27
HETATM   27  C   UNK N   1      15.617 -11.892   0.452  0.00  0.00     0.010 C 
BRANCH  27  28
HETATM   28  C   UNK N   1      14.646 -12.374  -0.611  0.00  0.00     0.000 C 
BRANCH  28  29
HETATM   29  C   UNK N   1      15.286 -13.445  -1.480  0.00  0.00     0.000 C 
BRANCH  29  30
HETATM   30  C   UNK N   1      14.998 -14.825  -0.916  0.00  0.00     0.000 C 
BRANCH  30  31
HETATM   31  C   UNK N   1      15.935 -15.161   0.232  0.00  0.00     0.004 C 
BRANCH  31  32
HETATM   32  C   UNK N   1      15.319 -16.233   1.117  0.00  0.00     0.027 C 
BRANCH  32  33
HETATM   33  C   UNK N   1      15.402 -17.597   0.494  0.00  0.00    -0.031 C 
HETATM   34  C   UNK N   1      14.425 -18.115  -0.267  0.00  0.00    -0.031 C 
BRANCH  34  35
HETATM   35  C   UNK N   1      13.171 -17.371  -0.623  0.00  0.00     0.027 C 
BRANCH  35  36
HETATM   36  C   UNK N   1      12.329 -17.058   0.604  0.00  0.00     0.004 C 
BRANCH  36  37
HETATM   37  C   UNK N   1      11.407 -15.888   0.307  0.00  0.00     0.000 C 
BRANCH  37  38
HETATM   38  C   UNK N   1      10.253 -16.330  -0.571  0.00  0.00     0.000 C 
BRANCH  38  39
HETATM   39  C   UNK N   1       8.978 -16.317   0.243  0.00  0.00     0.000 C 
BRANCH  39  40
HETATM   40  C   UNK N   1       7.962 -17.236  -0.397  0.00  0.00    -0.000 C 
BRANCH  40  41
HETATM   41  C   UNK N   1       6.739 -17.316   0.491  0.00  0.00    -0.005 C 
HETATM   42  C   UNK N   1       5.779 -18.346  -0.062  0.00  0.00     0.005 C 
ENDBRANCH  40  41
ENDBRANCH  39  40
ENDBRANCH  38  39
ENDBRANCH  37  38
ENDBRANCH  36  37
ENDBRANCH  35  36
ENDBRANCH  34  35
ENDBRANCH  32  33
ENDBRANCH  31  32
ENDBRANCH  30  31
ENDBRANCH  29  30
ENDBRANCH  28  29
ENDBRANCH  27  28
ENDBRANCH  26  27
ENDBRANCH  24  26
ENDBRANCH  23  24
ENDBRANCH  22  23
ENDBRANCH   1  22
BRANCH   1  43
HETATM   43  C   UNK N   1      17.560  -6.962   1.225  0.00  0.00     0.213 C 
BRANCH  43  44
HETATM   44  O   UNK N   1      16.628  -6.466   0.346  0.00  0.00    -0.319 OA
BRANCH  44  45
HETATM   45  C   UNK N   1      15.348  -6.914   0.322  0.00  0.00     0.258 C 
HETATM   46  O   UNK N   1      14.539  -6.354  -0.396  0.00  0.00    -0.265 OA
BRANCH  45  47
HETATM   47  C   UNK N   1      14.931  -8.090   1.181  0.00  0.00     0.111 C 
BRANCH  47  48
HETATM   48  C   UNK N   1      13.458  -8.471   1.078  0.00  0.00     0.010 C 
BRANCH  48  49
HETATM   49  C   UNK N   1      13.185  -9.366  -0.125  0.00  0.00     0.000 C 
BRANCH  49  50
HETATM   50  C   UNK N   1      12.889  -8.561  -1.385  0.00  0.00     0.000 C 
BRANCH  50  51
HETATM   51  C   UNK N   1      11.504  -7.931  -1.340  0.00  0.00     0.000 C 
BRANCH  51  52
HETATM   52  C   UNK N   1      11.507  -6.666  -0.497  0.00  0.00     0.004 C 
BRANCH  52  53
HETATM   53  C   UNK N   1      10.491  -6.787   0.623  0.00  0.00     0.027 C 
BRANCH  53  54
HETATM   54  C   UNK N   1       9.160  -6.270   0.175  0.00  0.00    -0.031 C 
HETATM   55  C   UNK N   1       8.205  -7.063  -0.328  0.00  0.00    -0.031 C 
BRANCH  55  56
HETATM   56  C   UNK N   1       8.379  -8.539  -0.513  0.00  0.00     0.027 C 
BRANCH  56  57
HETATM   57  C   UNK N   1       8.022  -9.274   0.765  0.00  0.00     0.004 C 
BRANCH  57  58
HETATM   58  C   UNK N   1       8.005 -10.772   0.525  0.00  0.00     0.000 C 
BRANCH  58  59
HETATM   59  C   UNK N   1       6.669 -11.190  -0.059  0.00  0.00     0.000 C 
BRANCH  59  60
HETATM   60  C   UNK N   1       6.546 -12.698  -0.007  0.00  0.00     0.000 C 
BRANCH  60  61
HETATM   61  C   UNK N   1       5.103 -13.092  -0.246  0.00  0.00    -0.000 C 
BRANCH  61  62
HETATM   62  C   UNK N   1       4.939 -14.576   0.002  0.00  0.00    -0.005 C 
HETATM   63  C   UNK N   1       3.476 -14.950  -0.105  0.00  0.00     0.005 C 
ENDBRANCH  61  62
ENDBRANCH  60  61
ENDBRANCH  59  60
ENDBRANCH  58  59
ENDBRANCH  57  58
ENDBRANCH  56  57
ENDBRANCH  55  56
ENDBRANCH  53  54
ENDBRANCH  52  53
ENDBRANCH  51  52
ENDBRANCH  50  51
ENDBRANCH  49  50
ENDBRANCH  48  49
ENDBRANCH  47  48
ENDBRANCH  45  47
ENDBRANCH  44  45
ENDBRANCH  43  44
ENDBRANCH   1  43
TORSDOF 53
