REMARK  5 active torsions:
REMARK  status: ('A' for Active; 'I' for Inactive)
REMARK    1  A    between atoms: N_8  and  C_11 
REMARK    2  A    between atoms: C_11  and  C_12 
REMARK    3  A    between atoms: N_15  and  C_18 
REMARK    4  A    between atoms: C_18  and  C_19 
REMARK    5  A    between atoms: C_19  and  C_21 
ROOT
HETATM    1  C   UNK N   1      -1.200   1.519  -0.875  0.00  0.00     0.007 C 
HETATM    2  C   UNK N   1      -1.766   1.209   0.503  0.00  0.00     0.026 C 
HETATM    3  C   UNK N   1      -1.110   2.082   1.560  0.00  0.00     0.117 C 
HETATM    4  N   UNK N   1      -1.213   3.504   1.226  0.00  0.00    -0.405 N 
HETATM    5  C   UNK N   1      -0.619   3.865  -0.068  0.00  0.00     0.117 C 
HETATM    6  C   UNK N   1      -1.160   3.011  -1.218  0.00  0.00     0.026 C 
ENDROOT
BRANCH   1   7
HETATM    7  C   UNK N   1      -0.010   0.671  -1.339  0.00  0.00     0.131 C 
BRANCH   7   8
HETATM    8  N   UNK N   1       1.259   0.905  -0.674  0.00  0.00    -0.343 N 
HETATM    9  C   UNK N   1       1.847   2.216  -0.435  0.00  0.00     0.165 A 
HETATM   10  C   UNK N   1       3.248   1.836  -0.022  0.00  0.00    -0.025 A 
HETATM   11  C   UNK N   1       3.405   0.475  -0.038  0.00  0.00     0.040 A 
HETATM   12  C   UNK N   1       4.311   2.680   0.295  0.00  0.00     0.010 A 
HETATM   13  C   UNK N   1       4.628  -0.133   0.242  0.00  0.00     0.017 A 
HETATM   14  C   UNK N   1       2.150  -0.084  -0.446  0.00  0.00     0.254 A 
HETATM   15  C   UNK N   1       5.716   0.697   0.563  0.00  0.00     0.001 A 
HETATM   16  C   UNK N   1       5.557   2.099   0.593  0.00  0.00     0.001 A 
HETATM   17  O   UNK N   1       1.931  -1.266  -0.647  0.00  0.00    -0.267 OA
ENDBRANCH   7   8
ENDBRANCH   1   7
BRANCH   4  18
HETATM   18  C   UNK N   1      -2.521   4.093   1.538  0.00  0.00     0.200 C 
BRANCH  18  19
HETATM   19  C   UNK N   1      -3.507   4.216   0.397  0.00  0.00     0.176 C 
HETATM   20  O   UNK N   1      -4.001   3.214  -0.098  0.00  0.00    -0.291 OA
BRANCH  19  21
HETATM   21  C   UNK N   1      -3.969   5.560  -0.014  0.00  0.00     0.011 A 
HETATM   22  C   UNK N   1      -5.108   5.715  -0.821  0.00  0.00     0.018 A 
HETATM   23  C   UNK N   1      -5.584   6.996  -1.126  0.00  0.00     0.043 A 
HETATM   24  C   UNK N   1      -4.916   8.125  -0.641  0.00  0.00     0.116 A 
HETATM   25  C   UNK N   1      -3.767   7.976   0.137  0.00  0.00     0.043 A 
HETATM   26  F   UNK N   1      -5.387   9.365  -0.914  0.00  0.00    -0.206 F 
HETATM   27  C   UNK N   1      -3.302   6.700   0.457  0.00  0.00     0.018 A 
ENDBRANCH  19  21
ENDBRANCH  18  19
ENDBRANCH   4  18
TORSDOF 5
