REMARK  3 active torsions:
REMARK  status: ('A' for Active; 'I' for Inactive)
REMARK    1  A    between atoms: C_3  and  C_8 
REMARK    2  A    between atoms: C_8  and  C_9 
REMARK    3  A    between atoms: C_8  and  N_19 
ROOT
HETATM    1  C   UNK N   1       4.146   2.474   0.007  0.00  0.00     0.156 C 
ENDROOT
BRANCH   1   2
HETATM    2  C   UNK N   1       5.511   1.806   0.004  0.00  0.00    -0.029 A 
HETATM    3  C   UNK N   1       5.635   0.411   0.088  0.00  0.00     0.010 A 
HETATM    4  C   UNK N   1       6.893  -0.197   0.060  0.00  0.00     0.002 A 
HETATM    5  C   UNK N   1       8.043   0.585  -0.065  0.00  0.00     0.024 A 
HETATM    6  C   UNK N   1       7.934   1.974  -0.150  0.00  0.00     0.034 A 
HETATM    7  C   UNK N   1       6.675   2.582  -0.111  0.00  0.00     0.033 A 
HETATM    8 Cl   UNK N   1       9.372   2.953  -0.330  0.00  0.00    -0.084 Cl
ENDBRANCH   1   2
BRANCH   1   9
HETATM    9  C   UNK N   1       2.812   1.749   0.002  0.00  0.00    -0.028 A 
HETATM   10  C   UNK N   1       2.741   0.331   0.033  0.00  0.00     0.012 A 
HETATM   11  C   UNK N   1       1.499  -0.333   0.042  0.00  0.00     0.032 A 
HETATM   12  C   UNK N   1       0.355   0.455   0.020  0.00  0.00     0.060 A 
HETATM   13  C   UNK N   1       0.409   1.807  -0.017  0.00  0.00     0.060 A 
HETATM   14  N   UNK N   1      -0.925   0.058   0.032  0.00  0.00    -0.351 N 
HETATM   15  C   UNK N   1       1.614   2.499  -0.028  0.00  0.00     0.041 A 
HETATM   16  N   UNK N   1      -0.831   2.310  -0.030  0.00  0.00    -0.350 N 
HETATM   17  C   UNK N   1      -1.637   1.215   0.001  0.00  0.00     0.181 A 
HETATM   18  H   UNK N   1      -1.098   3.257  -0.056  0.00  0.00     0.166 HD
ATOM     19  HN  UNK N   1      -1.284  -0.897   0.058  1.00  0.00     0.166 HD
ENDBRANCH   1   9
BRANCH   1  20
HETATM   20  N   UNK N   1       4.099   3.938   0.001  0.00  0.00    -0.338 N 
HETATM   21  C   UNK N   1       3.520   4.716   0.931  0.00  0.00     0.110 A 
HETATM   22  C   UNK N   1       3.678   6.028   0.535  0.00  0.00     0.106 A 
HETATM   23  N   UNK N   1       4.358   6.046  -0.631  0.00  0.00    -0.361 N 
HETATM   24  C   UNK N   1       4.601   4.757  -0.938  0.00  0.00     0.183 A 
ATOM     25  HN  UNK N   1       4.633   6.868  -1.170  1.00  0.00     0.166 HD
ENDBRANCH   1  20
TORSDOF 3
