REMARK  1 active torsions:
REMARK  status: ('A' for Active; 'I' for Inactive)
REMARK    1  A    between atoms: C_2  and  C_1 
ROOT
HETATM    1  C   UNK N   1       0.904   0.293  -0.000  0.00  0.00     0.412 C 
HETATM    2  F   UNK N   1       0.782   1.670  -0.000  0.00  0.00    -0.168 F 
HETATM    3  F   UNK N   1       2.260   0.550   0.000  0.00  0.00    -0.168 F 
HETATM    4  F   UNK N   1      -0.476   0.155   0.000  0.00  0.00    -0.168 F 
ENDROOT
BRANCH   1   5
HETATM    5  C   UNK N   1       1.284  -1.197  -0.000  0.00  0.00     0.339 C 
HETATM    6  F   UNK N   1       0.224  -2.093  -0.000  0.00  0.00    -0.246 F 
ENDBRANCH   1   5
TORSDOF 1
