REMARK  25 active torsions:
REMARK  status: ('A' for Active; 'I' for Inactive)
REMARK    1  A    between atoms: C_25  and  O_2 
REMARK    2  A    between atoms: O_2  and  C_29 
REMARK    3  A    between atoms: C_21  and  O_4 
REMARK    4  A    between atoms: C_22  and  O_5 
REMARK    5  A    between atoms: C_28  and  O_6 
REMARK    6  A    between atoms: O_6  and  C_32 
REMARK    7  A    between atoms: C_23  and  O_7 
REMARK    8  A    between atoms: C_24  and  O_8 
REMARK    9  A    between atoms: C_26  and  O_9 
REMARK   10  A    between atoms: C_27  and  O_10 
REMARK   11  A    between atoms: O_13  and  C_38 
REMARK   12  A    between atoms: O_14  and  C_43 
REMARK   13  A    between atoms: O_14  and  C_47 
REMARK   14  A    between atoms: O_15  and  C_44 
REMARK   15  A    between atoms: O_15  and  C_48 
REMARK   16  A    between atoms: O_16  and  C_46 
REMARK   17  A    between atoms: O_16  and  C_49 
REMARK   18  A    between atoms: O_17  and  C_50 
REMARK   19  A    between atoms: O_18  and  C_51 
REMARK   20  A    between atoms: O_19  and  C_52 
REMARK   21  A    between atoms: C_20  and  C_29 
REMARK   22  A    between atoms: C_33  and  C_36 
REMARK   23  A    between atoms: C_47  and  C_50 
REMARK   24  A    between atoms: C_48  and  C_51 
REMARK   25  A    between atoms: C_49  and  C_52 
ROOT
HETATM    1  O   UNK N   1      13.250  -5.541  -0.197  0.00  0.00    -0.306 OA
HETATM    2  O   UNK N   1      13.468  -9.473   0.241  0.00  0.00    -0.284 OA
HETATM    3  C   UNK N   1      12.147  -7.637   0.044  0.00  0.00     0.157 A 
HETATM    4  C   UNK N   1      12.108  -6.223  -0.094  0.00  0.00     0.124 A 
HETATM    5  C   UNK N   1      13.402  -8.269   0.081  0.00  0.00     0.223 A 
HETATM    6  C   UNK N   1      14.576  -7.508  -0.067  0.00  0.00     0.084 A 
HETATM    7  C   UNK N   1      14.448  -6.112  -0.205  0.00  0.00     0.096 A 
HETATM    8  C   UNK N   1      15.868  -8.084  -0.091  0.00  0.00     0.085 A 
HETATM    9  C   UNK N   1      15.585  -5.314  -0.367  0.00  0.00     0.075 A 
HETATM   10  C   UNK N   1      16.990  -7.276  -0.271  0.00  0.00     0.074 A 
HETATM   11  C   UNK N   1      16.859  -5.887  -0.411  0.00  0.00     0.074 A 
ENDROOT
BRANCH   3  12
HETATM   12  O   UNK N   1      11.008  -8.370   0.175  0.00  0.00    -0.311 OA
BRANCH  12  13
HETATM   13  C   UNK N   1      10.355  -8.918  -0.924  0.00  0.00     0.298 C 
HETATM   14  O   UNK N   1      11.132  -9.915  -1.563  0.00  0.00    -0.348 OA
HETATM   15  C   UNK N   1      11.288 -10.989  -0.662  0.00  0.00     0.180 C 
HETATM   16  C   UNK N   1       9.966 -11.736  -0.479  0.00  0.00     0.180 C 
HETATM   17  C   UNK N   1       9.014 -10.760   0.199  0.00  0.00     0.183 C 
HETATM   18  C   UNK N   1       8.942  -9.461  -0.598  0.00  0.00     0.205 C 
BRANCH  15  19
HETATM   19  C   UNK N   1      12.443 -11.878  -1.072  0.00  0.00     0.205 C 
BRANCH  19  20
HETATM   20  O   UNK N   1      13.007 -12.406   0.092  0.00  0.00    -0.356 OA
BRANCH  20  21
HETATM   21  C   UNK N   1      14.254 -12.900  -0.286  0.00  0.00     0.291 C 
HETATM   22  O   UNK N   1      15.261 -12.286   0.487  0.00  0.00    -0.351 OA
HETATM   23  C   UNK N   1      16.502 -12.643  -0.079  0.00  0.00     0.152 C 
HETATM   24  C   UNK N   1      16.762 -14.139   0.145  0.00  0.00     0.178 C 
HETATM   25  C   UNK N   1      17.604 -11.832   0.581  0.00  0.00     0.042 C 
HETATM   26  C   UNK N   1      15.635 -14.935  -0.509  0.00  0.00     0.183 C 
HETATM   27  C   UNK N   1      14.283 -14.409  -0.048  0.00  0.00     0.204 C 
BRANCH  24  28
HETATM   28  O   UNK N   1      17.981 -14.508  -0.427  0.00  0.00    -0.390 OA
HETATM   29  H   UNK N   1      18.183 -15.370  -0.824  0.00  0.00     0.210 HD
ENDBRANCH  24  28
BRANCH  26  30
HETATM   30  O   UNK N   1      15.756 -16.287  -0.189  0.00  0.00    -0.390 OA
HETATM   31  H   UNK N   1      14.983 -16.830   0.033  0.00  0.00     0.210 HD
ENDBRANCH  26  30
BRANCH  27  32
HETATM   32  O   UNK N   1      13.263 -15.029  -0.771  0.00  0.00    -0.388 OA
HETATM   33  H   UNK N   1      12.535 -14.631  -1.274  0.00  0.00     0.210 HD
ENDBRANCH  27  32
ENDBRANCH  20  21
ENDBRANCH  19  20
ENDBRANCH  15  19
BRANCH  16  34
HETATM   34  O   UNK N   1      10.137 -12.854   0.342  0.00  0.00    -0.390 OA
HETATM   35  H   UNK N   1       9.524 -13.344   0.912  0.00  0.00     0.210 HD
ENDBRANCH  16  34
BRANCH  17  36
HETATM   36  O   UNK N   1       7.742 -11.326   0.308  0.00  0.00    -0.390 OA
HETATM   37  H   UNK N   1       6.960 -10.757   0.384  0.00  0.00     0.210 HD
ENDBRANCH  17  36
BRANCH  18  38
HETATM   38  O   UNK N   1       8.181  -8.519   0.094  0.00  0.00    -0.388 OA
HETATM   39  H   UNK N   1       8.484  -7.733   0.576  0.00  0.00     0.210 HD
ENDBRANCH  18  38
ENDBRANCH  12  13
ENDBRANCH   3  12
BRANCH   4  40
HETATM   40  C   UNK N   1      10.846  -5.439  -0.108  0.00  0.00     0.004 A 
HETATM   41  C   UNK N   1      10.916  -4.048   0.027  0.00  0.00     0.054 A 
HETATM   42  C   UNK N   1       9.753  -3.260   0.062  0.00  0.00     0.103 A 
HETATM   43  C   UNK N   1       8.498  -3.873  -0.053  0.00  0.00     0.102 A 
HETATM   44  C   UNK N   1       8.425  -5.265  -0.201  0.00  0.00     0.040 A 
HETATM   45  C   UNK N   1       9.588  -6.036  -0.224  0.00  0.00     0.017 A 
BRANCH  42  46
HETATM   46  O   UNK N   1       9.818  -1.920   0.265  0.00  0.00    -0.346 OA
BRANCH  46  47
HETATM   47  C   UNK N   1      10.959  -1.262   0.675  0.00  0.00     0.201 C 
BRANCH  47  48
HETATM   48  C   UNK N   1      11.965  -1.154  -0.453  0.00  0.00     0.190 C 
BRANCH  48  49
HETATM   49  O   UNK N   1      13.216  -0.851   0.080  0.00  0.00    -0.399 OA
HETATM   50  H   UNK N   1      13.834  -1.500   0.452  0.00  0.00     0.209 HD
ENDBRANCH  48  49
ENDBRANCH  47  48
ENDBRANCH  46  47
ENDBRANCH  42  46
BRANCH  43  51
HETATM   51  O   UNK N   1       7.384  -3.102   0.033  0.00  0.00    -0.346 OA
BRANCH  51  52
HETATM   52  C   UNK N   1       6.162  -3.528   0.520  0.00  0.00     0.201 C 
BRANCH  52  53
HETATM   53  C   UNK N   1       5.456  -4.499  -0.406  0.00  0.00     0.190 C 
BRANCH  53  54
HETATM   54  O   UNK N   1       5.529  -5.783   0.133  0.00  0.00    -0.399 OA
HETATM   55  H   UNK N   1       4.781  -6.274   0.508  0.00  0.00     0.209 HD
ENDBRANCH  53  54
ENDBRANCH  52  53
ENDBRANCH  51  52
ENDBRANCH  43  51
ENDBRANCH   4  40
BRANCH   8  56
HETATM   56  O   UNK N   1      16.042  -9.409   0.038  0.00  0.00    -0.360 OA
HETATM   57  H   UNK N   1      15.302  -9.976   0.127  0.00  0.00     0.217 HD
ENDBRANCH   8  56
BRANCH  11  58
HETATM   58  O   UNK N   1      17.937  -5.088  -0.614  0.00  0.00    -0.349 OA
BRANCH  58  59
HETATM   59  C   UNK N   1      19.215  -5.553  -0.861  0.00  0.00     0.201 C 
BRANCH  59  60
HETATM   60  C   UNK N   1      19.835  -6.166   0.383  0.00  0.00     0.190 C 
BRANCH  60  61
HETATM   61  O   UNK N   1      20.173  -7.493   0.121  0.00  0.00    -0.399 OA
HETATM   62  H   UNK N   1      19.491  -8.159  -0.061  0.00  0.00     0.209 HD
ENDBRANCH  60  61
ENDBRANCH  59  60
ENDBRANCH  58  59
ENDBRANCH  11  58
TORSDOF 25
