REMARK  6 active torsions:
REMARK  status: ('A' for Active; 'I' for Inactive)
REMARK    1  A    between atoms: C_4  and  N_8 
REMARK    2  A    between atoms: N_8  and  C_9 
REMARK    3  A    between atoms: C_11  and  C_30 
REMARK    4  A    between atoms: C_16  and  C_20 
REMARK    5  A    between atoms: C_20  and  C_21 
REMARK    6  A    between atoms: C_30  and  N_31 
ROOT
HETATM    1  C   UNK N   1       3.794   2.080   0.425  0.00  0.00     0.122 A 
HETATM    2  C   UNK N   1       3.750   0.679   0.511  0.00  0.00     0.062 A 
HETATM    3  C   UNK N   1       2.567  -0.013   0.326  0.00  0.00     0.019 A 
HETATM    4  C   UNK N   1       1.428   0.754   0.050  0.00  0.00     0.135 A 
HETATM    5  N   UNK N   1       0.181   0.303  -0.204  0.00  0.00    -0.343 N 
ATOM      6  HN  UNK N   1      -0.140  -0.665  -0.219  1.00  0.00     0.167 HD
HETATM    7  C   UNK N   1      -0.546   1.418  -0.434  0.00  0.00     0.032 A 
HETATM    8  C   UNK N   1       0.264   2.536  -0.321  0.00  0.00     0.062 A 
HETATM    9  N   UNK N   1       1.502   2.094  -0.006  0.00  0.00    -0.240 N 
HETATM   10  N   UNK N   1       2.641   2.769   0.184  0.00  0.00    -0.277 N 
ATOM     11  HN  UNK N   1       2.648   3.788   0.150  1.00  0.00     0.189 HD
HETATM   12  C   UNK N   1      -1.993   1.398  -0.784  0.00  0.00     0.070 C 
ENDROOT
BRANCH   1  13
HETATM   13  N   UNK N   1       5.043   2.758   0.514  0.00  0.00    -0.327 N 
HETATM   14  H   UNK N   1       5.054   3.715   0.745  0.00  0.00     0.169 HD
BRANCH  13  15
HETATM   15  C   UNK N   1       6.278   2.084   0.276  0.00  0.00     0.123 A 
HETATM   16  C   UNK N   1       6.424   0.846  -0.326  0.00  0.00     0.075 A 
HETATM   17  C   UNK N   1       7.778   0.635  -0.307  0.00  0.00     0.025 A 
HETATM   18  C   UNK N   1       8.463  -0.580  -0.820  0.00  0.00     0.070 C 
HETATM   19  N   UNK N   1       8.401   1.686   0.262  0.00  0.00    -0.304 N 
HETATM   20  N   UNK N   1       7.483   2.576   0.613  0.00  0.00    -0.285 N 
HETATM   21  H   UNK N   1       9.372   1.777   0.394  0.00  0.00     0.186 HD
ATOM     22  HN  UNK N   1       7.660   3.476   1.060  1.00  0.00     0.188 HD
ENDBRANCH  13  15
ENDBRANCH   1  13
BRANCH   3  23
HETATM   23  C   UNK N   1       2.634  -1.514   0.390  0.00  0.00     0.315 C 
BRANCH  23  24
HETATM   24  N   UNK N   1       1.387  -2.151   0.021  0.00  0.00     0.096 N 
HETATM   25  C   UNK N   1       1.676  -3.509  -0.429  0.00  0.00     0.299 C 
HETATM   26  C   UNK N   1       0.345  -4.200  -0.739  0.00  0.00     0.198 C 
HETATM   27  O   UNK N   1      -0.445  -4.257   0.428  0.00  0.00    -0.388 OA
HETATM   28  C   UNK N   1      -0.755  -2.935   0.800  0.00  0.00     0.198 C 
HETATM   29  C   UNK N   1       0.530  -2.220   1.203  0.00  0.00     0.299 C 
ENDBRANCH  23  24
ENDBRANCH   3  23
BRANCH   8  30
HETATM   30  C   UNK N   1      -0.208   3.954  -0.567  0.00  0.00     0.103 C 
BRANCH  30  31
HETATM   31  C   UNK N   1       0.833   5.019  -0.458  0.00  0.00    -0.014 A 
HETATM   32  C   UNK N   1       1.956   4.990  -1.294  0.00  0.00     0.012 A 
HETATM   33  C   UNK N   1       2.961   5.946  -1.154  0.00  0.00     0.024 A 
HETATM   34  C   UNK N   1       2.834   6.954  -0.197  0.00  0.00     0.036 A 
HETATM   35  C   UNK N   1       1.689   7.023   0.602  0.00  0.00     0.066 A 
HETATM   36 Cl   UNK N   1       4.120   8.121   0.009  0.00  0.00    -0.084 Cl
HETATM   37  C   UNK N   1       0.684   6.059   0.472  0.00  0.00     0.124 A 
HETATM   38  F   UNK N   1      -0.423   6.136   1.252  0.00  0.00    -0.205 F 
ENDBRANCH  30  31
ENDBRANCH   8  30
TORSDOF 6
