REMARK  0 active torsions:
REMARK  status: ('A' for Active; 'I' for Inactive)
ROOT
HETATM    1  C   UNK N   1       4.795   3.507  -1.721  0.00  0.00     0.043 C 
HETATM    2  C   UNK N   1       4.426   3.634  -0.277  0.00  0.00    -0.087 C 
HETATM    3  C   UNK N   1       5.334   3.503   0.700  0.00  0.00    -0.024 C 
HETATM    4  C   UNK N   1       6.768   3.172   0.419  0.00  0.00     0.030 C 
HETATM    5  C   UNK N   1       7.015   1.712   0.818  0.00  0.00     0.044 C 
HETATM    6  C   UNK N   1       6.083   0.780   0.043  0.00  0.00     0.087 A 
HETATM    7  C   UNK N   1       4.744   0.560   0.669  0.00  0.00     0.187 A 
HETATM    8  O   UNK N   1       5.773  -0.408   0.726  0.00  0.00    -0.367 OA
HETATM    9  C   UNK N   1       3.666   0.226  -0.367  0.00  0.00     0.172 A 
HETATM   10  C   UNK N   1       2.492   1.289  -0.458  0.00  0.00     0.056 A 
HETATM   11  C   UNK N   1       2.497   2.376   0.633  0.00  0.00     0.016 C 
HETATM   12  C   UNK N   1       2.982   3.719   0.083  0.00  0.00     0.034 C 
HETATM   13  C   UNK N   1       1.303   0.417  -0.271  0.00  0.00     0.015 A 
HETATM   14  C   UNK N   1       0.030   0.818  -0.309  0.00  0.00     0.025 C 
HETATM   15  C   UNK N   1       1.750  -0.923  -0.053  0.00  0.00     0.289 A 
HETATM   16  O   UNK N   1       1.027  -1.884   0.143  0.00  0.00    -0.260 OA
HETATM   17  O   UNK N   1       3.081  -1.003  -0.100  0.00  0.00    -0.309 OA
HETATM   18  C   UNK N   1       6.374   0.476  -1.420  0.00  0.00     0.049 C 
ENDROOT
TORSDOF 0
