REMARK  11 active torsions:
REMARK  status: ('A' for Active; 'I' for Inactive)
REMARK    1  A    between atoms: C_11  and  N_22 
REMARK    2  A    between atoms: C_14  and  C_15 
REMARK       I    between atoms: N_22  and  C_23 
REMARK    3  A    between atoms: C_25  and  C_23 
REMARK    4  A    between atoms: C_25  and  C_26 
REMARK    5  A    between atoms: C_25  and  C_32 
REMARK    6  A    between atoms: C_26  and  C_27 
REMARK    7  A    between atoms: C_27  and  C_28 
REMARK    8  A    between atoms: C_32  and  C_33 
REMARK    9  A    between atoms: C_32  and  C_39 
REMARK   10  A    between atoms: C_33  and  C_34 
REMARK   11  A    between atoms: C_34  and  C_35 
REMARK       I    between atoms: C_39  and  N_41 
ROOT
HETATM    1  N   UNK N   1       1.621   2.094   0.926  0.00  0.00    -0.332 N 
HETATM    2  C   UNK N   1       2.868   2.614   0.790  0.00  0.00     0.224 C 
HETATM    3  O   UNK N   1       3.440   3.056   1.773  0.00  0.00    -0.273 OA
HETATM    4  H   UNK N   1       1.146   2.176   1.785  0.00  0.00     0.165 HD
ENDROOT
BRANCH   1   5
HETATM    5  C   UNK N   1       0.991   1.424  -0.178  0.00  0.00     0.279 C 
HETATM    6  C   UNK N   1      -0.378   1.744  -0.607  0.00  0.00     0.264 C 
HETATM    7  N   UNK N   1      -1.395   0.880  -0.455  0.00  0.00    -0.323 N 
HETATM    8  O   UNK N   1      -0.605   2.850  -1.077  0.00  0.00    -0.269 OA
HETATM    9  C   UNK N   1      -1.391  -0.464   0.032  0.00  0.00     0.053 A 
HETATM   10  H   UNK N   1      -2.278   1.225  -0.720  0.00  0.00     0.169 HD
HETATM   11  C   UNK N   1      -0.234  -1.328   0.118  0.00  0.00     0.018 A 
HETATM   12  C   UNK N   1      -2.658  -0.974   0.411  0.00  0.00    -0.034 A 
HETATM   13  C   UNK N   1      -0.453  -2.637   0.587  0.00  0.00     0.016 A 
HETATM   14  C   UNK N   1       1.205  -0.997  -0.266  0.00  0.00     0.053 C 
HETATM   15  C   UNK N   1      -1.703  -3.108   0.958  0.00  0.00     0.002 A 
HETATM   16  C   UNK N   1      -2.802  -2.278   0.870  0.00  0.00     0.009 A 
HETATM   17  N   UNK N   1       1.631   0.197  -0.464  0.00  0.00    -0.360 N 
ATOM     18  HN  UNK N   1       2.557   0.270  -0.886  1.00  0.00     0.162 HD
HETATM   19  C   UNK N   1      -3.883  -0.125   0.332  0.00  0.00     0.050 C 
BRANCH  14  20
HETATM   20  C   UNK N   1       2.306  -2.024  -0.236  0.00  0.00    -0.006 A 
HETATM   21  C   UNK N   1       3.630  -1.557  -0.118  0.00  0.00     0.014 A 
HETATM   22  C   UNK N   1       4.703  -2.431   0.024  0.00  0.00     0.004 A 
HETATM   23  C   UNK N   1       4.475  -3.803   0.044  0.00  0.00     0.042 A 
HETATM   24  C   UNK N   1       3.173  -4.293  -0.082  0.00  0.00     0.117 A 
HETATM   25  C   UNK N   1       2.093  -3.411  -0.211  0.00  0.00     0.056 A 
HETATM   26  F   UNK N   1       2.958  -5.628  -0.064  0.00  0.00    -0.206 F 
ENDBRANCH  14  20
ENDBRANCH   1   5
BRANCH   2  27
HETATM   27  C   UNK N   1       3.494   2.770  -0.591  0.00  0.00     0.091 C 
BRANCH  27  28
HETATM   28  C   UNK N   1       3.010   4.052  -1.268  0.00  0.00     0.023 C 
BRANCH  28  29
HETATM   29  C   UNK N   1       3.431   5.292  -0.487  0.00  0.00     0.118 C 
BRANCH  29  30
HETATM   30  C   UNK N   1       2.249   5.982   0.179  0.00  0.00     0.387 C 
HETATM   31  F   UNK N   1       2.729   6.998   0.981  0.00  0.00    -0.171 F 
HETATM   32  F   UNK N   1       1.529   5.102   0.963  0.00  0.00    -0.171 F 
HETATM   33  F   UNK N   1       1.416   6.516  -0.785  0.00  0.00    -0.171 F 
ENDBRANCH  29  30
ENDBRANCH  28  29
ENDBRANCH  27  28
BRANCH  27  34
HETATM   34  C   UNK N   1       5.017   2.572  -0.735  0.00  0.00     0.091 C 
BRANCH  34  35
HETATM   35  C   UNK N   1       5.841   3.450   0.195  0.00  0.00     0.023 C 
BRANCH  35  36
HETATM   36  C   UNK N   1       6.951   4.103  -0.606  0.00  0.00     0.118 C 
BRANCH  36  37
HETATM   37  C   UNK N   1       7.457   5.353   0.092  0.00  0.00     0.387 C 
HETATM   38  F   UNK N   1       8.411   5.957  -0.703  0.00  0.00    -0.171 F 
HETATM   39  F   UNK N   1       8.022   5.020   1.309  0.00  0.00    -0.171 F 
HETATM   40  F   UNK N   1       6.413   6.239   0.294  0.00  0.00    -0.171 F 
ENDBRANCH  36  37
ENDBRANCH  35  36
ENDBRANCH  34  35
BRANCH  34  41
HETATM   41  C   UNK N   1       5.464   1.139  -0.794  0.00  0.00     0.220 C 
HETATM   42  O   UNK N   1       6.237   0.688   0.037  0.00  0.00    -0.273 OA
HETATM   43  N   UNK N   1       5.066   0.366  -1.823  0.00  0.00    -0.370 N 
HETATM   44  H   UNK N   1       4.432   0.335  -2.575  0.00  0.00     0.159 HD
HETATM   45  H   UNK N   1       5.600  -0.462  -1.823  0.00  0.00     0.159 HD
ENDBRANCH  34  41
ENDBRANCH  27  34
ENDBRANCH   2  27
TORSDOF 11
