REMARK  4 active torsions:
REMARK  status: ('A' for Active; 'I' for Inactive)
REMARK    1  A    between atoms: O_1  and  C_2 
REMARK    2  A    between atoms: C_5  and  C_8 
REMARK    3  A    between atoms: C_13  and  O_14 
REMARK    4  A    between atoms: C_16  and  O_17 
ROOT
HETATM    1  C   UNK N   1       1.882  -1.221   0.009  0.00  0.00     0.048 A 
HETATM    2  C   UNK N   1       1.886   0.181   0.077  0.00  0.00     0.159 A 
HETATM    3  O   UNK N   1       0.754   0.875   0.130  0.00  0.00    -0.321 OA
HETATM    4  C   UNK N   1      -0.440   0.294   0.138  0.00  0.00     0.094 A 
HETATM    5  C   UNK N   1      -1.589   1.086   0.211  0.00  0.00     0.074 A 
HETATM    6  C   UNK N   1      -2.853   0.495   0.233  0.00  0.00     0.071 A 
HETATM    7  C   UNK N   1      -2.977  -0.894   0.188  0.00  0.00     0.074 A 
HETATM    8  C   UNK N   1      -1.843  -1.704   0.113  0.00  0.00     0.085 A 
HETATM    9  C   UNK N   1      -0.554  -1.117   0.082  0.00  0.00     0.082 A 
HETATM   10  C   UNK N   1       0.630  -1.877   0.008  0.00  0.00     0.200 A 
HETATM   11  O   UNK N   1       0.571  -3.096  -0.039  0.00  0.00    -0.286 OA
ENDROOT
BRANCH   1  12
HETATM   12  C   UNK N   1       3.184  -1.958  -0.016  0.00  0.00    -0.020 A 
HETATM   13  C   UNK N   1       4.393  -1.266   0.183  0.00  0.00     0.015 A 
HETATM   14  C   UNK N   1       5.608  -1.958   0.236  0.00  0.00     0.037 A 
HETATM   15  C   UNK N   1       5.630  -3.346   0.082  0.00  0.00     0.065 A 
HETATM   16  C   UNK N   1       4.442  -4.042  -0.141  0.00  0.00     0.037 A 
HETATM   17  C   UNK N   1       3.230  -3.353  -0.184  0.00  0.00     0.015 A 
BRANCH  15  18
HETATM   18  O   UNK N   1       6.792  -4.014   0.155  0.00  0.00    -0.361 OA
HETATM   19  H   UNK N   1       6.795  -4.949   0.206  0.00  0.00     0.217 HD
ENDBRANCH  15  18
ENDBRANCH   1  12
BRANCH   8  20
HETATM   20  O   UNK N   1      -2.004  -3.040   0.077  0.00  0.00    -0.360 OA
HETATM   21  H   UNK N   1      -2.866  -3.408   0.052  0.00  0.00     0.217 HD
ENDBRANCH   8  20
BRANCH   6  22
HETATM   22  O   UNK N   1      -3.952   1.262   0.299  0.00  0.00    -0.361 OA
HETATM   23  H   UNK N   1      -3.872   2.195   0.345  0.00  0.00     0.217 HD
ENDBRANCH   6  22
TORSDOF 4
