REMARK  6 active torsions:
REMARK  status: ('A' for Active; 'I' for Inactive)
REMARK    1  A    between atoms: C_1  and  C_2 
REMARK    2  A    between atoms: C_1  and  O_7 
REMARK    3  A    between atoms: C_2  and  O_3 
REMARK    4  A    between atoms: C_2  and  C_4 
REMARK    5  A    between atoms: C_4  and  C_5 
REMARK    6  A    between atoms: C_5  and  O_9 
ROOT
HETATM    1  C   UNK N   1      -0.681  -0.272   0.000  0.00  0.00     0.225 C 
ENDROOT
BRANCH   1   2
HETATM    2  C   UNK N   1      -2.029   0.380  -0.000  0.00  0.00     0.170 C 
HETATM    3  O   UNK N   1      -2.122   1.595  -0.000  0.00  0.00    -0.648 OA
BRANCH   2   4
HETATM    4  O   UNK N   1      -3.145  -0.375  -0.000  0.00  0.00    -0.774 OA
HETATM    5  H   UNK N   1      -3.988   0.034  -0.000  0.00  0.00     0.167 HD
ENDBRANCH   2   4
ENDBRANCH   1   2
BRANCH   1   6
HETATM    6  O   UNK N   1      -0.628  -1.667  -0.000  0.00  0.00    -0.384 OA
HETATM    7  H   UNK N   1      -1.449  -2.184  -0.000  0.00  0.00     0.210 HD
ENDBRANCH   1   6
BRANCH   1   8
HETATM    8  C   UNK N   1       0.599   0.574  -0.000  0.00  0.00     0.152 C 
BRANCH   8   9
HETATM    9  C   UNK N   1       1.919  -0.149   0.000  0.00  0.00     0.142 C 
HETATM   10  O   UNK N   1       1.981  -1.367   0.000  0.00  0.00    -0.650 OA
BRANCH   9  11
HETATM   11  O   UNK N   1       3.055   0.572  -0.000  0.00  0.00    -0.776 OA
HETATM   12  H   UNK N   1       3.885   0.138  -0.000  0.00  0.00     0.167 HD
ENDBRANCH   9  11
ENDBRANCH   8   9
ENDBRANCH   1   8
TORSDOF 6
