REMARK  8 active torsions:
REMARK  status: ('A' for Active; 'I' for Inactive)
REMARK    1  A    between atoms: C_3  and  C_16 
REMARK    2  A    between atoms: C_4  and  S_8 
REMARK    3  A    between atoms: N_5  and  C_19 
REMARK    4  A    between atoms: C_6  and  C_27 
REMARK    5  A    between atoms: C_7  and  S_8 
REMARK    6  A    between atoms: C_19  and  C_20 
REMARK    7  A    between atoms: C_27  and  O_28 
REMARK    8  A    between atoms: O_28  and  C_29 
REMARK       I    between atoms: C_29  and  N_30 
ROOT
HETATM    1  N   UNK N   1       2.798  -0.598  -0.474  0.00  0.00    -0.345 N 
ATOM      2  HN  UNK N   1       3.687  -0.447  -0.950  1.00  0.00     0.167 HD
HETATM    3  C   UNK N   1       2.325  -1.759   0.034  0.00  0.00     0.048 A 
HETATM    4  C   UNK N   1       1.076  -1.532   0.589  0.00  0.00     0.102 A 
HETATM    5  N   UNK N   1       0.785  -0.220   0.453  0.00  0.00    -0.323 N 
HETATM    6  C   UNK N   1       1.841   0.316  -0.214  0.00  0.00     0.110 A 
ENDROOT
BRANCH   4   7
HETATM    7  S   UNK N   1       0.070  -2.761   1.484  0.00  0.00    -0.070 SA
BRANCH   7   8
HETATM    8  C   UNK N   1      -1.516  -2.721   0.600  0.00  0.00     0.010 A 
HETATM    9  C   UNK N   1      -2.048  -3.898   0.052  0.00  0.00     0.042 A 
HETATM   10  C   UNK N   1      -3.340  -3.898  -0.502  0.00  0.00     0.036 A 
HETATM   11 Cl   UNK N   1      -4.027  -5.372  -1.149  0.00  0.00    -0.084 Cl
HETATM   12  C   UNK N   1      -4.104  -2.727  -0.502  0.00  0.00     0.047 A 
HETATM   13  C   UNK N   1      -3.583  -1.559   0.052  0.00  0.00     0.036 A 
HETATM   14 Cl   UNK N   1      -4.535  -0.090   0.074  0.00  0.00    -0.084 Cl
HETATM   15  C   UNK N   1      -2.308  -1.569   0.617  0.00  0.00     0.042 A 
ENDBRANCH   7   8
ENDBRANCH   4   7
BRANCH   3  16
HETATM   16  C   UNK N   1       3.101  -3.048   0.059  0.00  0.00     0.030 C 
HETATM   17  C   UNK N   1       2.412  -4.116  -0.765  0.00  0.00     0.016 C 
HETATM   18  C   UNK N   1       4.527  -2.871  -0.438  0.00  0.00     0.016 C 
ENDBRANCH   3  16
BRANCH   5  19
HETATM   19  C   UNK N   1      -0.395   0.429   1.028  0.00  0.00     0.170 C 
BRANCH  19  20
HETATM   20  C   UNK N   1      -0.744   1.784   0.513  0.00  0.00    -0.037 A 
HETATM   21  C   UNK N   1      -1.621   1.920  -0.565  0.00  0.00     0.026 A 
HETATM   22  C   UNK N   1      -2.015   3.198  -0.967  0.00  0.00     0.088 A 
HETATM   23  N   UNK N   1      -1.554   4.295  -0.306  0.00  0.00    -0.375 N 
HETATM   24  C   UNK N   1      -0.710   4.181   0.756  0.00  0.00     0.088 A 
ATOM     25  HN  UNK N   1      -1.846   5.223  -0.613  1.00  0.00     0.164 HD
HETATM   26  C   UNK N   1      -0.300   2.920   1.192  0.00  0.00     0.026 A 
ENDBRANCH  19  20
ENDBRANCH   5  19
BRANCH   6  27
HETATM   27  C   UNK N   1       1.975   1.755  -0.591  0.00  0.00     0.257 C 
BRANCH  27  28
HETATM   28  O   UNK N   1       2.931   2.372   0.183  0.00  0.00    -0.297 OA
BRANCH  28  29
HETATM   29  C   UNK N   1       3.108   3.716   0.167  0.00  0.00     0.358 C 
HETATM   30  N   UNK N   1       2.359   4.505  -0.634  0.00  0.00    -0.346 N 
HETATM   31  H   UNK N   1       2.585   5.265  -1.218  0.00  0.00     0.161 HD
HETATM   32  H   UNK N   1       1.402   4.276  -0.634  0.00  0.00     0.161 HD
HETATM   33  O   UNK N   1       3.944   4.221   0.897  0.00  0.00    -0.239 OA
ENDBRANCH  28  29
ENDBRANCH  27  28
ENDBRANCH   6  27
TORSDOF 8
