REMARK  2 active torsions:
REMARK  status: ('A' for Active; 'I' for Inactive)
REMARK    1  A    between atoms: C_4  and  C_7 
REMARK    2  A    between atoms: C_4  and  O_10 
ROOT
HETATM    1  C   UNK N   1       1.255  -1.166   0.211  0.00  0.00    -0.087 C 
HETATM    2  C   UNK N   1       0.214  -0.568   0.816  0.00  0.00    -0.021 C 
HETATM    3  C   UNK N   1      -0.125   0.886   0.609  0.00  0.00     0.065 C 
HETATM    4  C   UNK N   1       1.052   1.707   0.060  0.00  0.00     0.064 C 
HETATM    5  C   UNK N   1       1.663   0.962  -1.127  0.00  0.00     0.042 C 
HETATM    6  C   UNK N   1       2.174  -0.426  -0.730  0.00  0.00     0.036 C 
HETATM    7  C   UNK N   1       1.529  -2.601   0.498  0.00  0.00     0.043 C 
ENDROOT
BRANCH   4   8
HETATM    8  C   UNK N   1       0.594   3.105  -0.397  0.00  0.00     0.012 C 
HETATM    9  C   UNK N   1      -0.514   3.049  -1.442  0.00  0.00     0.012 C 
HETATM   10  C   UNK N   1       0.144   3.980   0.762  0.00  0.00     0.012 C 
ENDBRANCH   4   8
BRANCH   4  11
HETATM   11  O   UNK N   1       2.026   1.849   1.054  0.00  0.00    -0.389 OA
HETATM   12  H   UNK N   1       2.449   1.313   1.744  0.00  0.00     0.210 HD
ENDBRANCH   4  11
TORSDOF 2
