REMARK  3 active torsions:
REMARK  status: ('A' for Active; 'I' for Inactive)
REMARK    1  A    between atoms: C_1  and  N_2 
REMARK    2  A    between atoms: N_2  and  C_10 
REMARK       I    between atoms: C_13  and  N_14 
REMARK    3  A    between atoms: N_14  and  C_19 
ROOT
HETATM    1  C   UNK N   1      -2.595   0.709   0.709  0.00  0.00     0.145 C 
HETATM    2  C   UNK N   1      -3.623   0.006   0.078  0.00  0.00     0.004 C 
HETATM    3  C   UNK N   1      -4.812   0.679  -0.167  0.00  0.00     0.021 C 
HETATM    4  C   UNK N   1      -5.012   1.922   0.426  0.00  0.00     0.044 C 
HETATM    5  C   UNK N   1      -4.162   2.341   1.464  0.00  0.00     0.021 C 
HETATM    6  C   UNK N   1      -2.992   1.613   1.699  0.00  0.00     0.004 C 
HETATM    7  C   UNK N   1      -5.985   2.796  -0.148  0.00  0.00     0.099 C 
HETATM    8  N   UNK N   1      -6.785   3.463  -0.650  0.00  0.00    -0.191 NA
ENDROOT
BRANCH   1   9
HETATM    9  N   UNK N   1      -1.823   1.379  -0.260  0.00  0.00    -0.215 N 
HETATM   10  C   UNK N   1      -0.593   1.986   0.004  0.00  0.00     0.680 C 
HETATM   11  N   UNK N   1       0.448   1.176   0.156  0.00  0.00    -0.177 N 
HETATM   12  N   UNK N   1      -0.390   3.309  -0.234  0.00  0.00    -0.202 N 
HETATM   13  C   UNK N   1       1.707   1.563   0.023  0.00  0.00     0.122 C 
ATOM     14  HN  UNK N   1       0.267   0.199   0.388  1.00  0.00     0.186 HD
HETATM   15  C   UNK N   1       1.977   2.928  -0.149  0.00  0.00     0.066 C 
HETATM   16  C   UNK N   1       0.880   3.807  -0.234  0.00  0.00     0.110 C 
ATOM     17  HN  UNK N   1      -1.183   3.925  -0.412  1.00  0.00     0.183 HD
HETATM   18  H   UNK N   1      -2.171   1.422  -1.179  0.00  0.00     0.178 HD
BRANCH  13  19
HETATM   19  N   UNK N   1       2.705   0.563  -0.120  0.00  0.00    -0.341 N 
HETATM   20  H   UNK N   1       3.635   0.880  -0.171  0.00  0.00     0.167 HD
BRANCH  19  21
HETATM   21  C   UNK N   1       2.510  -0.879  -0.199  0.00  0.00     0.045 A 
HETATM   22  C   UNK N   1       3.655  -1.679   0.024  0.00  0.00    -0.034 A 
HETATM   23  C   UNK N   1       4.996  -1.061   0.228  0.00  0.00     0.050 C 
HETATM   24  C   UNK N   1       3.567  -3.073   0.071  0.00  0.00     0.015 A 
HETATM   25  C   UNK N   1       2.352  -3.713  -0.125  0.00  0.00    -0.061 A 
HETATM   26  C   UNK N   1       1.231  -2.975  -0.434  0.00  0.00     0.015 A 
HETATM   27  C   UNK N   1       2.242  -5.187   0.010  0.00  0.00     0.048 C 
HETATM   28  C   UNK N   1       1.265  -1.588  -0.492  0.00  0.00    -0.034 A 
HETATM   29  C   UNK N   1      -0.046  -1.029  -0.911  0.00  0.00     0.050 C 
ENDBRANCH  19  21
ENDBRANCH  13  19
ENDBRANCH   1   9
TORSDOF 3
