MODEL 1
REMARK VINA RESULT:      -5.6      0.000      0.000
REMARK  8 active torsions:
REMARK  status: ('A' for Active; 'I' for Inactive)
REMARK    1  A    between atoms: N_2  and  C_9 
REMARK    2  A    between atoms: N_2  and  C_11 
REMARK    3  A    between atoms: N_2  and  C_12 
REMARK    4  A    between atoms: N_3  and  C_8 
REMARK    5  A    between atoms: N_3  and  C_13 
REMARK    6  A    between atoms: C_6  and  C_7 
REMARK    7  A    between atoms: C_6  and  C_8 
REMARK    8  A    between atoms: C_7  and  C_9 
ROOT
HETATM    1 Cl   UNK N   1      25.703  20.934  -9.671  0.00  0.00    -0.084 Cl
HETATM    2  N   UNK N   1      25.342  23.979  -5.578  0.00  0.00    -0.365 N 
ATOM      3  HN  UNK N   1      24.339  24.012  -5.758  1.00  0.00     0.165 HD
HETATM    4  C   UNK N   1      28.067  23.897  -5.086  0.00  0.00     0.042 A 
HETATM    5  C   UNK N   1      27.535  23.203  -6.180  0.00  0.00     0.017 A 
HETATM    6  C   UNK N   1      27.218  24.619  -4.245  0.00  0.00     0.047 A 
HETATM    7  C   UNK N   1      26.142  23.258  -6.408  0.00  0.00     0.046 A 
HETATM    8  C   UNK N   1      28.348  22.436  -7.025  0.00  0.00     0.018 A 
HETATM    9  C   UNK N   1      25.850  24.659  -4.514  0.00  0.00     0.090 A 
HETATM   10  C   UNK N   1      25.585  22.555  -7.479  0.00  0.00     0.054 A 
HETATM   11  C   UNK N   1      27.782  21.738  -8.096  0.00  0.00     0.025 A 
HETATM   12  C   UNK N   1      26.404  21.799  -8.322  0.00  0.00     0.036 A 
ENDROOT
BRANCH   4  13
HETATM   13  N   UNK N   1      29.433  23.785  -4.765  0.00  0.00    -0.385 N 
HETATM   14  H   UNK N   1      30.081  23.404  -5.400  0.00  0.00     0.160 HD
BRANCH  13  15
HETATM   15  C   UNK N   1      29.840  24.250  -3.470  0.00  0.00     0.077 C 
HETATM   16  C   UNK N   1      30.753  25.464  -3.503  0.00  0.00     0.032 C 
BRANCH  15  17
HETATM   17  C   UNK N   1      30.079  23.117  -2.475  0.00  0.00     0.026 C 
BRANCH  17  18
HETATM   18  C   UNK N   1      30.449  21.787  -3.100  0.00  0.00     0.032 C 
BRANCH  18  19
HETATM   19  C   UNK N   1      31.941  21.665  -3.436  0.00  0.00     0.272 C 
BRANCH  19  20
HETATM   20  N   UNK N   1      32.161  21.361  -4.857  0.00  0.00     0.087 N 
BRANCH  20  21
HETATM   21  C   UNK N   1      31.114  20.444  -5.328  0.00  0.00     0.268 C 
HETATM   22  C   UNK N   1      31.317  20.102  -6.791  0.00  0.00     0.037 C 
ENDBRANCH  20  21
BRANCH  20  23
HETATM   23  C   UNK N   1      33.524  20.818  -4.967  0.00  0.00     0.268 C 
HETATM   24  C   UNK N   1      34.152  20.343  -3.662  0.00  0.00     0.037 C 
ENDBRANCH  20  23
ENDBRANCH  19  20
ENDBRANCH  18  19
ENDBRANCH  17  18
ENDBRANCH  15  17
ENDBRANCH  13  15
ENDBRANCH   4  13
TORSDOF 8
ENDMDL
MODEL 2
REMARK VINA RESULT:      -5.6      3.800      5.375
REMARK  8 active torsions:
REMARK  status: ('A' for Active; 'I' for Inactive)
REMARK    1  A    between atoms: N_2  and  C_9 
REMARK    2  A    between atoms: N_2  and  C_11 
REMARK    3  A    between atoms: N_2  and  C_12 
REMARK    4  A    between atoms: N_3  and  C_8 
REMARK    5  A    between atoms: N_3  and  C_13 
REMARK    6  A    between atoms: C_6  and  C_7 
REMARK    7  A    between atoms: C_6  and  C_8 
REMARK    8  A    between atoms: C_7  and  C_9 
ROOT
HETATM    1 Cl   UNK N   1      29.847  29.476  -8.819  0.00  0.00    -0.084 Cl
HETATM    2  N   UNK N   1      26.993  29.388  -4.577  0.00  0.00    -0.365 N 
ATOM      3  HN  UNK N   1      27.438  30.270  -4.324  1.00  0.00     0.165 HD
HETATM    4  C   UNK N   1      25.782  26.991  -5.258  0.00  0.00     0.042 A 
HETATM    5  C   UNK N   1      26.747  27.550  -6.105  0.00  0.00     0.017 A 
HETATM    6  C   UNK N   1      25.430  27.652  -4.079  0.00  0.00     0.047 A 
HETATM    7  C   UNK N   1      27.347  28.775  -5.737  0.00  0.00     0.046 A 
HETATM    8  C   UNK N   1      27.100  26.938  -7.315  0.00  0.00     0.018 A 
HETATM    9  C   UNK N   1      26.057  28.852  -3.746  0.00  0.00     0.090 A 
HETATM   10  C   UNK N   1      28.295  29.363  -6.578  0.00  0.00     0.054 A 
HETATM   11  C   UNK N   1      28.051  27.533  -8.148  0.00  0.00     0.025 A 
HETATM   12  C   UNK N   1      28.648  28.742  -7.779  0.00  0.00     0.036 A 
ENDROOT
BRANCH   4  13
HETATM   13  N   UNK N   1      25.086  25.827  -5.637  0.00  0.00    -0.385 N 
HETATM   14  H   UNK N   1      24.273  25.872  -6.189  0.00  0.00     0.160 HD
BRANCH  13  15
HETATM   15  C   UNK N   1      25.614  24.574  -5.182  0.00  0.00     0.077 C 
HETATM   16  C   UNK N   1      26.500  24.681  -3.952  0.00  0.00     0.032 C 
BRANCH  15  17
HETATM   17  C   UNK N   1      25.972  23.625  -6.323  0.00  0.00     0.026 C 
BRANCH  17  18
HETATM   18  C   UNK N   1      27.447  23.300  -6.442  0.00  0.00     0.032 C 
BRANCH  18  19
HETATM   19  C   UNK N   1      27.750  22.206  -7.475  0.00  0.00     0.272 C 
BRANCH  19  20
HETATM   20  N   UNK N   1      28.736  21.237  -6.977  0.00  0.00     0.087 N 
BRANCH  20  21
HETATM   21  C   UNK N   1      29.857  21.956  -6.357  0.00  0.00     0.268 C 
HETATM   22  C   UNK N   1      30.257  21.303  -5.049  0.00  0.00     0.037 C 
ENDBRANCH  20  21
BRANCH  20  23
HETATM   23  C   UNK N   1      29.122  20.399  -8.123  0.00  0.00     0.268 C 
HETATM   24  C   UNK N   1      29.340  18.922  -7.815  0.00  0.00     0.037 C 
ENDBRANCH  20  23
ENDBRANCH  19  20
ENDBRANCH  18  19
ENDBRANCH  17  18
ENDBRANCH  15  17
ENDBRANCH  13  15
ENDBRANCH   4  13
TORSDOF 8
ENDMDL
MODEL 3
REMARK VINA RESULT:      -5.5     11.529     13.887
REMARK  8 active torsions:
REMARK  status: ('A' for Active; 'I' for Inactive)
REMARK    1  A    between atoms: N_2  and  C_9 
REMARK    2  A    between atoms: N_2  and  C_11 
REMARK    3  A    between atoms: N_2  and  C_12 
REMARK    4  A    between atoms: N_3  and  C_8 
REMARK    5  A    between atoms: N_3  and  C_13 
REMARK    6  A    between atoms: C_6  and  C_7 
REMARK    7  A    between atoms: C_6  and  C_8 
REMARK    8  A    between atoms: C_7  and  C_9 
ROOT
HETATM    1 Cl   UNK N   1      34.090  16.294   6.150  0.00  0.00    -0.084 Cl
HETATM    2  N   UNK N   1      30.614  17.960   9.512  0.00  0.00    -0.365 N 
ATOM      3  HN  UNK N   1      31.346  17.896  10.219  1.00  0.00     0.165 HD
HETATM    4  C   UNK N   1      28.621  18.135   7.596  0.00  0.00     0.042 A 
HETATM    5  C   UNK N   1      29.897  17.685   7.235  0.00  0.00     0.017 A 
HETATM    6  C   UNK N   1      28.364  18.501   8.919  0.00  0.00     0.047 A 
HETATM    7  C   UNK N   1      30.898  17.608   8.230  0.00  0.00     0.046 A 
HETATM    8  C   UNK N   1      30.205  17.344   5.912  0.00  0.00     0.018 A 
HETATM    9  C   UNK N   1      29.376  18.397   9.873  0.00  0.00     0.090 A 
HETATM   10  C   UNK N   1      32.184  17.185   7.888  0.00  0.00     0.054 A 
HETATM   11  C   UNK N   1      31.495  16.919   5.580  0.00  0.00     0.025 A 
HETATM   12  C   UNK N   1      32.481  16.839   6.568  0.00  0.00     0.036 A 
ENDROOT
BRANCH   4  13
HETATM   13  N   UNK N   1      27.626  18.323   6.617  0.00  0.00    -0.385 N 
HETATM   14  H   UNK N   1      26.963  17.624   6.418  0.00  0.00     0.160 HD
BRANCH  13  15
HETATM   15  C   UNK N   1      27.622  19.579   5.925  0.00  0.00     0.077 C 
HETATM   16  C   UNK N   1      26.975  20.715   6.699  0.00  0.00     0.032 C 
BRANCH  15  17
HETATM   17  C   UNK N   1      27.402  19.433   4.421  0.00  0.00     0.026 C 
BRANCH  17  18
HETATM   18  C   UNK N   1      27.353  18.003   3.921  0.00  0.00     0.032 C 
BRANCH  18  19
HETATM   19  C   UNK N   1      25.960  17.571   3.445  0.00  0.00     0.272 C 
BRANCH  19  20
HETATM   20  N   UNK N   1      25.642  16.195   3.852  0.00  0.00     0.087 N 
BRANCH  20  21
HETATM   21  C   UNK N   1      26.294  15.251   2.934  0.00  0.00     0.268 C 
HETATM   22  C   UNK N   1      25.486  15.096   1.660  0.00  0.00     0.037 C 
ENDBRANCH  20  21
BRANCH  20  23
HETATM   23  C   UNK N   1      24.175  16.089   3.877  0.00  0.00     0.268 C 
HETATM   24  C   UNK N   1      23.495  16.642   5.124  0.00  0.00     0.037 C 
ENDBRANCH  20  23
ENDBRANCH  19  20
ENDBRANCH  18  19
ENDBRANCH  17  18
ENDBRANCH  15  17
ENDBRANCH  13  15
ENDBRANCH   4  13
TORSDOF 8
ENDMDL
MODEL 4
REMARK VINA RESULT:      -5.5      3.065      6.398
REMARK  8 active torsions:
REMARK  status: ('A' for Active; 'I' for Inactive)
REMARK    1  A    between atoms: N_2  and  C_9 
REMARK    2  A    between atoms: N_2  and  C_11 
REMARK    3  A    between atoms: N_2  and  C_12 
REMARK    4  A    between atoms: N_3  and  C_8 
REMARK    5  A    between atoms: N_3  and  C_13 
REMARK    6  A    between atoms: C_6  and  C_7 
REMARK    7  A    between atoms: C_6  and  C_8 
REMARK    8  A    between atoms: C_7  and  C_9 
ROOT
HETATM    1 Cl   UNK N   1      30.165  18.991  -8.020  0.00  0.00    -0.084 Cl
HETATM    2  N   UNK N   1      30.820  21.708  -3.737  0.00  0.00    -0.365 N 
ATOM      3  HN  UNK N   1      31.495  20.997  -3.454  1.00  0.00     0.165 HD
HETATM    4  C   UNK N   1      28.987  23.639  -4.501  0.00  0.00     0.042 A 
HETATM    5  C   UNK N   1      29.237  22.546  -5.339  0.00  0.00     0.017 A 
HETATM    6  C   UNK N   1      29.670  23.752  -3.288  0.00  0.00     0.047 A 
HETATM    7  C   UNK N   1      30.179  21.576  -4.929  0.00  0.00     0.046 A 
HETATM    8  C   UNK N   1      28.600  22.415  -6.580  0.00  0.00     0.018 A 
HETATM    9  C   UNK N   1      30.582  22.766  -2.914  0.00  0.00     0.090 A 
HETATM   10  C   UNK N   1      30.463  20.489  -5.760  0.00  0.00     0.054 A 
HETATM   11  C   UNK N   1      28.889  21.323  -7.403  0.00  0.00     0.025 A 
HETATM   12  C   UNK N   1      29.817  20.362  -6.992  0.00  0.00     0.036 A 
ENDROOT
BRANCH   4  13
HETATM   13  N   UNK N   1      28.133  24.679  -4.917  0.00  0.00    -0.385 N 
HETATM   14  H   UNK N   1      28.427  25.353  -5.573  0.00  0.00     0.160 HD
BRANCH  13  15
HETATM   15  C   UNK N   1      26.819  24.713  -4.346  0.00  0.00     0.077 C 
HETATM   16  C   UNK N   1      25.745  24.082  -5.215  0.00  0.00     0.032 C 
BRANCH  15  17
HETATM   17  C   UNK N   1      26.539  25.994  -3.563  0.00  0.00     0.026 C 
BRANCH  17  18
HETATM   18  C   UNK N   1      25.858  27.090  -4.358  0.00  0.00     0.032 C 
BRANCH  18  19
HETATM   19  C   UNK N   1      25.882  28.455  -3.659  0.00  0.00     0.272 C 
BRANCH  19  20
HETATM   20  N   UNK N   1      26.609  29.462  -4.445  0.00  0.00     0.087 N 
BRANCH  20  21
HETATM   21  C   UNK N   1      27.312  28.802  -5.553  0.00  0.00     0.268 C 
HETATM   22  C   UNK N   1      28.304  29.748  -6.201  0.00  0.00     0.037 C 
ENDBRANCH  20  21
BRANCH  20  23
HETATM   23  C   UNK N   1      27.499  30.168  -3.509  0.00  0.00     0.268 C 
HETATM   24  C   UNK N   1      28.209  29.289  -2.485  0.00  0.00     0.037 C 
ENDBRANCH  20  23
ENDBRANCH  19  20
ENDBRANCH  18  19
ENDBRANCH  17  18
ENDBRANCH  15  17
ENDBRANCH  13  15
ENDBRANCH   4  13
TORSDOF 8
ENDMDL
MODEL 5
REMARK VINA RESULT:      -5.4     13.177     16.129
REMARK  8 active torsions:
REMARK  status: ('A' for Active; 'I' for Inactive)
REMARK    1  A    between atoms: N_2  and  C_9 
REMARK    2  A    between atoms: N_2  and  C_11 
REMARK    3  A    between atoms: N_2  and  C_12 
REMARK    4  A    between atoms: N_3  and  C_8 
REMARK    5  A    between atoms: N_3  and  C_13 
REMARK    6  A    between atoms: C_6  and  C_7 
REMARK    7  A    between atoms: C_6  and  C_8 
REMARK    8  A    between atoms: C_7  and  C_9 
ROOT
HETATM    1 Cl   UNK N   1      36.432  14.182  12.252  0.00  0.00    -0.084 Cl
HETATM    2  N   UNK N   1      35.060  17.999   9.137  0.00  0.00    -0.365 N 
ATOM      3  HN  UNK N   1      35.922  18.466   9.418  1.00  0.00     0.165 HD
HETATM    4  C   UNK N   1      32.716  16.736   8.373  0.00  0.00     0.042 A 
HETATM    5  C   UNK N   1      33.569  16.122   9.298  0.00  0.00     0.017 A 
HETATM    6  C   UNK N   1      33.058  17.979   7.834  0.00  0.00     0.047 A 
HETATM    7  C   UNK N   1      34.760  16.785   9.669  0.00  0.00     0.046 A 
HETATM    8  C   UNK N   1      33.280  14.860   9.833  0.00  0.00     0.018 A 
HETATM    9  C   UNK N   1      34.237  18.605   8.238  0.00  0.00     0.090 A 
HETATM   10  C   UNK N   1      35.637  16.181  10.573  0.00  0.00     0.054 A 
HETATM   11  C   UNK N   1      34.162  14.265  10.738  0.00  0.00     0.025 A 
HETATM   12  C   UNK N   1      35.338  14.925  11.108  0.00  0.00     0.036 A 
ENDROOT
BRANCH   4  13
HETATM   13  N   UNK N   1      31.572  16.065   7.899  0.00  0.00    -0.385 N 
HETATM   14  H   UNK N   1      31.387  15.130   8.146  0.00  0.00     0.160 HD
BRANCH  13  15
HETATM   15  C   UNK N   1      30.690  16.803   7.042  0.00  0.00     0.077 C 
HETATM   16  C   UNK N   1      29.503  17.425   7.758  0.00  0.00     0.032 C 
BRANCH  15  17
HETATM   17  C   UNK N   1      30.529  16.171   5.662  0.00  0.00     0.026 C 
BRANCH  17  18
HETATM   18  C   UNK N   1      31.065  17.003   4.514  0.00  0.00     0.032 C 
BRANCH  18  19
HETATM   19  C   UNK N   1      32.596  17.083   4.481  0.00  0.00     0.272 C 
BRANCH  19  20
HETATM   20  N   UNK N   1      33.212  15.756   4.332  0.00  0.00     0.087 N 
BRANCH  20  21
HETATM   21  C   UNK N   1      34.379  15.658   5.220  0.00  0.00     0.268 C 
HETATM   22  C   UNK N   1      34.310  14.396   6.059  0.00  0.00     0.037 C 
ENDBRANCH  20  21
BRANCH  20  23
HETATM   23  C   UNK N   1      33.532  15.596   2.905  0.00  0.00     0.268 C 
HETATM   24  C   UNK N   1      33.756  14.163   2.437  0.00  0.00     0.037 C 
ENDBRANCH  20  23
ENDBRANCH  19  20
ENDBRANCH  18  19
ENDBRANCH  17  18
ENDBRANCH  15  17
ENDBRANCH  13  15
ENDBRANCH   4  13
TORSDOF 8
ENDMDL
MODEL 6
REMARK VINA RESULT:      -5.4     12.964     16.128
REMARK  8 active torsions:
REMARK  status: ('A' for Active; 'I' for Inactive)
REMARK    1  A    between atoms: N_2  and  C_9 
REMARK    2  A    between atoms: N_2  and  C_11 
REMARK    3  A    between atoms: N_2  and  C_12 
REMARK    4  A    between atoms: N_3  and  C_8 
REMARK    5  A    between atoms: N_3  and  C_13 
REMARK    6  A    between atoms: C_6  and  C_7 
REMARK    7  A    between atoms: C_6  and  C_8 
REMARK    8  A    between atoms: C_7  and  C_9 
ROOT
HETATM    1 Cl   UNK N   1      36.133  13.884  12.090  0.00  0.00    -0.084 Cl
HETATM    2  N   UNK N   1      35.027  17.916   9.146  0.00  0.00    -0.365 N 
ATOM      3  HN  UNK N   1      35.860  18.359   9.533  1.00  0.00     0.165 HD
HETATM    4  C   UNK N   1      32.761  16.720   8.094  0.00  0.00     0.042 A 
HETATM    5  C   UNK N   1      33.532  16.038   9.044  0.00  0.00     0.017 A 
HETATM    6  C   UNK N   1      33.146  17.996   7.676  0.00  0.00     0.047 A 
HETATM    7  C   UNK N   1      34.685  16.669   9.563  0.00  0.00     0.046 A 
HETATM    8  C   UNK N   1      33.200  14.743   9.461  0.00  0.00     0.018 A 
HETATM    9  C   UNK N   1      34.283  18.588   8.224  0.00  0.00     0.090 A 
HETATM   10  C   UNK N   1      35.482  15.999  10.495  0.00  0.00     0.054 A 
HETATM   11  C   UNK N   1      34.003  14.082  10.395  0.00  0.00     0.025 A 
HETATM   12  C   UNK N   1      35.140  14.710  10.911  0.00  0.00     0.036 A 
ENDROOT
BRANCH   4  13
HETATM   13  N   UNK N   1      31.664  16.088   7.477  0.00  0.00    -0.385 N 
HETATM   14  H   UNK N   1      31.644  15.113   7.339  0.00  0.00     0.160 HD
BRANCH  13  15
HETATM   15  C   UNK N   1      30.579  16.926   7.057  0.00  0.00     0.077 C 
HETATM   16  C   UNK N   1      29.651  17.353   8.182  0.00  0.00     0.032 C 
BRANCH  15  17
HETATM   17  C   UNK N   1      30.024  16.547   5.687  0.00  0.00     0.026 C 
BRANCH  17  18
HETATM   18  C   UNK N   1      29.591  17.719   4.828  0.00  0.00     0.032 C 
BRANCH  18  19
HETATM   19  C   UNK N   1      28.075  17.784   4.605  0.00  0.00     0.272 C 
BRANCH  19  20
HETATM   20  N   UNK N   1      27.564  19.159   4.694  0.00  0.00     0.087 N 
BRANCH  20  21
HETATM   21  C   UNK N   1      27.295  19.489   6.100  0.00  0.00     0.268 C 
HETATM   22  C   UNK N   1      27.750  20.900   6.417  0.00  0.00     0.037 C 
ENDBRANCH  20  21
BRANCH  20  23
HETATM   23  C   UNK N   1      26.379  19.228   3.825  0.00  0.00     0.268 C 
HETATM   24  C   UNK N   1      26.146  20.565   3.132  0.00  0.00     0.037 C 
ENDBRANCH  20  23
ENDBRANCH  19  20
ENDBRANCH  18  19
ENDBRANCH  17  18
ENDBRANCH  15  17
ENDBRANCH  13  15
ENDBRANCH   4  13
TORSDOF 8
ENDMDL
MODEL 7
REMARK VINA RESULT:      -5.4      3.843      5.517
REMARK  8 active torsions:
REMARK  status: ('A' for Active; 'I' for Inactive)
REMARK    1  A    between atoms: N_2  and  C_9 
REMARK    2  A    between atoms: N_2  and  C_11 
REMARK    3  A    between atoms: N_2  and  C_12 
REMARK    4  A    between atoms: N_3  and  C_8 
REMARK    5  A    between atoms: N_3  and  C_13 
REMARK    6  A    between atoms: C_6  and  C_7 
REMARK    7  A    between atoms: C_6  and  C_8 
REMARK    8  A    between atoms: C_7  and  C_9 
ROOT
HETATM    1 Cl   UNK N   1      29.987  29.482  -8.864  0.00  0.00    -0.084 Cl
HETATM    2  N   UNK N   1      27.137  29.492  -4.619  0.00  0.00    -0.365 N 
ATOM      3  HN  UNK N   1      27.632  30.344  -4.353  1.00  0.00     0.165 HD
HETATM    4  C   UNK N   1      25.790  27.180  -5.333  0.00  0.00     0.042 A 
HETATM    5  C   UNK N   1      26.784  27.695  -6.174  0.00  0.00     0.017 A 
HETATM    6  C   UNK N   1      25.478  27.841  -4.143  0.00  0.00     0.047 A 
HETATM    7  C   UNK N   1      27.454  28.878  -5.789  0.00  0.00     0.046 A 
HETATM    8  C   UNK N   1      27.101  27.083  -7.393  0.00  0.00     0.018 A 
HETATM    9  C   UNK N   1      26.173  28.998  -3.794  0.00  0.00     0.090 A 
HETATM   10  C   UNK N   1      28.433  29.424  -6.622  0.00  0.00     0.054 A 
HETATM   11  C   UNK N   1      28.084  27.635  -8.219  0.00  0.00     0.025 A 
HETATM   12  C   UNK N   1      28.749  28.802  -7.833  0.00  0.00     0.036 A 
ENDROOT
BRANCH   4  13
HETATM   13  N   UNK N   1      25.029  26.063  -5.728  0.00  0.00    -0.385 N 
HETATM   14  H   UNK N   1      24.197  26.165  -6.246  0.00  0.00     0.160 HD
BRANCH  13  15
HETATM   15  C   UNK N   1      25.517  24.771  -5.344  0.00  0.00     0.077 C 
HETATM   16  C   UNK N   1      26.319  24.767  -4.053  0.00  0.00     0.032 C 
BRANCH  15  17
HETATM   17  C   UNK N   1      25.944  23.913  -6.533  0.00  0.00     0.026 C 
BRANCH  17  18
HETATM   18  C   UNK N   1      27.219  23.121  -6.322  0.00  0.00     0.032 C 
BRANCH  18  19
HETATM   19  C   UNK N   1      28.456  23.780  -6.945  0.00  0.00     0.272 C 
BRANCH  19  20
HETATM   20  N   UNK N   1      29.569  23.872  -5.990  0.00  0.00     0.087 N 
BRANCH  20  21
HETATM   21  C   UNK N   1      29.377  22.884  -4.920  0.00  0.00     0.268 C 
HETATM   22  C   UNK N   1      30.475  21.838  -4.951  0.00  0.00     0.037 C 
ENDBRANCH  20  21
BRANCH  20  23
HETATM   23  C   UNK N   1      29.608  25.265  -5.518  0.00  0.00     0.268 C 
HETATM   24  C   UNK N   1      30.754  26.112  -6.060  0.00  0.00     0.037 C 
ENDBRANCH  20  23
ENDBRANCH  19  20
ENDBRANCH  18  19
ENDBRANCH  17  18
ENDBRANCH  15  17
ENDBRANCH  13  15
ENDBRANCH   4  13
TORSDOF 8
ENDMDL
MODEL 8
REMARK VINA RESULT:      -5.4      3.350      4.874
REMARK  8 active torsions:
REMARK  status: ('A' for Active; 'I' for Inactive)
REMARK    1  A    between atoms: N_2  and  C_9 
REMARK    2  A    between atoms: N_2  and  C_11 
REMARK    3  A    between atoms: N_2  and  C_12 
REMARK    4  A    between atoms: N_3  and  C_8 
REMARK    5  A    between atoms: N_3  and  C_13 
REMARK    6  A    between atoms: C_6  and  C_7 
REMARK    7  A    between atoms: C_6  and  C_8 
REMARK    8  A    between atoms: C_7  and  C_9 
ROOT
HETATM    1 Cl   UNK N   1      25.629  25.597  -9.407  0.00  0.00    -0.084 Cl
HETATM    2  N   UNK N   1      25.240  27.575  -4.708  0.00  0.00    -0.365 N 
ATOM      3  HN  UNK N   1      24.284  27.220  -4.696  1.00  0.00     0.165 HD
HETATM    4  C   UNK N   1      27.835  28.544  -4.735  0.00  0.00     0.042 A 
HETATM    5  C   UNK N   1      27.333  27.865  -5.852  0.00  0.00     0.017 A 
HETATM    6  C   UNK N   1      27.026  28.719  -3.610  0.00  0.00     0.047 A 
HETATM    7  C   UNK N   1      26.007  27.378  -5.812  0.00  0.00     0.046 A 
HETATM    8  C   UNK N   1      28.124  27.636  -6.985  0.00  0.00     0.018 A 
HETATM    9  C   UNK N   1      25.719  28.235  -3.617  0.00  0.00     0.090 A 
HETATM   10  C   UNK N   1      25.492  26.678  -6.906  0.00  0.00     0.054 A 
HETATM   11  C   UNK N   1      27.599  26.936  -8.075  0.00  0.00     0.025 A 
HETATM   12  C   UNK N   1      26.286  26.460  -8.035  0.00  0.00     0.036 A 
ENDROOT
BRANCH   4  13
HETATM   13  N   UNK N   1      29.181  28.954  -4.694  0.00  0.00    -0.385 N 
HETATM   14  H   UNK N   1      29.620  29.356  -5.478  0.00  0.00     0.160 HD
BRANCH  13  15
HETATM   15  C   UNK N   1      29.885  28.762  -3.459  0.00  0.00     0.077 C 
HETATM   16  C   UNK N   1      30.636  29.991  -2.972  0.00  0.00     0.032 C 
BRANCH  15  17
HETATM   17  C   UNK N   1      30.496  27.369  -3.328  0.00  0.00     0.026 C 
BRANCH  17  18
HETATM   18  C   UNK N   1      30.930  26.739  -4.637  0.00  0.00     0.032 C 
BRANCH  18  19
HETATM   19  C   UNK N   1      30.200  25.427  -4.954  0.00  0.00     0.272 C 
BRANCH  19  20
HETATM   20  N   UNK N   1      29.738  24.747  -3.735  0.00  0.00     0.087 N 
BRANCH  20  21
HETATM   21  C   UNK N   1      30.785  23.831  -3.261  0.00  0.00     0.268 C 
HETATM   22  C   UNK N   1      30.226  22.860  -2.240  0.00  0.00     0.037 C 
ENDBRANCH  20  21
BRANCH  20  23
HETATM   23  C   UNK N   1      28.471  24.082  -4.077  0.00  0.00     0.268 C 
HETATM   24  C   UNK N   1      27.212  24.738  -3.521  0.00  0.00     0.037 C 
ENDBRANCH  20  23
ENDBRANCH  19  20
ENDBRANCH  18  19
ENDBRANCH  17  18
ENDBRANCH  15  17
ENDBRANCH  13  15
ENDBRANCH   4  13
TORSDOF 8
ENDMDL
MODEL 9
REMARK VINA RESULT:      -5.3     12.849     14.214
REMARK  8 active torsions:
REMARK  status: ('A' for Active; 'I' for Inactive)
REMARK    1  A    between atoms: N_2  and  C_9 
REMARK    2  A    between atoms: N_2  and  C_11 
REMARK    3  A    between atoms: N_2  and  C_12 
REMARK    4  A    between atoms: N_3  and  C_8 
REMARK    5  A    between atoms: N_3  and  C_13 
REMARK    6  A    between atoms: C_6  and  C_7 
REMARK    7  A    between atoms: C_6  and  C_8 
REMARK    8  A    between atoms: C_7  and  C_9 
ROOT
HETATM    1 Cl   UNK N   1      26.294  14.907   4.701  0.00  0.00    -0.084 Cl
HETATM    2  N   UNK N   1      27.792  17.836   8.616  0.00  0.00    -0.365 N 
ATOM      3  HN  UNK N   1      26.806  17.914   8.865  1.00  0.00     0.165 HD
HETATM    4  C   UNK N   1      30.471  17.631   7.944  0.00  0.00     0.042 A 
HETATM    5  C   UNK N   1      29.504  16.993   7.157  0.00  0.00     0.017 A 
HETATM    6  C   UNK N   1      30.078  18.360   9.068  0.00  0.00     0.047 A 
HETATM    7  C   UNK N   1      28.145  17.110   7.523  0.00  0.00     0.046 A 
HETATM    8  C   UNK N   1      29.861  16.222   6.043  0.00  0.00     0.018 A 
HETATM    9  C   UNK N   1      28.724  18.462   9.386  0.00  0.00     0.090 A 
HETATM   10  C   UNK N   1      27.165  16.463   6.767  0.00  0.00     0.054 A 
HETATM   11  C   UNK N   1      28.873  15.580   5.291  0.00  0.00     0.025 A 
HETATM   12  C   UNK N   1      27.528  15.702   5.652  0.00  0.00     0.036 A 
ENDROOT
BRANCH   4  13
HETATM   13  N   UNK N   1      31.842  17.455   7.674  0.00  0.00    -0.385 N 
HETATM   14  H   UNK N   1      32.248  17.788   6.841  0.00  0.00     0.160 HD
BRANCH  13  15
HETATM   15  C   UNK N   1      32.620  16.771   8.665  0.00  0.00     0.077 C 
HETATM   16  C   UNK N   1      34.010  17.350   8.874  0.00  0.00     0.032 C 
BRANCH  15  17
HETATM   17  C   UNK N   1      32.392  15.262   8.669  0.00  0.00     0.026 C 
BRANCH  17  18
HETATM   18  C   UNK N   1      33.432  14.459   7.913  0.00  0.00     0.032 C 
BRANCH  18  19
HETATM   19  C   UNK N   1      32.961  14.005   6.525  0.00  0.00     0.272 C 
BRANCH  19  20
HETATM   20  N   UNK N   1      33.810  14.544   5.453  0.00  0.00     0.087 N 
BRANCH  20  21
HETATM   21  C   UNK N   1      34.964  15.234   6.045  0.00  0.00     0.268 C 
HETATM   22  C   UNK N   1      36.258  14.544   5.660  0.00  0.00     0.037 C 
ENDBRANCH  20  21
BRANCH  20  23
HETATM   23  C   UNK N   1      32.953  15.411   4.630  0.00  0.00     0.268 C 
HETATM   24  C   UNK N   1      33.360  16.879   4.575  0.00  0.00     0.037 C 
ENDBRANCH  20  23
ENDBRANCH  19  20
ENDBRANCH  18  19
ENDBRANCH  17  18
ENDBRANCH  15  17
ENDBRANCH  13  15
ENDBRANCH   4  13
TORSDOF 8
ENDMDL
