MODEL 1
REMARK VINA RESULT:      -4.6      0.000      0.000
REMARK  8 active torsions:
REMARK  status: ('A' for Active; 'I' for Inactive)
REMARK    1  A    between atoms: C_3  and  C_2 
REMARK    2  A    between atoms: C_4  and  C_2 
REMARK    3  A    between atoms: C_6  and  C_3 
REMARK    4  A    between atoms: N_11  and  C_4 
REMARK    5  A    between atoms: N_11  and  C_5 
REMARK    6  A    between atoms: C_7  and  C_6 
REMARK    7  A    between atoms: C_6  and  N_10 
REMARK    8  A    between atoms: O_13  and  C_7 
ROOT
HETATM    1  C   UNK N   1      30.991  17.122   6.448  0.00  0.00     0.022 C 
ENDROOT
BRANCH   1   2
HETATM    2  C   UNK N   1      32.301  16.659   7.090  0.00  0.00     0.037 C 
BRANCH   2   3
HETATM    3  C   UNK N   1      32.900  17.605   8.135  0.00  0.00     0.173 C 
BRANCH   3   4
HETATM    4  C   UNK N   1      34.199  18.158   7.606  0.00  0.00     0.163 C 
HETATM    5  O   UNK N   1      34.593  17.868   6.494  0.00  0.00    -0.648 OA
BRANCH   4   6
HETATM    6  O   UNK N   1      34.927  18.998   8.373  0.00  0.00    -0.775 OA
HETATM    7  H   UNK N   1      34.653  19.884   8.510  0.00  0.00     0.167 HD
ENDBRANCH   4   6
ENDBRANCH   3   4
BRANCH   3   8
HETATM    8  N   UNK N   1      33.139  16.895   9.389  0.00  0.00    -0.418 N 
HETATM    9  H   UNK N   1      32.660  16.021   9.603  0.00  0.00     0.150 HD
HETATM   10  H   UNK N   1      33.797  17.282  10.064  0.00  0.00     0.150 HD
ENDBRANCH   3   8
ENDBRANCH   2   3
ENDBRANCH   1   2
BRANCH   1  11
HETATM   11  C   UNK N   1      29.753  16.694   7.218  0.00  0.00     0.121 C 
BRANCH  11  12
HETATM   12  N   UNK N   1      28.875  17.828   7.391  0.00  0.00    -0.380 N 
HETATM   13  H   UNK N   1      28.438  18.220   6.600  0.00  0.00     0.160 HD
BRANCH  12  14
HETATM   14  C   UNK N   1      28.625  18.390   8.670  0.00  0.00     0.066 C 
HETATM   15  C   UNK N   1      29.759  18.642   9.600  0.00  0.00     0.088 C 
HETATM   16  N   UNK N   1      27.437  18.729   9.014  0.00  0.00    -0.389 N 
HETATM   17  H   UNK N   1      27.291  19.292   9.809  0.00  0.00     0.157 HD
ATOM     18  HN  UNK N   1      26.638  18.413   8.463  1.00  0.00     0.157 HD
ENDBRANCH  12  14
ENDBRANCH  11  12
ENDBRANCH   1  11
TORSDOF 8
ENDMDL
MODEL 2
REMARK VINA RESULT:      -4.5      2.768      3.408
REMARK  8 active torsions:
REMARK  status: ('A' for Active; 'I' for Inactive)
REMARK    1  A    between atoms: C_3  and  C_2 
REMARK    2  A    between atoms: C_4  and  C_2 
REMARK    3  A    between atoms: C_6  and  C_3 
REMARK    4  A    between atoms: N_11  and  C_4 
REMARK    5  A    between atoms: N_11  and  C_5 
REMARK    6  A    between atoms: C_7  and  C_6 
REMARK    7  A    between atoms: C_6  and  N_10 
REMARK    8  A    between atoms: O_13  and  C_7 
ROOT
HETATM    1  C   UNK N   1      32.531  15.301   8.255  0.00  0.00     0.022 C 
ENDROOT
BRANCH   1   2
HETATM    2  C   UNK N   1      33.938  15.888   8.384  0.00  0.00     0.037 C 
BRANCH   2   3
HETATM    3  C   UNK N   1      34.032  17.245   9.087  0.00  0.00     0.173 C 
BRANCH   3   4
HETATM    4  C   UNK N   1      34.619  18.251   8.130  0.00  0.00     0.163 C 
HETATM    5  O   UNK N   1      35.263  19.197   8.536  0.00  0.00    -0.648 OA
BRANCH   4   6
HETATM    6  O   UNK N   1      34.435  18.092   6.801  0.00  0.00    -0.775 OA
HETATM    7  H   UNK N   1      33.630  17.752   6.464  0.00  0.00     0.167 HD
ENDBRANCH   4   6
ENDBRANCH   3   4
BRANCH   3   8
HETATM    8  N   UNK N   1      34.871  17.147  10.278  0.00  0.00    -0.418 N 
HETATM    9  H   UNK N   1      35.305  17.972  10.690  0.00  0.00     0.150 HD
HETATM   10  H   UNK N   1      35.027  16.234  10.706  0.00  0.00     0.150 HD
ENDBRANCH   3   8
ENDBRANCH   2   3
ENDBRANCH   1   2
BRANCH   1  11
HETATM   11  C   UNK N   1      31.962  15.390   6.849  0.00  0.00     0.121 C 
BRANCH  11  12
HETATM   12  N   UNK N   1      31.541  16.745   6.581  0.00  0.00    -0.380 N 
HETATM   13  H   UNK N   1      31.316  17.335   7.338  0.00  0.00     0.160 HD
BRANCH  12  14
HETATM   14  C   UNK N   1      31.442  17.249   5.258  0.00  0.00     0.066 C 
HETATM   15  C   UNK N   1      30.105  17.569   4.687  0.00  0.00     0.088 C 
HETATM   16  N   UNK N   1      32.497  17.475   4.565  0.00  0.00    -0.389 N 
HETATM   17  H   UNK N   1      32.442  18.002   3.735  0.00  0.00     0.157 HD
ATOM     18  HN  UNK N   1      33.397  17.109   4.874  1.00  0.00     0.157 HD
ENDBRANCH  12  14
ENDBRANCH  11  12
ENDBRANCH   1  11
TORSDOF 8
ENDMDL
MODEL 3
REMARK VINA RESULT:      -4.5      2.850      5.054
REMARK  8 active torsions:
REMARK  status: ('A' for Active; 'I' for Inactive)
REMARK    1  A    between atoms: C_3  and  C_2 
REMARK    2  A    between atoms: C_4  and  C_2 
REMARK    3  A    between atoms: C_6  and  C_3 
REMARK    4  A    between atoms: N_11  and  C_4 
REMARK    5  A    between atoms: N_11  and  C_5 
REMARK    6  A    between atoms: C_7  and  C_6 
REMARK    7  A    between atoms: C_6  and  N_10 
REMARK    8  A    between atoms: O_13  and  C_7 
ROOT
HETATM    1  C   UNK N   1      30.847  17.161   6.919  0.00  0.00     0.022 C 
ENDROOT
BRANCH   1   2
HETATM    2  C   UNK N   1      29.344  17.299   7.169  0.00  0.00     0.037 C 
BRANCH   2   3
HETATM    3  C   UNK N   1      28.915  18.516   7.994  0.00  0.00     0.173 C 
BRANCH   3   4
HETATM    4  C   UNK N   1      28.743  18.095   9.431  0.00  0.00     0.163 C 
HETATM    5  O   UNK N   1      27.814  17.388   9.767  0.00  0.00    -0.648 OA
BRANCH   4   6
HETATM    6  O   UNK N   1      29.641  18.499  10.356  0.00  0.00    -0.775 OA
HETATM    7  H   UNK N   1      30.539  18.635  10.126  0.00  0.00     0.167 HD
ENDBRANCH   4   6
ENDBRANCH   3   4
BRANCH   3   8
HETATM    8  N   UNK N   1      27.661  19.063   7.484  0.00  0.00    -0.418 N 
HETATM    9  H   UNK N   1      27.012  18.488   6.948  0.00  0.00     0.150 HD
HETATM   10  H   UNK N   1      27.431  20.039   7.668  0.00  0.00     0.150 HD
ENDBRANCH   3   8
ENDBRANCH   2   3
ENDBRANCH   1   2
BRANCH   1  11
HETATM   11  C   UNK N   1      31.578  16.396   8.010  0.00  0.00     0.121 C 
BRANCH  11  12
HETATM   12  N   UNK N   1      32.240  17.327   8.893  0.00  0.00    -0.380 N 
HETATM   13  H   UNK N   1      31.697  17.889   9.493  0.00  0.00     0.160 HD
BRANCH  12  14
HETATM   14  C   UNK N   1      33.654  17.454   8.919  0.00  0.00     0.066 C 
HETATM   15  C   UNK N   1      34.353  18.161   7.811  0.00  0.00     0.088 C 
HETATM   16  N   UNK N   1      34.332  17.007   9.911  0.00  0.00    -0.389 N 
HETATM   17  H   UNK N   1      35.276  17.264  10.025  0.00  0.00     0.157 HD
ATOM     18  HN  UNK N   1      33.893  16.381  10.587  1.00  0.00     0.157 HD
ENDBRANCH  12  14
ENDBRANCH  11  12
ENDBRANCH   1  11
TORSDOF 8
ENDMDL
MODEL 4
REMARK VINA RESULT:      -4.4      6.082      7.935
REMARK  8 active torsions:
REMARK  status: ('A' for Active; 'I' for Inactive)
REMARK    1  A    between atoms: C_3  and  C_2 
REMARK    2  A    between atoms: C_4  and  C_2 
REMARK    3  A    between atoms: C_6  and  C_3 
REMARK    4  A    between atoms: N_11  and  C_4 
REMARK    5  A    between atoms: N_11  and  C_5 
REMARK    6  A    between atoms: C_7  and  C_6 
REMARK    7  A    between atoms: C_6  and  N_10 
REMARK    8  A    between atoms: O_13  and  C_7 
ROOT
HETATM    1  C   UNK N   1      35.260  13.149  12.034  0.00  0.00     0.022 C 
ENDROOT
BRANCH   1   2
HETATM    2  C   UNK N   1      35.559  13.682  10.632  0.00  0.00     0.037 C 
BRANCH   2   3
HETATM    3  C   UNK N   1      34.791  14.940  10.220  0.00  0.00     0.173 C 
BRANCH   3   4
HETATM    4  C   UNK N   1      35.574  16.154  10.651  0.00  0.00     0.163 C 
HETATM    5  O   UNK N   1      36.767  16.082  10.868  0.00  0.00    -0.648 OA
BRANCH   4   6
HETATM    6  O   UNK N   1      34.943  17.341  10.786  0.00  0.00    -0.775 OA
HETATM    7  H   UNK N   1      35.251  18.103  10.337  0.00  0.00     0.167 HD
ENDBRANCH   4   6
ENDBRANCH   3   4
BRANCH   3   8
HETATM    8  N   UNK N   1      33.469  14.958  10.840  0.00  0.00    -0.418 N 
HETATM    9  H   UNK N   1      32.979  14.094  11.070  0.00  0.00     0.150 HD
HETATM   10  H   UNK N   1      33.026  15.853  11.047  0.00  0.00     0.150 HD
ENDBRANCH   3   8
ENDBRANCH   2   3
ENDBRANCH   1   2
BRANCH   1  11
HETATM   11  C   UNK N   1      36.491  13.036  12.918  0.00  0.00     0.121 C 
BRANCH  11  12
HETATM   12  N   UNK N   1      36.742  14.304  13.563  0.00  0.00    -0.380 N 
HETATM   13  H   UNK N   1      36.880  15.105  13.007  0.00  0.00     0.160 HD
BRANCH  12  14
HETATM   14  C   UNK N   1      36.793  14.424  14.976  0.00  0.00     0.066 C 
HETATM   15  C   UNK N   1      36.126  13.403  15.830  0.00  0.00     0.088 C 
HETATM   16  N   UNK N   1      37.450  15.378  15.527  0.00  0.00    -0.389 N 
HETATM   17  H   UNK N   1      37.650  15.352  16.491  0.00  0.00     0.157 HD
ATOM     18  HN  UNK N   1      37.767  16.168  14.965  1.00  0.00     0.157 HD
ENDBRANCH  12  14
ENDBRANCH  11  12
ENDBRANCH   1  11
TORSDOF 8
ENDMDL
MODEL 5
REMARK VINA RESULT:      -4.4      4.295      5.751
REMARK  8 active torsions:
REMARK  status: ('A' for Active; 'I' for Inactive)
REMARK    1  A    between atoms: C_3  and  C_2 
REMARK    2  A    between atoms: C_4  and  C_2 
REMARK    3  A    between atoms: C_6  and  C_3 
REMARK    4  A    between atoms: N_11  and  C_4 
REMARK    5  A    between atoms: N_11  and  C_5 
REMARK    6  A    between atoms: C_7  and  C_6 
REMARK    7  A    between atoms: C_6  and  N_10 
REMARK    8  A    between atoms: O_13  and  C_7 
ROOT
HETATM    1  C   UNK N   1      33.612  14.656   8.913  0.00  0.00     0.022 C 
ENDROOT
BRANCH   1   2
HETATM    2  C   UNK N   1      34.526  15.799   8.466  0.00  0.00     0.037 C 
BRANCH   2   3
HETATM    3  C   UNK N   1      34.271  17.154   9.132  0.00  0.00     0.173 C 
BRANCH   3   4
HETATM    4  C   UNK N   1      34.684  18.250   8.183  0.00  0.00     0.163 C 
HETATM    5  O   UNK N   1      35.295  19.222   8.580  0.00  0.00    -0.648 OA
BRANCH   4   6
HETATM    6  O   UNK N   1      34.381  18.143   6.870  0.00  0.00    -0.775 OA
HETATM    7  H   UNK N   1      33.904  18.819   6.431  0.00  0.00     0.167 HD
ENDBRANCH   4   6
ENDBRANCH   3   4
BRANCH   3   8
HETATM    8  N   UNK N   1      35.029  17.264  10.375  0.00  0.00    -0.418 N 
HETATM    9  H   UNK N   1      34.956  18.088  10.970  0.00  0.00     0.150 HD
HETATM   10  H   UNK N   1      35.644  16.500  10.654  0.00  0.00     0.150 HD
ENDBRANCH   3   8
ENDBRANCH   2   3
ENDBRANCH   1   2
BRANCH   1  11
HETATM   11  C   UNK N   1      34.337  13.559   9.673  0.00  0.00     0.121 C 
BRANCH  11  12
HETATM   12  N   UNK N   1      34.281  13.833  11.090  0.00  0.00    -0.380 N 
HETATM   13  H   UNK N   1      33.408  14.020  11.507  0.00  0.00     0.160 HD
BRANCH  12  14
HETATM   14  C   UNK N   1      35.449  13.840  11.896  0.00  0.00     0.066 C 
HETATM   15  C   UNK N   1      36.790  13.906  11.253  0.00  0.00     0.088 C 
HETATM   16  N   UNK N   1      35.360  13.839  13.176  0.00  0.00    -0.389 N 
HETATM   17  H   UNK N   1      36.150  14.041  13.728  0.00  0.00     0.157 HD
ATOM     18  HN  UNK N   1      34.469  13.628  13.623  1.00  0.00     0.157 HD
ENDBRANCH  12  14
ENDBRANCH  11  12
ENDBRANCH   1  11
TORSDOF 8
ENDMDL
MODEL 6
REMARK VINA RESULT:      -4.4      9.568     11.398
REMARK  8 active torsions:
REMARK  status: ('A' for Active; 'I' for Inactive)
REMARK    1  A    between atoms: C_3  and  C_2 
REMARK    2  A    between atoms: C_4  and  C_2 
REMARK    3  A    between atoms: C_6  and  C_3 
REMARK    4  A    between atoms: N_11  and  C_4 
REMARK    5  A    between atoms: N_11  and  C_5 
REMARK    6  A    between atoms: C_7  and  C_6 
REMARK    7  A    between atoms: C_6  and  N_10 
REMARK    8  A    between atoms: O_13  and  C_7 
ROOT
HETATM    1  C   UNK N   1      22.464  18.857   3.834  0.00  0.00     0.022 C 
ENDROOT
BRANCH   1   2
HETATM    2  C   UNK N   1      21.162  19.591   3.509  0.00  0.00     0.037 C 
BRANCH   2   3
HETATM    3  C   UNK N   1      20.564  19.308   2.128  0.00  0.00     0.173 C 
BRANCH   3   4
HETATM    4  C   UNK N   1      20.821  20.494   1.232  0.00  0.00     0.163 C 
HETATM    5  O   UNK N   1      21.249  21.536   1.685  0.00  0.00    -0.648 OA
BRANCH   4   6
HETATM    6  O   UNK N   1      20.584  20.390  -0.094  0.00  0.00    -0.775 OA
HETATM    7  H   UNK N   1      19.722  20.215  -0.416  0.00  0.00     0.167 HD
ENDBRANCH   4   6
ENDBRANCH   3   4
BRANCH   3   8
HETATM    8  N   UNK N   1      19.127  19.068   2.232  0.00  0.00    -0.418 N 
HETATM    9  H   UNK N   1      18.588  19.415   3.024  0.00  0.00     0.150 HD
HETATM   10  H   UNK N   1      18.654  18.543   1.497  0.00  0.00     0.150 HD
ENDBRANCH   3   8
ENDBRANCH   2   3
ENDBRANCH   1   2
BRANCH   1  11
HETATM   11  C   UNK N   1      23.712  19.656   3.496  0.00  0.00     0.121 C 
BRANCH  11  12
HETATM   12  N   UNK N   1      24.884  18.923   3.916  0.00  0.00    -0.380 N 
HETATM   13  H   UNK N   1      24.945  17.961   3.714  0.00  0.00     0.160 HD
BRANCH  12  14
HETATM   14  C   UNK N   1      25.948  19.554   4.612  0.00  0.00     0.066 C 
HETATM   15  C   UNK N   1      27.136  20.043   3.858  0.00  0.00     0.088 C 
HETATM   16  N   UNK N   1      25.877  19.749   5.877  0.00  0.00    -0.389 N 
HETATM   17  H   UNK N   1      26.514  20.353   6.323  0.00  0.00     0.157 HD
ATOM     18  HN  UNK N   1      25.157  19.277   6.425  1.00  0.00     0.157 HD
ENDBRANCH  12  14
ENDBRANCH  11  12
ENDBRANCH   1  11
TORSDOF 8
ENDMDL
MODEL 7
REMARK VINA RESULT:      -4.3      2.948      3.297
REMARK  8 active torsions:
REMARK  status: ('A' for Active; 'I' for Inactive)
REMARK    1  A    between atoms: C_3  and  C_2 
REMARK    2  A    between atoms: C_4  and  C_2 
REMARK    3  A    between atoms: C_6  and  C_3 
REMARK    4  A    between atoms: N_11  and  C_4 
REMARK    5  A    between atoms: N_11  and  C_5 
REMARK    6  A    between atoms: C_7  and  C_6 
REMARK    7  A    between atoms: C_6  and  N_10 
REMARK    8  A    between atoms: O_13  and  C_7 
ROOT
HETATM    1  C   UNK N   1      32.779  17.684   8.257  0.00  0.00     0.022 C 
ENDROOT
BRANCH   1   2
HETATM    2  C   UNK N   1      33.375  16.277   8.330  0.00  0.00     0.037 C 
BRANCH   2   3
HETATM    3  C   UNK N   1      34.304  16.008   9.517  0.00  0.00     0.173 C 
BRANCH   3   4
HETATM    4  C   UNK N   1      33.555  15.209  10.553  0.00  0.00     0.163 C 
HETATM    5  O   UNK N   1      34.139  14.686  11.480  0.00  0.00    -0.648 OA
BRANCH   4   6
HETATM    6  O   UNK N   1      32.213  15.084  10.454  0.00  0.00    -0.775 OA
HETATM    7  H   UNK N   1      31.733  14.564  11.068  0.00  0.00     0.167 HD
ENDBRANCH   4   6
ENDBRANCH   3   4
BRANCH   3   8
HETATM    8  N   UNK N   1      34.767  17.264  10.099  0.00  0.00    -0.418 N 
HETATM    9  H   UNK N   1      34.395  18.161   9.788  0.00  0.00     0.150 HD
HETATM   10  H   UNK N   1      35.476  17.244  10.832  0.00  0.00     0.150 HD
ENDBRANCH   3   8
ENDBRANCH   2   3
ENDBRANCH   1   2
BRANCH   1  11
HETATM   11  C   UNK N   1      31.260  17.698   8.197  0.00  0.00     0.121 C 
BRANCH  11  12
HETATM   12  N   UNK N   1      30.725  17.927   9.518  0.00  0.00    -0.380 N 
HETATM   13  H   UNK N   1      31.236  18.480  10.153  0.00  0.00     0.160 HD
BRANCH  12  14
HETATM   14  C   UNK N   1      29.482  17.375   9.926  0.00  0.00     0.066 C 
HETATM   15  C   UNK N   1      28.230  17.783   9.233  0.00  0.00     0.088 C 
HETATM   16  N   UNK N   1      29.433  16.491  10.854  0.00  0.00    -0.389 N 
HETATM   17  H   UNK N   1      28.610  15.970  11.000  0.00  0.00     0.157 HD
ATOM     18  HN  UNK N   1      30.248  16.327  11.444  1.00  0.00     0.157 HD
ENDBRANCH  12  14
ENDBRANCH  11  12
ENDBRANCH   1  11
TORSDOF 8
ENDMDL
MODEL 8
REMARK VINA RESULT:      -4.3      1.264      1.798
REMARK  8 active torsions:
REMARK  status: ('A' for Active; 'I' for Inactive)
REMARK    1  A    between atoms: C_3  and  C_2 
REMARK    2  A    between atoms: C_4  and  C_2 
REMARK    3  A    between atoms: C_6  and  C_3 
REMARK    4  A    between atoms: N_11  and  C_4 
REMARK    5  A    between atoms: N_11  and  C_5 
REMARK    6  A    between atoms: C_7  and  C_6 
REMARK    7  A    between atoms: C_6  and  N_10 
REMARK    8  A    between atoms: O_13  and  C_7 
ROOT
HETATM    1  C   UNK N   1      31.452  16.711   8.730  0.00  0.00     0.022 C 
ENDROOT
BRANCH   1   2
HETATM    2  C   UNK N   1      32.865  16.486   8.190  0.00  0.00     0.037 C 
BRANCH   2   3
HETATM    3  C   UNK N   1      33.986  17.220   8.932  0.00  0.00     0.173 C 
BRANCH   3   4
HETATM    4  C   UNK N   1      34.560  18.279   8.026  0.00  0.00     0.163 C 
HETATM    5  O   UNK N   1      35.186  19.216   8.479  0.00  0.00    -0.648 OA
BRANCH   4   6
HETATM    6  O   UNK N   1      34.386  18.178   6.689  0.00  0.00    -0.775 OA
HETATM    7  H   UNK N   1      33.684  18.627   6.261  0.00  0.00     0.167 HD
ENDBRANCH   4   6
ENDBRANCH   3   4
BRANCH   3   8
HETATM    8  N   UNK N   1      35.035  16.285   9.327  0.00  0.00    -0.418 N 
HETATM    9  H   UNK N   1      35.341  16.210  10.297  0.00  0.00     0.150 HD
HETATM   10  H   UNK N   1      35.471  15.695   8.619  0.00  0.00     0.150 HD
ENDBRANCH   3   8
ENDBRANCH   2   3
ENDBRANCH   1   2
BRANCH   1  11
HETATM   11  C   UNK N   1      30.473  17.213   7.681  0.00  0.00     0.121 C 
BRANCH  11  12
HETATM   12  N   UNK N   1      29.149  17.289   8.251  0.00  0.00    -0.380 N 
HETATM   13  H   UNK N   1      28.864  16.598   8.894  0.00  0.00     0.160 HD
BRANCH  12  14
HETATM   14  C   UNK N   1      28.248  18.331   7.910  0.00  0.00     0.066 C 
HETATM   15  C   UNK N   1      28.074  18.720   6.483  0.00  0.00     0.088 C 
HETATM   16  N   UNK N   1      27.545  18.909   8.813  0.00  0.00    -0.389 N 
HETATM   17  H   UNK N   1      26.787  19.485   8.561  0.00  0.00     0.157 HD
ATOM     18  HN  UNK N   1      27.771  18.772   9.799  1.00  0.00     0.157 HD
ENDBRANCH  12  14
ENDBRANCH  11  12
ENDBRANCH   1  11
TORSDOF 8
ENDMDL
MODEL 9
REMARK VINA RESULT:      -4.1      9.594     11.505
REMARK  8 active torsions:
REMARK  status: ('A' for Active; 'I' for Inactive)
REMARK    1  A    between atoms: C_3  and  C_2 
REMARK    2  A    between atoms: C_4  and  C_2 
REMARK    3  A    between atoms: C_6  and  C_3 
REMARK    4  A    between atoms: N_11  and  C_4 
REMARK    5  A    between atoms: N_11  and  C_5 
REMARK    6  A    between atoms: C_7  and  C_6 
REMARK    7  A    between atoms: C_6  and  N_10 
REMARK    8  A    between atoms: O_13  and  C_7 
ROOT
HETATM    1  C   UNK N   1      22.474  18.996   3.852  0.00  0.00     0.022 C 
ENDROOT
BRANCH   1   2
HETATM    2  C   UNK N   1      21.025  19.441   3.641  0.00  0.00     0.037 C 
BRANCH   2   3
HETATM    3  C   UNK N   1      20.409  19.082   2.286  0.00  0.00     0.173 C 
BRANCH   3   4
HETATM    4  C   UNK N   1      20.692  20.196   1.311  0.00  0.00     0.163 C 
HETATM    5  O   UNK N   1      20.941  21.319   1.701  0.00  0.00    -0.648 OA
BRANCH   4   6
HETATM    6  O   UNK N   1      20.682  19.939  -0.016  0.00  0.00    -0.775 OA
HETATM    7  H   UNK N   1      20.999  19.122  -0.349  0.00  0.00     0.167 HD
ENDBRANCH   4   6
ENDBRANCH   3   4
BRANCH   3   8
HETATM    8  N   UNK N   1      18.967  18.892   2.414  0.00  0.00    -0.418 N 
HETATM    9  H   UNK N   1      18.444  18.334   1.740  0.00  0.00     0.150 HD
HETATM   10  H   UNK N   1      18.473  19.326   3.194  0.00  0.00     0.150 HD
ENDBRANCH   3   8
ENDBRANCH   2   3
ENDBRANCH   1   2
BRANCH   1  11
HETATM   11  C   UNK N   1      22.637  17.959   4.950  0.00  0.00     0.121 C 
BRANCH  11  12
HETATM   12  N   UNK N   1      24.016  17.920   5.377  0.00  0.00    -0.380 N 
HETATM   13  H   UNK N   1      24.416  18.725   5.780  0.00  0.00     0.160 HD
BRANCH  12  14
HETATM   14  C   UNK N   1      24.810  16.752   5.232  0.00  0.00     0.066 C 
HETATM   15  C   UNK N   1      25.376  16.405   3.900  0.00  0.00     0.088 C 
HETATM   16  N   UNK N   1      25.084  16.017   6.247  0.00  0.00    -0.389 N 
HETATM   17  H   UNK N   1      25.785  15.329   6.187  0.00  0.00     0.157 HD
ATOM     18  HN  UNK N   1      24.573  16.146   7.121  1.00  0.00     0.157 HD
ENDBRANCH  12  14
ENDBRANCH  11  12
ENDBRANCH   1  11
TORSDOF 8
ENDMDL
