REMARK  14 active torsions:
REMARK  status: ('A' for Active; 'I' for Inactive)
REMARK    1  A    between atoms: C_3  and  N_1 
REMARK    2  A    between atoms: C_12  and  N_18 
REMARK    3  A    between atoms: C_14  and  C_19 
REMARK    4  A    between atoms: C_15  and  O_20 
REMARK    5  A    between atoms: C_19  and  O_21 
REMARK    6  A    between atoms: O_21  and  P_22 
REMARK    7  A    between atoms: P_22  and  O_23 
REMARK    8  A    between atoms: P_22  and  O_24 
REMARK    9  A    between atoms: O_23  and  P_26 
REMARK   10  A    between atoms: P_26  and  O_27 
REMARK   11  A    between atoms: P_26  and  O_28 
REMARK   12  A    between atoms: O_27  and  P_30 
REMARK   13  A    between atoms: P_30  and  O_31 
REMARK   14  A    between atoms: P_30  and  O_32 
ROOT
HETATM    1  C   UNK N   1       1.971   0.506   1.472  0.00  0.00     0.233 C 
HETATM    2  O   UNK N   1       0.988   0.714   0.481  0.00  0.00    -0.356 OA
HETATM    3  C   UNK N   1       1.945  -0.957   1.884  0.00  0.00     0.088 C 
HETATM    4  C   UNK N   1       0.492  -0.563   0.149  0.00  0.00     0.177 C 
HETATM    5  C   UNK N   1       1.456  -1.601   0.637  0.00  0.00     0.153 C 
ENDROOT
BRANCH   4   6
HETATM    6  C   UNK N   1       0.232  -0.711  -1.350  0.00  0.00     0.215 C 
BRANCH   6   7
HETATM    7  O   UNK N   1      -0.714   0.251  -1.735  0.00  0.00    -0.294 OA
BRANCH   7   8
HETATM    8  P   UNK N   1      -2.361  -0.393  -1.861  0.00  0.00     0.401 P 
HETATM    9  O   UNK N   1      -2.668   1.129  -1.839  0.00  0.00    -0.631 OA
BRANCH   8  10
HETATM   10  O   UNK N   1      -3.089   0.038  -0.317  0.00  0.00    -0.195 OA
BRANCH  10  11
HETATM   11  P   UNK N   1      -4.840  -0.068  -0.415  0.00  0.00     0.410 P 
HETATM   12  O   UNK N   1      -4.559   1.371   0.100  0.00  0.00    -0.631 OA
BRANCH  11  13
HETATM   13  O   UNK N   1      -5.761   0.050   1.094  0.00  0.00    -0.195 OA
BRANCH  13  14
HETATM   14  P   UNK N   1      -7.532   0.088   0.887  0.00  0.00     0.399 P 
HETATM   15  O   UNK N   1      -7.206   1.346   0.037  0.00  0.00    -0.631 OA
BRANCH  14  16
HETATM   16  O   UNK N   1      -7.139  -1.494   0.279  0.00  0.00    -0.307 OA
HETATM   17  H   UNK N   1      -7.794  -2.124  -0.061  0.00  0.00     0.222 HD
ENDBRANCH  14  16
BRANCH  14  18
HETATM   18  O   UNK N   1      -8.103  -0.215  -0.723  0.00  0.00    -0.307 OA
HETATM   19  H   UNK N   1      -8.409  -0.023  -1.623  0.00  0.00     0.222 HD
ENDBRANCH  14  18
ENDBRANCH  13  14
ENDBRANCH  11  13
BRANCH  11  20
HETATM   20  O   UNK N   1      -4.318  -1.262   0.734  0.00  0.00    -0.307 OA
HETATM   21  H   UNK N   1      -4.750  -1.848   1.376  0.00  0.00     0.222 HD
ENDBRANCH  11  20
ENDBRANCH  10  11
ENDBRANCH   8  10
BRANCH   8  22
HETATM   22  O   UNK N   1      -2.042  -1.371  -0.456  0.00  0.00    -0.307 OA
HETATM   23  H   UNK N   1      -2.426  -1.797   0.327  0.00  0.00     0.222 HD
ENDBRANCH   8  22
ENDBRANCH   7   8
ENDBRANCH   6   7
ENDBRANCH   4   6
BRANCH   5  24
HETATM   24  O   UNK N   1       0.794  -2.794   0.923  0.00  0.00    -0.393 OA
HETATM   25  H   UNK N   1      -0.155  -2.810   1.122  0.00  0.00     0.210 HD
ENDBRANCH   5  24
BRANCH   1  26
HETATM   26  N   UNK N   1       3.270   0.944   0.957  0.00  0.00    -0.300 N 
HETATM   27  C   UNK N   1       4.302   0.230   0.479  0.00  0.00     0.142 A 
HETATM   28  C   UNK N   1       5.285   1.068   0.099  0.00  0.00     0.122 A 
HETATM   29  N   UNK N   1       4.404  -1.114   0.348  0.00  0.00    -0.336 N 
HETATM   30  C   UNK N   1       6.457   0.566  -0.441  0.00  0.00     0.131 A 
HETATM   31  N   UNK N   1       4.914   2.342   0.322  0.00  0.00    -0.346 N 
HETATM   32  N   UNK N   1       6.571  -0.789  -0.578  0.00  0.00    -0.337 N 
HETATM   33  C   UNK N   1       5.554  -1.626  -0.189  0.00  0.00     0.183 A 
ATOM     34  HN  UNK N   1       7.424  -1.184  -0.974  1.00  0.00     0.168 HD
HETATM   35  C   UNK N   1       3.660   2.240   0.847  0.00  0.00     0.188 A 
ATOM     36  HN  UNK N   1       5.449   3.191   0.140  1.00  0.00     0.167 HD
ATOM     37  HN  UNK N   1       3.644  -1.729   0.641  1.00  0.00     0.168 HD
BRANCH  30  38
HETATM   38  N   UNK N   1       7.503   1.420  -0.845  0.00  0.00    -0.383 N 
HETATM   39  H   UNK N   1       8.385   1.085  -1.127  0.00  0.00     0.157 HD
HETATM   40  H   UNK N   1       7.345   2.392  -0.845  0.00  0.00     0.157 HD
ENDBRANCH  30  38
ENDBRANCH   1  26
TORSDOF 14
