REMARK WARNING: 32 MAX_TORS EXCEEDED!!!
REMARK  40 active torsions:
REMARK  status: ('A' for Active; 'I' for Inactive)
REMARK    1  A    between atoms: C_5  and  C_4 
REMARK    2  A    between atoms: C_6  and  C_5 
REMARK    3  A    between atoms: C_7  and  C_6 
REMARK    4  A    between atoms: C_8  and  C_7 
REMARK    5  A    between atoms: C_9  and  C_8 
REMARK    6  A    between atoms: C_19  and  C_9 
REMARK    7  A    between atoms: C_11  and  C_10 
REMARK    8  A    between atoms: C_21  and  C_10 
REMARK    9  A    between atoms: N_35  and  C_11 
REMARK   10  A    between atoms: C_13  and  C_12 
REMARK   11  A    between atoms: N_33  and  C_12 
REMARK   12  A    between atoms: S_65  and  C_13 
REMARK   13  A    between atoms: C_19  and  C_14 
REMARK   14  A    between atoms: C_22  and  C_14 
REMARK   15  A    between atoms: C_20  and  C_15 
REMARK   16  A    between atoms: O_57  and  C_15 
REMARK   17  A    between atoms: C_31  and  C_16 
REMARK   18  A    between atoms: O_58  and  C_16 
REMARK   19  A    between atoms: C_19  and  O_44 
REMARK   20  A    between atoms: N_33  and  C_21 
REMARK   21  A    between atoms: O_45  and  C_21 
REMARK   22  A    between atoms: S_65  and  C_22 
REMARK   23  A    between atoms: C_24  and  O_47 
REMARK   24  A    between atoms: C_25  and  O_60 
REMARK   25  A    between atoms: C_29  and  C_26 
REMARK   26  A    between atoms: C_31  and  C_26 
REMARK   27  A    between atoms: C_26  and  O_48 
REMARK   28  A    between atoms: N_32  and  C_27 
REMARK   29  A    between atoms: N_35  and  C_29 
REMARK   30  A    between atoms: O_49  and  C_29 
REMARK   31  A    between atoms: C_30  and  N_43 
REMARK   32  A    between atoms: P_62  and  O_50 
REMARK   33  A    between atoms: P_62  and  O_51 
REMARK   34  A    between atoms: P_63  and  O_53 
REMARK   35  A    between atoms: P_64  and  O_55 
REMARK   36  A    between atoms: P_63  and  O_57 
REMARK   37  A    between atoms: P_64  and  O_58 
REMARK   38  A    between atoms: P_62  and  O_60 
REMARK   39  A    between atoms: P_63  and  O_61 
REMARK   40  A    between atoms: P_64  and  O_61 
ROOT
HETATM    1  O   UNK N   1      11.067  22.390  -1.652  0.00  0.00    -0.631 OA
HETATM    2  P   UNK N   1      11.138  22.345  -0.099  0.00  0.00     0.401 P 
ENDROOT
BRANCH   2   3
HETATM    3  O   UNK N   1      12.742  22.364  -0.747  0.00  0.00    -0.307 OA
HETATM    4  H   UNK N   1      13.201  21.591  -1.110  0.00  0.00     0.222 HD
ENDBRANCH   2   3
BRANCH   2   5
HETATM    5  O   UNK N   1      12.447  21.747   0.854  0.00  0.00    -0.296 OA
BRANCH   5   6
HETATM    6  C   UNK N   1      11.875  20.830   1.720  0.00  0.00     0.192 C 
BRANCH   6   7
HETATM    7  C   UNK N   1      12.889  19.754   2.079  0.00  0.00     0.008 C 
HETATM    8  C   UNK N   1      13.794  20.298   3.176  0.00  0.00     0.020 C 
HETATM    9  C   UNK N   1      12.106  18.588   2.651  0.00  0.00     0.020 C 
BRANCH   7  10
HETATM   10  C   UNK N   1      13.764  19.316   0.865  0.00  0.00     0.202 C 
BRANCH  10  11
HETATM   11  C   UNK N   1      13.021  18.897  -0.388  0.00  0.00     0.141 C 
BRANCH  11  12
HETATM   12  N   UNK N   1      11.733  18.907  -0.438  0.00  0.00    -0.372 N 
ATOM     13  HN  UNK N   1      11.208  19.181   0.393  1.00  0.00     0.161 HD
BRANCH  12  14
HETATM   14  C   UNK N   1      11.011  18.543  -1.634  0.00  0.00     0.129 C 
BRANCH  14  15
HETATM   15  C   UNK N   1       9.676  17.910  -1.259  0.00  0.00     0.103 C 
BRANCH  15  16
HETATM   16  C   UNK N   1       8.705  18.884  -0.654  0.00  0.00     0.112 C 
BRANCH  16  17
HETATM   17  N   UNK N   1       8.885  20.156  -0.790  0.00  0.00    -0.374 N 
ATOM     18  HN  UNK N   1       9.669  20.473  -1.361  1.00  0.00     0.161 HD
BRANCH  17  19
HETATM   19  C   UNK N   1       8.038  21.156  -0.179  0.00  0.00     0.132 C 
BRANCH  19  20
HETATM   20  C   UNK N   1       6.598  21.030  -0.620  0.00  0.00     0.102 C 
BRANCH  20  21
HETATM   21  S   UNK N   1       5.599  20.989   0.888  0.00  0.00    -0.091 SA
BRANCH  21  22
HETATM   22  C   UNK N   1       4.112  21.465   0.021  0.00  0.00     0.188 C 
HETATM   23  O   UNK N   1       3.793  22.641  -0.036  0.00  0.00    -0.285 OA
BRANCH  22  24
HETATM   24  C   UNK N   1       3.239  20.423  -0.609  0.00  0.00     0.122 C 
BRANCH  24  25
HETATM   25  C   UNK N   1       2.829  19.337   0.388  0.00  0.00     0.126 C 
BRANCH  25  26
HETATM   26  C   UNK N   1       1.863  18.345  -0.258  0.00  0.00     0.032 C 
BRANCH  26  27
HETATM   27  C   UNK N   1       0.581  18.988  -0.781  0.00  0.00     0.002 C 
BRANCH  27  28
HETATM   28  C   UNK N   1      -0.523  18.967   0.262  0.00  0.00     0.000 C 
BRANCH  28  29
HETATM   29  C   UNK N   1      -0.531  20.270   1.041  0.00  0.00     0.000 C 
BRANCH  29  30
HETATM   30  C   UNK N   1      -1.943  20.804   1.204  0.00  0.00    -0.000 C 
BRANCH  30  31
HETATM   31  C   UNK N   1      -2.423  21.459  -0.080  0.00  0.00    -0.005 C 
HETATM   32  C   UNK N   1      -3.125  20.442  -0.958  0.00  0.00     0.005 C 
ENDBRANCH  30  31
ENDBRANCH  29  30
ENDBRANCH  28  29
ENDBRANCH  27  28
ENDBRANCH  26  27
ENDBRANCH  25  26
BRANCH  25  33
HETATM   33  O   UNK N   1       2.257  19.904   1.528  0.00  0.00    -0.395 OA
HETATM   34  H   UNK N   1       2.400  20.444   2.321  0.00  0.00     0.210 HD
ENDBRANCH  25  33
ENDBRANCH  24  25
ENDBRANCH  22  24
ENDBRANCH  21  22
ENDBRANCH  20  21
ENDBRANCH  19  20
ENDBRANCH  17  19
ENDBRANCH  16  17
BRANCH  16  35
HETATM   35  O   UNK N   1       7.652  18.406   0.040  0.00  0.00    -0.350 OA
HETATM   36  H   UNK N   1       6.999  18.873   0.522  0.00  0.00     0.219 HD
ENDBRANCH  16  35
ENDBRANCH  15  16
ENDBRANCH  14  15
ENDBRANCH  12  14
ENDBRANCH  11  12
BRANCH  11  37
HETATM   37  O   UNK N   1      13.737  18.534  -1.474  0.00  0.00    -0.348 OA
HETATM   38  H   UNK N   1      13.768  17.978  -2.227  0.00  0.00     0.219 HD
ENDBRANCH  11  37
ENDBRANCH  10  11
BRANCH  10  39
HETATM   39  O   UNK N   1      14.611  18.275   1.255  0.00  0.00    -0.387 OA
HETATM   40  H   UNK N   1      14.280  17.405   1.525  0.00  0.00     0.210 HD
ENDBRANCH  10  39
ENDBRANCH   7  10
ENDBRANCH   6   7
ENDBRANCH   5   6
ENDBRANCH   2   5
BRANCH   2  41
HETATM   41  O   UNK N   1      11.179  24.014   0.426  0.00  0.00    -0.195 OA
BRANCH  41  42
HETATM   42  P   UNK N   1      11.679  25.168  -0.788  0.00  0.00     0.401 P 
HETATM   43  O   UNK N   1      12.823  24.619  -1.684  0.00  0.00    -0.631 OA
BRANCH  42  44
HETATM   44  O   UNK N   1      10.359  25.661  -1.795  0.00  0.00    -0.307 OA
HETATM   45  H   UNK N   1      10.228  26.439  -2.358  0.00  0.00     0.222 HD
ENDBRANCH  42  44
BRANCH  42  46
HETATM   46  O   UNK N   1      12.290  26.531   0.097  0.00  0.00    -0.294 OA
BRANCH  46  47
HETATM   47  C   UNK N   1      13.343  27.084  -0.638  0.00  0.00     0.215 C 
BRANCH  47  48
HETATM   48  C   UNK N   1      14.523  27.318   0.296  0.00  0.00     0.180 C 
HETATM   49  C   UNK N   1      15.624  26.221   0.279  0.00  0.00     0.197 C 
HETATM   50  C   UNK N   1      16.802  26.990  -0.289  0.00  0.00     0.199 C 
HETATM   51  C   UNK N   1      16.488  28.351   0.300  0.00  0.00     0.262 C 
HETATM   52  O   UNK N   1      15.135  28.553  -0.015  0.00  0.00    -0.353 OA
BRANCH  49  53
HETATM   53  O   UNK N   1      15.308  25.074  -0.516  0.00  0.00    -0.286 OA
BRANCH  53  54
HETATM   54  P   UNK N   1      15.469  23.466   0.253  0.00  0.00     0.391 P 
HETATM   55  O   UNK N   1      14.519  24.081   1.317  0.00  0.00    -0.632 OA
BRANCH  54  56
HETATM   56  O   UNK N   1      16.329  23.429   1.761  0.00  0.00    -0.307 OA
HETATM   57  H   UNK N   1      16.552  23.003   2.603  0.00  0.00     0.222 HD
ENDBRANCH  54  56
BRANCH  54  58
HETATM   58  O   UNK N   1      17.119  23.996   0.166  0.00  0.00    -0.307 OA
HETATM   59  H   UNK N   1      17.837  23.346   0.117  0.00  0.00     0.222 HD
ENDBRANCH  54  58
ENDBRANCH  53  54
ENDBRANCH  49  53
BRANCH  50  60
HETATM   60  O   UNK N   1      18.016  26.468   0.162  0.00  0.00    -0.388 OA
HETATM   61  H   UNK N   1      18.124  25.557   0.475  0.00  0.00     0.210 HD
ENDBRANCH  50  60
BRANCH  51  62
HETATM   62  N   UNK N   1      17.307  29.485  -0.139  0.00  0.00    -0.297 N 
HETATM   63  C   UNK N   1      16.862  30.765  -0.241  0.00  0.00     0.188 A 
HETATM   64  N   UNK N   1      17.894  31.643  -0.390  0.00  0.00    -0.346 N 
HETATM   65  C   UNK N   1      18.992  30.871  -0.353  0.00  0.00     0.122 A 
ATOM     66  HN  UNK N   1      17.843  32.655  -0.504  1.00  0.00     0.167 HD
HETATM   67  C   UNK N   1      20.330  31.231  -0.376  0.00  0.00     0.131 A 
HETATM   68  C   UNK N   1      18.644  29.577  -0.212  0.00  0.00     0.142 A 
HETATM   69  N   UNK N   1      21.263  30.239  -0.287  0.00  0.00    -0.337 N 
HETATM   70  C   UNK N   1      20.885  28.924  -0.166  0.00  0.00     0.183 A 
ATOM     71  HN  UNK N   1      22.255  30.477  -0.311  1.00  0.00     0.168 HD
HETATM   72  N   UNK N   1      19.560  28.588  -0.106  0.00  0.00    -0.336 N 
ATOM     73  HN  UNK N   1      19.271  27.618   0.016  1.00  0.00     0.168 HD
BRANCH  67  74
HETATM   74  N   UNK N   1      20.722  32.583  -0.441  0.00  0.00    -0.383 N 
HETATM   75  H   UNK N   1      21.677  32.818  -0.487  0.00  0.00     0.157 HD
HETATM   76  H   UNK N   1      20.041  33.294  -0.441  0.00  0.00     0.157 HD
ENDBRANCH  67  74
ENDBRANCH  51  62
ENDBRANCH  47  48
ENDBRANCH  46  47
ENDBRANCH  42  46
ENDBRANCH  41  42
ENDBRANCH   2  41
TORSDOF 40
